data_mof_unit_9283.cif
_audit_creation_date              2012-12-11T14:36:15-0500
_audit_creation_method            fapswitch 2.2
_symmetry_space_group_name_H-M    P1
_symmetry_Int_Tables_number       1
_space_group_crystal_system       triclinic
_cell_length_a                    13.48317
_cell_length_b                    13.465268
_cell_length_c                    27.539256
_cell_angle_alpha                 90.775845
_cell_angle_beta                  90.248754
_cell_angle_gamma                 60.131117
_cell_volume                      4335.31489266

loop_
_atom_site_label
_atom_site_type_symbol
_atom_type_description
_atom_site_fract_x
_atom_site_fract_y
_atom_site_fract_z
_atom_type_partial_charge
C1    C     C_R   0.620231 0.101285 0.570299 0.544678
C2    C     C_1   0.630423 0.733253 0.616490 -0.013247
C3    C     C_3   0.778595 0.589687 0.769331 -0.095056
C4    C     C_3   0.679273 0.655321 0.805943 0.034168
C5    C     C_3   0.696724 0.569966 0.735506 -0.117337
C6    C     C_3   0.660691 0.685356 0.710765 0.030340
C7    C     C_3   0.599473 0.635991 0.772437 0.168943
C8    C     C_3   0.561373 0.750982 0.747393 -0.098226
C9    C     C_1   0.687961 0.634116 0.858203 -0.044432
C10   C     C_1   0.647801 0.706665 0.658528 -0.050996
C11   C     C_3   0.063217 0.218592 0.737579 0.177610
C12   C     C_R   0.599557 0.779713 0.568785 0.544316
C13   C     C_3   0.095201 0.116553 0.771096 -0.073158
C14   C     C_1   0.096118 0.201312 0.901740 -0.012212
C15   C     C_1   0.230157 0.137979 0.617597 -0.021778
C16   C     C_3   0.110340 0.272134 0.773981 -0.086381
C17   C     C_3   0.145799 0.168269 0.807063 0.032973
C18   C     C_3   0.228531 0.206149 0.748381 -0.126809
C19   C     C_3   0.178667 0.154636 0.711959 0.056365
C20   C     C_3   0.263673 0.102675 0.782243 -0.115210
C21   C     C_3   0.213764 0.050986 0.745262 -0.124245
C22   C     C_1   0.123449 0.181852 0.859527 -0.054212
C23   C     C_R   0.277926 0.121794 0.569742 0.545467
C24   C     C_1   0.202130 0.146961 0.659660 -0.059649
C25   C     C_3   0.643878 0.271842 0.739485 -0.100543
C26   C     C_3   0.560175 0.267838 0.776803 -0.100969
C27   C     C_1   0.691202 0.208091 0.902899 -0.011275
C28   C     C_1   0.635846 0.133158 0.618488 -0.020483
C29   C     C_3   0.746330 0.190864 0.771693 -0.103524
C30   C     C_3   0.662544 0.186509 0.808169 0.050210
C31   C     C_3   0.754452 0.085369 0.744761 -0.107699
C32   C     C_3   0.652130 0.166570 0.713323 0.049966
C33   C     C_3   0.670865 0.081270 0.781981 -0.097369
C34   C     C_R   0.621762 0.098601 0.431036 0.538223
C35   C     C_3   0.568302 0.162210 0.749815 -0.097619
C36   C     C_1   0.674121 0.197283 0.860663 -0.059150
C37   C     C_1   0.644808 0.151711 0.660791 -0.067109
C38   C     C_R   0.724938 0.656420 0.363780 -0.146362
C39   C     C_R   0.743557 0.635171 0.314114 0.020003
C40   C     C_R   0.774191 0.587873 0.214838 0.013092
C41   C     C_R   0.859092 0.516633 0.247577 -0.120588
C42   C     C_R   0.844169 0.540514 0.297067 -0.119656
C43   C     C_R   0.785317 0.558699 0.166270 -0.156403
C44   C     C_R   0.697664 0.624281 0.133718 0.049618
C45   C     C_R   0.600630 0.778060 0.430221 0.536517
C46   C     C_R   0.539287 0.822883 0.347249 -0.117694
C47   C     C_R   0.557403 0.804519 0.297813 0.011711
C48   C     C_R   0.658801 0.709063 0.280968 0.074074
C49   C     C_R   0.475522 0.879578 0.265165 -0.116839
C50   C     C_R   0.490185 0.856483 0.215589 -0.110756
C51   C     C_R   0.587285 0.757297 0.197987 0.050069
C52   C     C_R   0.674183 0.685901 0.231131 0.066797
C53   C     C_R   0.599252 0.724995 0.148521 0.143298
C54   C     C_R   0.621731 0.747965 0.379834 0.012187
C55   C     C_R   0.197997 0.066252 0.359502 -0.142903
C56   C     C_R   0.276873 0.121302 0.431167 0.536580
C57   C     C_R   0.169402 0.080983 0.309884 0.032786
C58   C     C_R   0.134935 0.102784 0.208757 -0.025640
C59   C     C_R   0.131919 0.013841 0.233301 -0.110144
C60   C     C_R   0.149218 0.001940 0.283616 0.143294
C61   C     C_R   0.111707 0.117439 0.159193 -0.164291
C62   C     C_R   0.111198 0.208456 0.134686 -0.005327
C63   C     C_R   0.196344 0.246977 0.361174 -0.119971
C64   C     C_R   0.182025 0.256691 0.311211 0.031153
C65   C     C_R   0.168415 0.173325 0.285210 -0.007349
C66   C     C_R   0.187795 0.344558 0.286540 0.113463
C67   C     C_3   0.740405 0.704853 0.744213 0.166542
C68   C     C_R   0.184018 0.346368 0.236086 -0.115537
C69   C     C_R   0.163684 0.268566 0.209591 0.011876
C70   C     C_R   0.155210 0.181815 0.234510 0.002242
C71   C     C_R   0.147994 0.278043 0.158953 0.130509
C72   C     C_R   0.216248 0.146982 0.384551 -0.041412
C73   C     C_R   0.605171 0.233342 0.366342 -0.153376
C74   C     C_R   0.611218 0.253767 0.317039 -0.036693
C75   C     C_R   0.620767 0.294025 0.217771 0.008004
C76   C     C_R   0.584095 0.384618 0.252106 0.234097
C77   C     C_R   0.580683 0.363601 0.301359 -0.109886
C78   C     C_3   0.643064 0.770801 0.781211 -0.117062
C79   C     C_R   0.633902 0.310328 0.168852 -0.147642
C80   C     C_R   0.677353 0.218287 0.135700 0.002168
C81   C     C_R   0.673459 0.032724 0.347415 -0.127528
C82   C     C_R   0.676807 0.052296 0.298329 0.010985
C83   C     C_R   0.645890 0.163144 0.282798 0.048177
C84   C     C_R   0.709285 0.962771 0.264669 -0.151612
C85   C     C_R   0.712964 0.982009 0.215469 -0.104011
C86   C     C_R   0.685832 0.091192 0.199078 0.032169
C87   C     C_R   0.650274 0.182982 0.233131 -0.013386
C88   C     C_R   0.697777 0.109866 0.149903 0.213247
C89   C     C_1   0.696897 0.608074 0.900301 -0.007091
C90   C     C_R   0.636929 0.122819 0.381324 0.007714
C91   C     C_R   0.049087 0.236197 0.949706 0.542788
C92   C     C_R   0.711518 0.562976 0.948227 0.546537
C93   C     C_R   0.722163 0.225473 0.950867 0.555329
C94   C     C_R   0.049912 0.244542 0.088139 0.537428
C95   C     C_R   0.708693 0.574758 0.085997 0.569915
C96   C     C_R   0.718052 0.234306 0.089105 0.587162
Cr1   Cr    Cr6+3 0.417550 0.169090 0.500530 1.023112
Cr2   Cr    Cr6+3 0.669180 0.913420 0.499920 1.024553
Cr3   Cr    Cr6+3 0.413260 0.917540 0.499520 1.023763
Cr4   Cr    Cr6+3 0.909170 0.177380 0.020380 1.059108
Cr5   Cr    Cr6+3 0.912710 0.429210 0.018220 1.014343
Cr6   Cr    Cr6+3 0.657170 0.432570 0.019030 1.048878
H1    H     H_    0.622907 0.852168 0.799994 0.096586
H2    H     H_    0.347034 0.054332 0.801122 0.112137
H3    H     H_    0.282733 0.243623 0.738762 0.104203
H4    H     H_    0.067244 0.363242 0.785922 0.097674
H5    H     H_    0.480195 0.342638 0.790544 0.103886
H6    H     H_    0.634117 0.349241 0.721368 0.100684
H7    H     H_    0.495287 0.149634 0.740157 0.100840
H8    H     H_    0.681136 0.003663 0.800104 0.099015
H9    H     H_    0.834532 0.010565 0.731084 0.098767
H10   H     H_    0.819329 0.203322 0.781581 0.125373
H11   H     H_    0.859409 0.479465 0.154181 0.129675
H12   H     H_    0.788977 0.601705 0.389786 0.105222
H13   H     H_    0.935540 0.440805 0.234969 0.118629
H14   H     H_    0.909811 0.483596 0.321989 0.123192
H15   H     H_    0.424070 0.915984 0.191649 0.119739
H16   H     H_    0.399246 0.955207 0.278044 0.125155
H17   H     H_    0.461537 0.896780 0.360619 0.129119
H18   H     H_    0.087108 0.061816 0.140339 0.143452
H19   H     H_    0.211732 0.989943 0.377993 0.163929
H20   H     H_    0.114890 0.953881 0.213429 0.119496
H21   H     H_    0.472304 0.815976 0.738014 0.101321
H22   H     H_    0.194991 0.411248 0.218348 0.149157
H23   H     H_    0.204677 0.312156 0.381202 0.178302
H24   H     H_    0.618824 0.392942 0.156821 0.196404
H25   H     H_    0.575248 0.302686 0.392836 0.109167
H26   H     H_    0.552732 0.433665 0.327376 0.147872
H27   H     H_    0.739563 0.909937 0.190788 0.173343
H28   H     H_    0.732829 0.877408 0.276461 0.114776
H29   H     H_    0.695022 0.947644 0.359148 0.132860
H30   H     H_    0.716132 0.488745 0.716779 0.112596
H31   H     H_    0.867720 0.524996 0.778703 0.107250
H32   H     H_    0.040047 0.080146 0.780736 0.096538
H33   H     H_    0.256217 0.960087 0.733027 0.100236
O1    O     O_R   0.301710 0.195650 0.554160 -0.505253
O2    O     O_R   0.658900 0.818120 0.449760 -0.504192
O3    O     O_R   0.503220 0.801620 0.445520 -0.510984
O4    O     O_R   0.319370 0.022040 0.450020 -0.503974
O5    O     O_3   0.499990 0.000010 0.499990 -0.248645
O6    O     O_R   0.818720 0.150820 0.967160 -0.493708
O7    O     O_R   0.006410 0.181720 0.970200 -0.495709
O8    O     O_R   0.027890 0.334070 0.964920 -0.508659
O9    O     O_R   0.809600 0.521790 0.967960 -0.495516
O10   O     O_R   0.635520 0.542770 0.964420 -0.502105
O11   O     O_R   0.665950 0.325030 0.970100 -0.495934
O12   O     O_R   0.522390 0.158990 0.550460 -0.494348
O13   O     O_R   0.816620 0.158530 0.074540 -0.454847
O14   O     O_R   0.004460 0.188870 0.069750 -0.505586
O15   O     O_R   0.025800 0.341780 0.072300 -0.516613
O16   O     O_R   0.807650 0.528950 0.067500 -0.521190
O17   O     O_R   0.633420 0.550490 0.071810 -0.479407
O18   O     O_R   0.664000 0.332180 0.069640 -0.513993
O19   O     O_3   0.826350 0.346390 0.019210 -0.261132
O20   O     O_R   0.694390 0.003530 0.554040 -0.505752
O21   O     O_R   0.657700 0.819660 0.549320 -0.492248
O22   O     O_R   0.501930 0.803280 0.552920 -0.508932
O23   O     O_R   0.318170 0.023580 0.549580 -0.495248
O24   O     O_R   0.303010 0.193990 0.446760 -0.520986
O25   O     O_R   0.523600 0.157450 0.450900 -0.499066
O26   O     O_R   0.695690 0.001860 0.446640 -0.518098
N1    N     N_2   0.816358 0.743839 0.727072 -0.509219
H34   H     H_    0.774103 0.819276 0.708151 0.254282
C97   C     C_3   0.894039 0.744850 0.763131 -0.309050
H35   H     H_    0.949562 0.774210 0.746356 0.138022
H36   H     H_    0.949632 0.657315 0.777286 0.153574
H37   H     H_    0.845606 0.803997 0.793599 0.135366
N2    N     N_2   0.512691 0.788974 0.113786 -0.518318
H38   H     H_    0.430045 0.817688 0.125289 0.258233
C98   C     C_3   0.527438 0.875011 0.089248 -0.288362
H39   H     H_    0.460284 0.916376 0.061141 0.148336
H40   H     H_    0.612350 0.835151 0.071073 0.187100
H41   H     H_    0.520197 0.941638 0.115574 0.167756
N3    N     N_2   0.144689 0.911170 0.307489 -0.524383
H42   H     H_    0.173849 0.837904 0.286416 0.263811
C99   C     C_3   0.035018 0.944709 0.329542 -0.305013
H43   H     H_    0.967796 0.971671 0.301183 0.154541
H44   H     H_    0.010957 0.016260 0.355955 0.161217
H45   H     H_    0.040000 0.871006 0.349280 0.148034
N4    N     N_2   0.173512 0.353455 0.132479 -0.513027
H46   H     H_    0.211067 0.324338 0.098860 0.267746
C100  C     C_3   0.092951 0.475619 0.135569 -0.276727
H47   H     H_    0.048636 0.507341 0.100361 0.176510
H48   H     H_    0.140231 0.521630 0.143902 0.144766
H49   H     H_    0.027881 0.496695 0.164380 0.135380
N5    N     N_2   0.200537 0.430073 0.312110 -0.541280
H50   H     H_    0.152650 0.510701 0.297672 0.252105
C101  C     C_3   0.318233 0.400395 0.319406 -0.298720
H51   H     H_    0.360011 0.393124 0.283816 0.166733
H52   H     H_    0.365604 0.317900 0.338818 0.170212
H53   H     H_    0.321577 0.468027 0.341661 0.151736
Cl1   Cl    Cl    0.540016 0.526445 0.235308 -0.655944
Cl2   Cl    Cl    0.739467 0.998575 0.105927 -0.651684
N6    N     N_2   0.523471 0.596916 0.789458 -0.505763
H54   H     H_    0.566280 0.518994 0.806544 0.254388
C102  C     C_3   0.441035 0.602751 0.754233 -0.308110
H55   H     H_    0.388192 0.569500 0.770430 0.138198
H56   H     H_    0.485158 0.550451 0.721486 0.132676
H57   H     H_    0.383232 0.692923 0.743587 0.152412
N7    N     N_2   0.953774 0.284265 0.713824 -0.534516
H58   H     H_    0.942835 0.358731 0.698757 0.251449
C103  C     C_3   0.921140 0.219835 0.681589 -0.309806
H59   H     H_    0.830459 0.274455 0.670743 0.140657
H60   H     H_    0.929754 0.143041 0.699936 0.150033
H61   H     H_    0.975180 0.192803 0.648387 0.149473

loop_
_geom_bond_atom_site_label_1
_geom_bond_atom_site_label_2
_ccdc_geom_bond_type
C66   C68   A    
C55   H19   S    
C40   C41   A    
C50   H15   S    
C60   N3    S    
C41   C42   A    
C29   H10   S    
C83   C87   A    
C74   C83   A    
C43   C44   A    
C34   O26   A    
C2    C12   S    
C68   H22   S    
C34   C90   S    
C81   C82   A    
C7    C8    S    
C47   C49   A    
C85   C86   A    
C94   O14   A    
C11   C19   S    
C20   C21   S    
C103  H60   S    
C23   O1    A    
C101  H53   S    
Cr1   O24   S    
C101  H52   S    
C97   H35   S    
C19   C21   S    
C12   O21   A    
C73   C90   A    
C56   O24   A    
Cr4   O6    S    
C4    C7    S    
Cr6   O10   S    
C5    C6    S    
C38   H12   S    
Cr5   O9    S    
C86   C88   A    
C81   H29   S    
C98   H39   S    
C65   C70   A    
C13   H32   S    
Cr5   O15   S    
C17   C20   S    
C59   H20   S    
C1    O20   A    
C18   C19   S    
C73   C74   A    
C84   H28   S    
C69   C71   A    
C11   N7    S    
C89   C92   S    
C85   H27   S    
C100  H47   S    
C44   C53   A    
C5    H30   S    
C96   O18   A    
C28   C37   T    
C16   C17   S    
C56   C72   S    
C103  H61   S    
N7    H58   S    
C1    C28   S    
C31   C33   S    
Cr3   O3    S    
Cr5   O8    S    
C12   O22   A    
C80   C96   S    
Cr6   O19   S    
Cr1   O5    S    
N1    C97   S    
C55   C72   A    
C35   H7    S    
C16   H4    S    
C91   O7    A    
C25   C32   S    
C15   C23   S    
N6    H54   S    
C78   H1    S    
C59   C60   A    
C63   C64   A    
C80   C88   A    
C61   H18   S    
C8    C78   S    
Cr1   O12   S    
Cr3   O4    S    
C61   C62   A    
C67   C78   S    
C41   H13   S    
C102  H57   S    
N4    C100  S    
C39   C42   A    
C91   O8    A    
C46   H17   S    
C40   C43   A    
C25   C29   S    
C96   O13   A    
Cr2   O21   S    
C103  H59   S    
Cr2   O2    S    
C51   C52   A    
Cr1   O25   S    
N2    H38   S    
C76   C77   A    
C102  H56   S    
C9    C89   T    
C5    C7    S    
C56   O4    A    
C86   C87   A    
C58   C70   A    
C57   C60   A    
C6    C8    S    
C25   C26   S    
C40   C52   A    
C74   C77   A    
Cr4   O13   S    
Cr2   O5    S    
C101  H51   S    
C51   C53   A    
C100  H49   S    
C64   C66   A    
C71   N4    S    
C75   C76   A    
C32   C35   S    
C62   C94   S    
C4    C78   S    
C29   C30   S    
C76   Cl1   S    
C11   C16   S    
C53   N2    S    
C47   C48   A    
C38   C54   A    
C23   O23   A    
C46   C54   A    
C45   O2    A    
C50   C51   A    
C13   C21   S    
C93   O11   A    
C46   C47   A    
C32   C37   S    
C84   C85   A    
C7    N6    S    
Cr6   O18   S    
C63   H23   S    
C77   H26   S    
N5    H50   S    
C81   C90   A    
C42   H14   S    
C99   H43   S    
C79   H24   S    
C45   C54   S    
C26   C30   S    
C82   C84   A    
C55   C57   A    
C27   C36   T    
C49   C50   A    
Cr3   O5    S    
C27   C93   S    
C95   O16   A    
N5    C101  S    
C3    C4    S    
C2    C10   T    
N6    C102  S    
C6    C67   S    
Cr2   O26   S    
C93   O6    A    
N4    H46   S    
N1    H34   S    
Cr4   O19   S    
C33   H8    S    
Cr2   O20   S    
C15   C24   T    
C30   C33   S    
C92   O10   A    
C88   Cl2   S    
C68   C69   A    
C31   C32   S    
C3    C67   S    
C57   C65   A    
C102  H55   S    
C3    C5    S    
C26   H5    S    
C6    C10   S    
C8    H21   S    
C20   H2    S    
C30   C36   S    
Cr4   O14   S    
C94   O15   A    
C17   C22   S    
C13   C17   S    
C64   C65   A    
C99   H45   S    
C97   H36   S    
C19   C24   S    
C58   C59   A    
C18   H3    S    
C29   C31   S    
C66   N5    S    
C73   H25   S    
Cr6   O11   S    
N3    H42   S    
C11   C13   S    
C67   N1    S    
C14   C22   T    
C38   C39   A    
C98   H40   S    
Cr5   O19   S    
C58   C61   A    
Cr3   O22   S    
N2    C98   S    
C45   O3    A    
C33   C35   S    
N3    C99   S    
Cr5   O16   S    
C62   C71   A    
C18   C20   S    
C97   H37   S    
C69   C70   A    
C92   O9    A    
C100  H48   S    
C14   C91   S    
C1    O12   A    
C79   C80   A    
C49   H16   S    
C26   C35   S    
C48   C52   A    
C63   C72   A    
C16   C18   S    
C82   C83   A    
Cr3   O23   S    
C44   C95   S    
C31   H9    S    
C39   C48   A    
Cr4   O7    S    
C95   O17   A    
Cr1   O1    S    
C3    H31   S    
C4    C9    S    
C75   C79   A    
C21   H33   S    
N7    C103  S    
C43   H11   S    
C75   C87   A    
C25   H6    S    
Cr6   O17   S    
C99   H44   S    
C98   H41   S    
C34   O25   A    
