data_mof_unit_13647.cif
_audit_creation_date              2013-03-05T15:47:33-0500
_audit_creation_method            fapswitch 2.2
_symmetry_space_group_name_H-M    P1
_symmetry_Int_Tables_number       1
_space_group_crystal_system       triclinic
_cell_length_a                    7.224958
_cell_length_b                    15.514498
_cell_length_c                    22.268609
_cell_angle_alpha                 89.953678
_cell_angle_beta                  91.321116
_cell_angle_gamma                 87.971579
_cell_volume                      2493.89344316

loop_
_atom_site_label
_atom_site_type_symbol
_atom_site_description
_atom_site_fract_x
_atom_site_fract_y
_atom_site_fract_z
_atom_type_partial_charge
O1    O     O_R   0.390810 0.844810 0.447340 -0.583433
O2    O     O_R   0.109190 0.155190 0.947340 -0.582966
O3    O     O_R   0.890810 0.655190 0.552660 -0.593954
O4    O     O_R   0.609190 0.344810 0.052660 -0.595493
O5    O     O_R   0.720550 0.655820 0.440420 -0.565031
O6    O     O_R   0.779450 0.344180 0.940420 -0.583116
O7    O     O_R   0.220550 0.844180 0.559580 -0.578250
O8    O     O_R   0.279450 0.155820 0.059580 -0.584721
C1    C     C_R   0.554810 0.624836 0.428406 1.017119
C2    C     C_R   0.942594 0.376016 0.928757 1.013097
C3    C     C_R   0.052019 0.874210 0.572209 1.022253
C4    C     C_R   0.451439 0.124760 0.071318 1.022810
O9    O     O_R   0.720530 0.844130 0.440420 -0.587780
O10   O     O_R   0.779470 0.155870 0.940420 -0.584926
O11   O     O_R   0.220530 0.655870 0.559580 -0.579890
O12   O     O_R   0.279470 0.344130 0.059580 -0.577641
O13   O     O_R   0.890830 0.844810 0.552660 -0.577887
O14   O     O_R   0.609170 0.155190 0.052660 -0.567859
O15   O     O_R   0.390830 0.655190 0.447340 -0.594938
O16   O     O_R   0.109170 0.344810 0.947340 -0.581531
C5    C     C_R   0.548171 0.872049 0.425672 0.985961
C6    C     C_R   0.948177 0.128702 0.925006 0.971291
C7    C     C_R   0.056869 0.628237 0.575043 0.984865
C8    C     C_R   0.446439 0.372011 0.074475 0.981119
O17   O     O_3   0.557310 0.749980 0.536820 -0.255208
O18   O     O_3   0.942690 0.250020 0.036820 -0.267362
O19   O     O_3   0.057310 0.750020 0.463180 -0.277057
O20   O     O_3   0.442690 0.249980 0.963180 -0.265175
V1    V     V_3+5 0.832160 0.749980 0.493170 1.277377
V2    V     V_3+5 0.667840 0.250020 0.993170 1.276254
V3    V     V_3+5 0.332160 0.750020 0.506830 1.280137
V4    V     V_3+5 0.167840 0.249980 0.006830 1.274516
C9    C     C_R   0.726457 0.568162 0.849745 -0.060819
C10   C     C_R   0.725426 0.417218 0.360779 -0.035910
C11   C     C_R   0.651761 0.915342 0.130002 -0.036623
C12   C     C_R   0.179739 0.085441 0.637609 -0.014944
H1    H     H_    0.696308 0.508052 0.934766 0.122077
H2    H     H_    0.755656 0.479112 0.445876 0.116513
H3    H     H_    0.631572 0.977417 0.044358 0.110006
H4    H     H_    0.213181 0.022809 0.553075 0.113317
H5    H     H_    0.607936 0.610813 0.857755 0.160854
H6    H     H_    0.820910 0.365310 0.374714 0.158374
H7    H     H_    0.735389 0.862749 0.111853 0.156005
H8    H     H_    0.257779 0.139507 0.622831 0.160615
C13   C     C_R   0.926718 0.450738 0.887124 -0.131342
C14   C     C_R   0.561949 0.549853 0.387564 -0.121717
C15   C     C_R   0.479128 0.049251 0.111093 -0.120651
C16   C     C_R   0.050738 0.948584 0.613027 -0.121101
C17   C     C_R   0.208597 0.495629 0.612778 -0.184307
C18   C     C_R   0.354306 0.519516 0.101841 -0.203892
C19   C     C_R   0.449675 0.020742 0.402611 -0.193429
C20   C     C_R   0.889018 0.978875 0.899573 -0.195504
C21   C     C_R   0.275699 0.442172 0.658567 0.025923
C22   C     C_R   0.326561 0.586989 0.141781 0.001051
C23   C     C_R   0.402157 0.088744 0.364209 -0.009499
C24   C     C_R   0.874978 0.909614 0.860616 -0.037052
C25   C     C_R   0.203279 0.448505 0.715593 -0.012920
C26   C     C_R   0.383890 0.578563 0.201521 -0.017951
C27   C     C_R   0.421755 0.079858 0.302602 -0.021170
C28   C     C_R   0.918048 0.918152 0.800429 -0.051573
C29   C     C_R   0.056806 0.507802 0.728367 0.034348
C30   C     C_R   0.472846 0.501723 0.223228 0.037247
C31   C     C_R   0.491617 0.002019 0.277400 0.040323
C32   C     C_R   0.978568 0.996956 0.777371 0.043938
C33   C     C_R   0.995972 0.567639 0.682203 -0.045454
C34   C     C_R   0.507700 0.432660 0.181767 -0.064221
C35   C     C_R   0.547890 0.932573 0.316938 -0.069864
C36   C     C_R   0.002530 0.067521 0.818055 -0.084944
C37   C     C_R   0.972999 0.510633 0.786111 0.045671
C38   C     C_R   0.530561 0.492568 0.284896 0.042607
C39   C     C_R   0.509691 0.992210 0.213944 0.041180
C40   C     C_R   0.021740 0.006334 0.715274 0.021877
C41   C     C_R   0.820808 0.569352 0.795223 -0.035573
C42   C     C_R   0.648140 0.421273 0.302178 -0.043606
C43   C     C_R   0.612034 0.919974 0.191540 -0.041884
C44   C     C_R   0.113246 0.080407 0.696438 -0.043693
C45   C     C_R   0.766653 0.629624 0.750449 0.182793
C46   C     C_R   0.684113 0.354151 0.261379 0.211911
C47   C     C_R   0.670034 0.852599 0.230401 0.217875
C48   C     C_R   0.135124 0.149223 0.735990 0.258895
C49   C     C_R   0.866755 0.634085 0.697383 0.195468
C50   C     C_R   0.601938 0.356750 0.203602 0.192668
C51   C     C_R   0.624453 0.855908 0.291332 0.192942
C52   C     C_R   0.073614 0.144492 0.795001 0.195587
C53   C     C_R   0.028845 0.454184 0.834356 -0.085102
C54   C     C_R   0.477594 0.552716 0.330065 -0.075634
C55   C     C_R   0.431418 0.052624 0.171796 -0.075935
C56   C     C_R   0.978027 0.944339 0.670944 -0.086175
C57   C     C_R   0.778121 0.509618 0.894599 -0.185166
C58   C     C_R   0.686360 0.481752 0.402180 -0.201911
C59   C     C_R   0.590130 0.980296 0.090809 -0.199784
C60   C     C_R   0.153010 0.019177 0.597118 -0.209103
C61   C     C_R   0.074223 0.561029 0.623306 -0.139387
C62   C     C_R   0.443956 0.442113 0.120195 -0.125217
C63   C     C_R   0.522557 0.942474 0.380572 -0.126166
C64   C     C_R   0.952595 0.057993 0.879896 -0.123364
H9    H     H_    0.143617 0.408943 0.831094 0.168377
H10   H     H_    0.373133 0.602394 0.321228 0.163231
H11   H     H_    0.335355 0.102929 0.185400 0.167052
H12   H     H_    0.888798 0.892823 0.680880 0.186250
H13   H     H_    0.271319 0.489316 0.569150 0.113445
H14   H     H_    0.303978 0.527617 0.055865 0.109891
H15   H     H_    0.428229 0.029111 0.450311 0.105407
H16   H     H_    0.850312 0.970529 0.945911 0.105968
H17   H     H_    0.264992 0.405218 0.748597 0.161044
H18   H     H_    0.361664 0.634579 0.229420 0.158889
H19   H     H_    0.386278 0.136216 0.275790 0.159421
H20   H     H_    0.908416 0.861005 0.773170 0.167571
H21   H     H_    0.386309 0.395280 0.649779 0.155535
H22   H     H_    0.258869 0.646588 0.126308 0.143788
H23   H     H_    0.348383 0.149060 0.382382 0.134180
H24   H     H_    0.829576 0.848531 0.877340 0.156167
N1    N     N_R   0.615990 0.690472 0.759972 0.255207
O21   O     O_R   0.630975 0.750912 0.800028 -0.431836
O22   O     O_R   0.462883 0.685115 0.728498 -0.334717
N2    N     N_R   0.790766 0.278759 0.280210 0.254909
O23   O     O_R   0.724061 0.225453 0.318561 -0.416946
O24   O     O_R   0.959042 0.266214 0.261711 -0.351569
N3    N     N_R   0.760367 0.776280 0.207120 0.255279
O25   O     O_R   0.936670 0.761745 0.217422 -0.362709
O26   O     O_R   0.669304 0.724136 0.172653 -0.418720
N4    N     N_R   0.203713 0.228570 0.714541 0.237566
O27   O     O_R   0.106786 0.272753 0.674499 -0.425496
O28   O     O_R   0.375341 0.246984 0.725676 -0.391766
N5    N     N_R   0.873667 0.715664 0.668412 0.216025
O29   O     O_R   0.031716 0.753219 0.668683 -0.460717
O30   O     O_R   0.722734 0.758746 0.652524 -0.353894
N6    N     N_R   0.583772 0.277211 0.172620 0.218516
O31   O     O_R   0.419124 0.246837 0.167387 -0.469072
O32   O     O_R   0.728172 0.227650 0.161848 -0.342689
N7    N     N_R   0.622182 0.776561 0.323256 0.217271
O33   O     O_R   0.769609 0.726101 0.327395 -0.347233
O34   O     O_R   0.461654 0.747025 0.335725 -0.472249
N8    N     N_R   0.068754 0.221972 0.828686 0.211293
O35   O     O_R   0.918973 0.270728 0.824881 -0.430722
O36   O     O_R   0.223976 0.254418 0.846654 -0.382003

loop_
_geom_bond_atom_site_label_1
_geom_bond_atom_site_label_2
_geom_bond_distance
_ccdc_geom_bond_type
O17   V3    1.744129 S    
C25   H17   1.073724 S    
C26   C30   1.413645 A    
C23   C27   1.388887 A    
O19   V1    1.772658 S    
O13   V1    2.029934 S    
O3    C7    1.341386 A    
C10   H6    1.082201 S    
C48   C52   1.399572 A    
O15   V3    2.020921 S    
N6    O31   1.297727 A    
C14   C54   1.405314 A    
C48   N4    1.429099 S    
O1    C5    1.327776 A    
C11   C43   1.407927 A    
O5    C1    1.327690 A    
C36   C64   1.440427 A    
C32   C36   1.434266 A    
O9    V1    2.008503 S    
C9    C57   1.385405 A    
C17   H13   1.084492 S    
O4    C8    1.337269 A    
C19   H15   1.084248 S    
O1    V3    2.040618 S    
N2    O23   1.300647 A    
C30   C38   1.431425 A    
O2    V4    2.029446 S    
O3    V1    2.006022 S    
C12   C44   1.408773 A    
C1    O15   1.336797 A    
C20   H16   1.084176 S    
C2    O16   1.337736 A    
C47   N3    1.434792 S    
C38   C42   1.418081 A    
C19   C63   1.400097 A    
C16   C56   1.406160 A    
C37   C41   1.421205 A    
O14   V2    2.041107 S    
C11   H7    1.082173 S    
O5    V1    2.051010 S    
C28   H20   1.078278 S    
C40   C44   1.414024 A    
C34   C62   1.441995 A    
C23   H23   1.082825 S    
C12   C60   1.383734 A    
O11   C7    1.324743 A    
C1    C14   1.477431 S    
O12   C8    1.330828 A    
C35   C63   1.440623 A    
C3    C16   1.469374 S    
C15   C59   1.395868 A    
O10   V2    2.031503 S    
C4    C15   1.473264 S    
C45   N1    1.435027 S    
H3    C59   1.083985 S    
C40   C56   1.417039 A    
O16   V4    2.006498 S    
C55   H11   1.074398 S    
N3    O26   1.300694 A    
C31   C35   1.432571 A    
C39   C43   1.418050 A    
O7    V3    2.031555 S    
C30   C34   1.434275 A    
C36   C52   1.417018 A    
C21   C25   1.386814 A    
O18   V4    1.772618 S    
C18   C62   1.400209 A    
N8    O36   1.300305 A    
C5    C63   1.487293 S    
C27   H19   1.078395 S    
C7    C61   1.496921 S    
C26   H18   1.078247 S    
C22   H22   1.082861 S    
O8    V4    2.008560 S    
O7    C3    1.324621 A    
C10   C58   1.387655 A    
C51   N7    1.421838 S    
C8    C62   1.490316 S    
C34   C50   1.419179 A    
C46   C50   1.404456 A    
C33   C49   1.412635 A    
C45   C49   1.402532 A    
O8    C4    1.336801 A    
C52   N8    1.417231 S    
C2    C13   1.483414 S    
O9    C5    1.337515 A    
C18   C22   1.386329 A    
C35   C51   1.419477 A    
H4    C60   1.084157 S    
C25   C29   1.411582 A    
C50   N6    1.422901 S    
C56   H12   1.070582 S    
C10   C42   1.407995 A    
C39   C55   1.419803 A    
C9    C41   1.406453 A    
O6    V2    2.070858 S    
C31   C39   1.429855 A    
C18   H14   1.084257 S    
C16   C60   1.392735 A    
N5    O29   1.300094 A    
C12   H8    1.082306 S    
N4    O28   1.300667 A    
N7    O33   1.300861 A    
C38   C54   1.422306 A    
C37   C53   1.427422 A    
N1    O21   1.300288 A    
C22   C26   1.388863 A    
C29   C37   1.433917 A    
C3    O13   1.329798 A    
C13   C57   1.397814 A    
C49   N5    1.423107 S    
C6    C64   1.488059 S    
C46   N2    1.434653 S    
C44   C48   1.395570 A    
N7    O34   1.297881 A    
N6    O32   1.300870 A    
O6    C2    1.325098 A    
N3    O25   1.300816 A    
O11   V3    2.070809 S    
N8    O35   1.299278 A    
C14   C58   1.396045 A    
O12   V4    2.050957 S    
H2    C58   1.084049 S    
C27   C31   1.413914 A    
H1    C57   1.084155 S    
C13   C53   1.403835 A    
C28   C32   1.413078 A    
C9    H5    1.081696 S    
O10   C6    1.328288 A    
O20   V2    1.744171 S    
O2    C6    1.333050 A    
C47   C51   1.404161 A    
C17   C21   1.382005 A    
C33   C61   1.442425 A    
N2    O24   1.300840 A    
C20   C64   1.399288 A    
C19   C23   1.386203 A    
C32   C40   1.432972 A    
C54   H10   1.074289 S    
C53   H9    1.071080 S    
C29   C33   1.435460 A    
C24   C28   1.390195 A    
C42   C46   1.403806 A    
C4    O14   1.324311 A    
N5    O30   1.300511 A    
C41   C45   1.405785 A    
C21   H21   1.082813 S    
C17   C61   1.402922 A    
N4    O27   1.300618 A    
C43   C47   1.402831 A    
C24   H24   1.082335 S    
O4    V2    2.020444 S    
C20   C24   1.386605 A    
C15   C55   1.403253 A    
N1    O22   1.301013 A    
C11   C59   1.387233 A    
