data_mof_unit_42866.cif
_audit_creation_date              2012-10-26T20:31:42-0400
_audit_creation_method            fapswitch 2.2
_symmetry_space_group_name_H-M    P1
_symmetry_Int_Tables_number       1
_space_group_crystal_system       triclinic
_cell_length_a                    16.049183
_cell_length_b                    10.879321
_cell_length_c                    9.614638
_cell_angle_alpha                 91.580163
_cell_angle_beta                  89.867371
_cell_angle_gamma                 91.999982
_cell_volume                      1677.09413116

loop_
_atom_site_label
_atom_site_type_symbol
_atom_type_description
_atom_site_fract_x
_atom_site_fract_y
_atom_site_fract_z
_atom_type_partial_charge
C1    C     C_R   0.496214 0.262579 0.497901 0.546931
C2    C     C_R   0.486200 0.129027 0.494829 -0.000665
C3    C     C_R   0.464502 0.056796 0.373576 -0.035668
C4    C     C_R   0.340937 0.497311 0.500114 0.554292
C5    C     C_R   0.466009 0.927750 0.379461 -0.129096
C6    C     C_R   0.487981 0.869859 0.502816 -0.026322
C7    C     C_R   0.495119 0.942759 0.624059 -0.031921
C8    C     C_3   0.547661 0.945964 0.753635 -0.008951
C9    C     C_3   0.549802 0.089131 0.744723 0.039141
C10   C     C_R   0.573026 0.512768 0.073140 0.234776
C11   C     C_R   0.428763 0.476778 0.073546 -0.025590
C12   C     C_3   0.954245 0.485200 0.666145 0.010956
C13   C     C_R   0.428719 0.477238 0.925570 0.012092
C14   C     C_R   0.572555 0.512072 0.926042 0.211874
C15   C     C_3   0.633051 0.617806 0.919522 -0.111190
C16   C     C_R   0.497887 0.737385 0.501523 0.524048
C17   C     C_3   0.637193 0.618097 0.078378 -0.024518
C18   C     C_R   0.659972 0.499560 0.500287 0.553438
C19   C     C_3   0.053045 0.475055 0.655683 -0.101460
C20   C     C_3   0.048792 0.373448 0.403749 0.054994
C21   C     C_3   0.947837 0.368950 0.418481 0.018789
C22   C     C_1   0.750112 0.497331 0.503021 0.000404
C23   C     C_3   0.919336 0.492548 0.507138 0.001808
C24   C     C_3   0.085732 0.487580 0.499099 -0.011169
C25   C     C_2   0.908465 0.382609 0.746892 0.263550
C26   C     C_3   0.935001 0.597083 0.764771 -0.367932
C27   C     C_3   0.924551 0.633749 0.286662 -0.329873
C28   C     C_3   0.441982 0.112305 0.237266 -0.351808
C29   C     C_3   0.497070 0.893420 0.876397 -0.377539
C30   C     C_2   0.631461 0.888384 0.733533 0.190599
C31   C     C_2   0.507905 0.156640 0.864724 0.281916
C32   C     C_2   0.633580 0.148520 0.705631 0.268383
C33   C     C_3   0.090883 0.370994 0.740234 -0.380553
C34   C     C_3   0.957462 0.619060 0.437897 0.050361
C35   C     C_2   0.710897 0.588410 0.841150 0.251677
C36   C     C_2   0.720868 0.584547 0.132216 0.286331
C37   C     C_3   0.608810 0.739201 0.145055 -0.418375
C38   C     C_3   0.078971 0.380496 0.249031 -0.365210
C39   C     C_2   0.088967 0.253161 0.446281 0.217309
C40   C     C_3   0.915423 0.247499 0.489854 -0.339510
C41   C     C_3   0.902187 0.350207 0.274058 -0.342087
C42   C     C_3   0.099237 0.727652 0.539496 -0.310862
C43   C     C_2   0.101815 0.651078 0.305930 0.205094
C44   C     C_2   0.919784 0.732848 0.509366 0.207357
C45   C     C_3   0.058985 0.620278 0.444945 0.051601
C46   C     C_1   0.825671 0.495121 0.507250 -0.099421
C47   C     C_1   0.177834 0.487261 0.500088 -0.116062
C48   C     C_1   0.252505 0.491152 0.500262 -0.044955
C49   C     C_R   0.494903 0.068268 0.619283 0.009177
Cu1   Cu    Cu3+1 0.500000 0.499980 0.640670 0.998654
Cu2   Cu    Cu3+1 0.500000 0.500020 0.359330 0.952402
H1    H     H_    0.081652 0.555028 0.713589 0.141620
H2    H     H_    0.922157 0.731299 0.255225 0.203896
H3    H     H_    0.962508 0.592808 0.204052 0.136020
H4    H     H_    0.860690 0.595690 0.278378 0.127776
H5    H     H_    0.390227 0.176387 0.253098 0.162511
H6    H     H_    0.497240 0.161710 0.193722 0.159962
H7    H     H_    0.421022 0.041058 0.158773 0.122651
H8    H     H_    0.485682 0.792863 0.862896 0.143667
H9    H     H_    0.530636 0.914659 0.975187 0.126516
H10   H     H_    0.434603 0.934054 0.884055 0.156298
H11   H     H_    0.644076 0.831322 0.642116 0.096122
H12   H     H_    0.452668 0.872863 0.285968 0.136855
H13   H     H_    0.542471 0.175801 0.960036 0.127153
H14   H     H_    0.664939 0.118673 0.610981 0.089386
H15   H     H_    0.083167 0.390722 0.853454 0.177733
H16   H     H_    0.061707 0.279455 0.715900 0.171208
H17   H     H_    0.159167 0.366411 0.724610 0.120834
H18   H     H_    0.737220 0.656739 0.772368 0.092655
H19   H     H_    0.770670 0.654242 0.131509 0.083750
H20   H     H_    0.541026 0.750102 0.129403 0.138116
H21   H     H_    0.643396 0.817874 0.097864 0.150229
H22   H     H_    0.623737 0.743292 0.257624 0.160963
H23   H     H_    0.370602 0.458738 0.127148 0.128999
H24   H     H_    0.060950 0.295363 0.188229 0.190028
H25   H     H_    0.053164 0.455040 0.190337 0.107743
H26   H     H_    0.148074 0.389035 0.242803 0.114533
H27   H     H_    0.141659 0.254121 0.516154 0.124449
H28   H     H_    0.919810 0.164434 0.420767 0.204868
H29   H     H_    0.951190 0.223860 0.582451 0.159602
H30   H     H_    0.848003 0.250558 0.514923 0.111713
H31   H     H_    0.916785 0.415293 0.192774 0.159976
H32   H     H_    0.917928 0.260907 0.223335 0.165932
H33   H     H_    0.833582 0.346403 0.287710 0.196469
H34   H     H_    0.370512 0.459608 0.871287 0.145306
H35   H     H_    0.073838 0.738740 0.644216 0.114081
H36   H     H_    0.167264 0.717138 0.552747 0.108099
H37   H     H_    0.094121 0.819107 0.492212 0.239483
H38   H     H_    0.154672 0.600565 0.268496 0.113203
H39   H     H_    0.862731 0.724357 0.569124 0.109274
H40   H     H_    0.603225 0.697863 0.877357 0.108708
H41   H     H_    0.846807 0.349858 0.715385 0.188992
H42   H     H_    0.967640 0.683844 0.743072 0.116656
H43   H     H_    0.868293 0.614750 0.765186 0.140700
H44   H     H_    0.953398 0.579777 0.873931 0.175257
N1    N     N_R   0.500530 0.500930 0.147930 -0.259808
N2    N     N_R   0.500530 0.500890 0.852020 -0.259672
O1    O     O_R   0.500000 0.319640 0.618810 -0.446882
O2    O     O_2   0.686070 0.905667 0.820834 -0.520501
O3    O     O_2   0.435908 0.188703 0.856849 -0.524335
O4    O     O_2   0.666762 0.229681 0.778728 -0.447716
O5    O     O_2   0.743048 0.488952 0.851213 -0.453717
O6    O     O_2   0.734379 0.480092 0.166979 -0.488830
O7    O     O_2   0.068820 0.154065 0.390960 -0.491958
O8    O     O_2   0.084143 0.742246 0.242043 -0.489346
O9    O     O_2   0.946010 0.837196 0.486774 -0.486330
O10   O     O_R   0.500010 0.319680 0.381230 -0.509429
O11   O     O_R   0.379430 0.499990 0.618840 -0.505839
O12   O     O_R   0.379440 0.500030 0.381260 -0.514263
O13   O     O_R   0.499990 0.680320 0.618770 -0.520413
O14   O     O_R   0.500000 0.680360 0.381190 -0.522088
O15   O     O_R   0.620560 0.499970 0.618740 -0.480265
O16   O     O_R   0.620570 0.500010 0.381160 -0.463876
O17   O     O_2   0.933681 0.346970 0.858087 -0.511938

loop_
_geom_bond_atom_site_label_1
_geom_bond_atom_site_label_2
_ccdc_geom_bond_type
C11   N1    A    
C26   H43   S    
C4    O12   A    
C32   O4    D    
C35   O5    D    
C28   H5    S    
C27   H3    S    
C16   O13   A    
C39   O7    D    
C37   H20   S    
C38   H25   S    
C28   H6    S    
C4    O11   A    
C12   C23   S    
Cu2   O16   S    
C36   O6    D    
C8    C29   S    
C3    C28   S    
C18   O15   A    
C5    C6    A    
C27   H4    S    
C10   C17   S    
C41   H32   S    
Cu1   O13   S    
C5    H12   S    
C1    C2    S    
C43   O8    D    
C9    C32   S    
C19   H1    S    
C29   H8    S    
C8    C9    S    
C25   H41   S    
C40   H29   S    
C42   H35   S    
C17   C36   S    
Cu2   N1    S    
C26   H42   S    
Cu2   O12   S    
C23   C46   S    
Cu1   O11   S    
C31   H13   S    
C18   O16   A    
C15   C35   S    
C36   H19   S    
C33   H15   S    
C38   H24   S    
C27   C34   S    
C29   H10   S    
Cu1   O1    S    
C39   H27   S    
C20   C24   S    
C7    C8    S    
C34   C44   S    
C7    C49   A    
C19   C33   S    
C20   C39   S    
C41   H33   S    
C15   H40   S    
C30   O2    D    
C12   C26   S    
C42   C45   S    
C2    C49   A    
C20   C38   S    
C47   C48   T    
C29   H9    S    
C10   N1    A    
C23   C34   S    
Cu1   O15   S    
Cu1   Cu2   S    
C40   H28   S    
C9    C49   S    
C34   C45   S    
C17   C37   S    
C31   O3    D    
C43   C45   S    
C1    O10   A    
C21   C41   S    
C22   C46   T    
C28   H7    S    
C30   H11   S    
C10   C14   A    
C42   H37   S    
C24   C45   S    
C44   H39   S    
C33   H16   S    
C14   N2    A    
C4    C48   S    
C26   H44   S    
C15   C17   S    
C37   H22   S    
Cu1   N2    S    
Cu2   O14   S    
C18   C22   S    
C24   C47   S    
C40   H30   S    
C33   H17   S    
C3    C5    A    
C11   H23   S    
C1    O1    A    
C27   H2    S    
C6    C7    A    
C38   H26   S    
C44   O9    D    
C12   C25   S    
C8    C30   S    
C21   C23   S    
C2    C3    A    
C25   O17   D    
C11   C13   A    
C21   C40   S    
C41   H31   S    
C12   C19   S    
C19   C24   S    
C43   H38   S    
C13   N2    A    
C9    C31   S    
C6    C16   S    
C20   C21   S    
C35   H18   S    
Cu2   O10   S    
C37   H21   S    
C13   H34   S    
C14   C15   S    
C42   H36   S    
C16   O14   A    
C32   H14   S    
