data_mof_unit_64709.cif
_audit_creation_date              2012-12-10T17:29:00-0500
_audit_creation_method            fapswitch 2.2
_symmetry_space_group_name_H-M    P1
_symmetry_Int_Tables_number       1
_space_group_crystal_system       triclinic
_cell_length_a                    19.934667
_cell_length_b                    19.589109
_cell_length_c                    19.69679
_cell_angle_alpha                 109.407573
_cell_angle_beta                  109.510832
_cell_angle_gamma                 109.843069
_cell_volume                      5895.4071163

loop_
_atom_site_label
_atom_site_type_symbol
_atom_type_description
_atom_site_fract_x
_atom_site_fract_y
_atom_site_fract_z
_atom_type_partial_charge
C1    C     C_R   0.617735 0.499036 0.620493 0.950374
C2    C     C_R   0.375729 0.494872 0.379906 0.863163
C3    C     C_3   0.325083 0.226346 0.484182 -0.401664
C4    C     C_3   0.675217 0.766967 0.506233 -0.409767
C5    C     C_3   0.317017 0.308934 0.505325 -0.399867
C6    C     C_3   0.686994 0.687538 0.495547 -0.379549
C7    C     C_3   0.190065 0.180515 0.493555 -0.383634
C8    C     C_3   0.812127 0.811525 0.500888 -0.391555
C9    C     C_3   0.154421 0.212521 0.433551 0.547855
C10   C     C_3   0.851500 0.791299 0.570716 0.529277
C11   C     C_3   0.245762 0.149122 0.465150 0.527852
C12   C     C_3   0.751112 0.841378 0.518753 0.535397
C13   C     C_3   0.770852 0.596085 0.763913 -0.415395
C14   C     C_3   0.291537 0.439306 0.215500 -0.373231
C15   C     C_3   0.845589 0.582612 0.810001 0.516483
C16   C     C_3   0.220040 0.443129 0.148412 0.513261
C17   C     C_3   0.658987 0.472805 0.750018 0.517276
C18   C     C_3   0.322731 0.584576 0.329130 0.528825
C19   C     C_3   0.715704 0.440075 0.646505 0.073624
C20   C     C_3   0.211358 0.446650 0.300297 0.074113
C21   C     C_3   0.688297 0.502094 0.692868 -0.352374
C22   C     C_3   0.302041 0.490360 0.308157 -0.345610
C23   C     C_R   0.384046 0.380044 0.503049 0.902084
C24   C     C_R   0.620762 0.619754 0.501263 0.822310
C25   C     C_3   0.808454 0.493478 0.807422 -0.351324
C26   C     C_3   0.184388 0.496641 0.188043 -0.374683
C27   C     C_3   0.733456 0.485204 0.827725 -0.019076
C28   C     C_3   0.261547 0.589294 0.255756 0.010507
C29   C     C_3   0.766897 0.418797 0.710485 0.141106
C30   C     C_3   0.143159 0.453704 0.233461 0.116732
C31   C     C_3   0.997451 0.310037 0.808254 -0.420096
C32   C     C_3   0.999345 0.691982 0.189517 -0.379272
C33   C     C_R   0.001401 0.120817 0.618916 0.900678
C34   C     C_R   0.005436 0.887314 0.381622 0.863073
C35   C     C_R   0.118832 0.113432 0.494515 0.886051
C36   C     C_R   0.881055 0.880772 0.500286 0.921668
C37   C     C_R   0.999107 0.620439 0.119005 0.920691
C38   C     C_R   0.000488 0.379980 0.881275 0.935662
C39   C     C_R   0.880286 0.494474 0.875569 0.963179
C40   C     C_R   0.118355 0.499506 0.119220 0.875478
C41   C     C_3   0.908879 0.180963 0.652657 0.084742
C42   C     C_3   0.096730 0.827204 0.343904 0.000022
C43   C     C_3   0.025343 0.183439 0.769787 0.582270
C44   C     C_3   0.981020 0.826942 0.229838 0.590067
C45   C     C_3   0.050227 0.353900 0.771074 0.051637
C46   C     C_3   0.920467 0.655843 0.204668 0.032025
C47   C     C_3   0.036147 0.260899 0.842395 0.571881
C48   C     C_3   0.996090 0.765425 0.167367 0.578471
C49   C     C_3   0.904678 0.236209 0.731288 -0.000267
C50   C     C_3   0.086338 0.743147 0.278199 0.078692
C51   C     C_3   0.999897 0.190675 0.686044 -0.421324
C52   C     C_3   0.006530 0.819979 0.313251 -0.428871
C53   C     C_3   0.063414 0.284979 0.712315 0.013721
C54   C     C_3   0.938696 0.729400 0.288502 0.049168
C55   C     C_3   0.316458 0.340269 0.591990 -0.377920
C56   C     C_3   0.687444 0.647631 0.409544 -0.418897
C57   C     C_3   0.253405 0.258672 0.586853 0.515654
C58   C     C_3   0.755175 0.724751 0.412202 0.515452
C59   C     C_3   0.228631 0.276198 0.432156 0.519069
C60   C     C_3   0.778047 0.728108 0.573517 0.505325
Cu1   Cu    Cu3+1 0.499950 0.562450 0.562440 1.253073
Cu2   Cu    Cu3+1 0.500050 0.437550 0.437560 1.186110
Cu3   Cu    Cu3+1 0.062480 0.999960 0.562430 1.279380
Cu4   Cu    Cu3+1 0.937520 0.000040 0.437570 1.292579
Cu5   Cu    Cu3+1 0.062470 0.562430 0.999950 1.283852
Cu6   Cu    Cu3+1 0.937530 0.437570 0.000050 1.212449
H1    H     H_    0.327551 0.212361 0.426024 0.245885
H2    H     H_    0.672688 0.786542 0.564387 0.257762
O1    O     O_R   0.591120 0.552750 0.643890 -0.480184
O2    O     O_R   0.408880 0.447250 0.356110 -0.543461
O3    O     O_R   0.947240 0.538460 0.091150 -0.556755
O4    O     O_R   0.052760 0.461540 0.908850 -0.503945
O5    O     O_R   0.961590 0.552710 0.908800 -0.489119
O6    O     O_R   0.038410 0.447290 0.091200 -0.504697
O7    O     O_R   0.856080 0.447270 0.908890 -0.565791
O8    O     O_R   0.143920 0.552730 0.091110 -0.550574
O9    O     O_R   0.591210 0.447270 0.538420 -0.578090
O10   O     O_R   0.408790 0.552730 0.461580 -0.495711
O11   O     O_R   0.408810 0.461590 0.552740 -0.536397
O12   O     O_R   0.591190 0.538410 0.447260 -0.577308
O13   O     O_R   0.408900 0.356100 0.447280 -0.545018
O14   O     O_R   0.591100 0.643900 0.552720 -0.520144
O15   O     O_R   0.052750 0.091090 0.643890 -0.510251
O16   O     O_R   0.947250 0.908910 0.356110 -0.498219
O17   O     O_R   0.947230 0.091150 0.538450 -0.516027
O18   O     O_R   0.052770 0.908850 0.461550 -0.565496
O19   O     O_R   0.143910 0.091120 0.552710 -0.511804
O20   O     O_R   0.856090 0.908880 0.447290 -0.494585
O21   O     O_R   0.038380 0.091180 0.447270 -0.519094
O22   O     O_R   0.961620 0.908820 0.552730 -0.506441
O23   O     O_R   0.052740 0.643910 0.091070 -0.497700
O24   O     O_R   0.947260 0.356090 0.908930 -0.549455
Cl1   Cl    Cl    0.152361 0.446988 0.849450 -0.282976
Cl2   Cl    Cl    0.827699 0.627707 0.116765 -0.361960
C61   C     C_2   0.402851 0.228831 0.535633 1.080633
O25   O     O_2   0.440316 0.209106 0.502322 -0.455148
O26   O     O_R   0.421795 0.234833 0.613011 -0.628386
H3    H     H_    0.459958 0.212734 0.630130 0.404349
C62   C     C_2   0.597255 0.761016 0.451454 1.009017
O27   O     O_2   0.562947 0.789289 0.484210 -0.429086
O28   O     O_R   0.575067 0.742573 0.369345 -0.617875
H4    H     H_    0.533512 0.758761 0.345234 0.415868
Cl3   Cl    Cl    0.267104 0.084776 0.506762 -0.381434
Cl4   Cl    Cl    0.722162 0.892655 0.461598 -0.330528
Cl5   Cl    Cl    0.198817 0.079645 0.356891 -0.303418
Cl6   Cl    Cl    0.794869 0.922697 0.621790 -0.290231
Cl7   Cl    Cl    0.224183 0.233140 0.332839 -0.305279
Cl8   Cl    Cl    0.780157 0.785131 0.669562 -0.408489
Cl9   Cl    Cl    0.071579 0.129545 0.329506 -0.242783
Cl10  Cl    Cl    0.929262 0.884160 0.672418 -0.294002
C63   C     C_2   0.754685 0.656760 0.823473 0.917374
O29   O     O_2   0.801946 0.700559 0.898430 -0.424671
O30   O     O_R   0.691486 0.672688 0.790230 -0.631664
H5    H     H_    0.689411 0.715815 0.834286 0.389666
C64   C     C_2   0.373192 0.472724 0.213416 0.997720
O31   O     O_2   0.396966 0.530701 0.200772 -0.378440
O32   O     O_R   0.418851 0.431322 0.218492 -0.694073
H6    H     H_    0.460645 0.447537 0.200054 0.397435
C65   C     C_2   0.795679 0.649827 0.729582 1.101353
O33   O     O_2   0.740343 0.648752 0.678287 -0.526731
O34   O     O_R   0.877980 0.714309 0.769846 -0.602053
H7    H     H_    0.888492 0.752637 0.746206 0.413959
C66   C     C_2   0.271859 0.346030 0.184714 1.086270
O35   O     O_2   0.285561 0.318762 0.232075 -0.453562
O36   O     O_R   0.254778 0.297321 0.103757 -0.625681
H8    H     H_    0.247970 0.240084 0.091453 0.387852
Cl11  Cl    Cl    0.918168 0.592660 0.772677 -0.265369
Cl12  Cl    Cl    0.136925 0.341096 0.072478 -0.330334
Cl13  Cl    Cl    0.924242 0.672770 0.909562 -0.320374
Cl14  Cl    Cl    0.248264 0.476932 0.082694 -0.364461
Cl15  Cl    Cl    0.166650 0.303698 0.768247 -0.261611
Cl16  Cl    Cl    0.843799 0.730348 0.269347 -0.277862
Cl17  Cl    Cl    0.604148 0.519919 0.783171 -0.428486
Cl18  Cl    Cl    0.422327 0.641714 0.354674 -0.545779
C67   C     C_2   0.769645 0.557194 0.913962 1.039424
O37   O     O_2   0.732864 0.591380 0.933716 -0.365933
O38   O     O_R   0.838012 0.569633 0.977231 -0.708151
H9    H     H_    0.822261 0.525683 0.993910 0.369507
C68   C     C_2   0.302951 0.642166 0.220953 1.089751
O39   O     O_2   0.359561 0.640868 0.210720 -0.461717
O40   O     O_R   0.277619 0.695772 0.202606 -0.618657
H10   H     H_    0.309501 0.726517 0.181309 0.366276
C69   C     C_2   0.651311 0.357448 0.561492 1.025423
O41   O     O_2   0.578731 0.320026 0.540307 -0.513354
O42   O     O_R   0.677536 0.320984 0.509017 -0.607473
H11   H     H_    0.630634 0.266603 0.456236 0.369878
C70   C     C_2   0.208701 0.473170 0.381329 1.035349
O43   O     O_2   0.270454 0.520318 0.450002 -0.487516
O44   O     O_R   0.132037 0.435893 0.376718 -0.649319
H12   H     H_    0.136082 0.458113 0.433227 0.385871
Cl19  Cl    Cl    0.770460 0.492926 0.605279 -0.361332
Cl20  Cl    Cl    0.174840 0.338401 0.267802 -0.317017
Cl21  Cl    Cl    0.840221 0.408794 0.681237 -0.382163
Cl22  Cl    Cl    0.048254 0.348329 0.159726 -0.264584
C71   C     C_2   0.712911 0.327116 0.690373 0.988708
O45   O     O_2   0.678078 0.267202 0.620279 -0.471448
O46   O     O_R   0.706786 0.307596 0.750205 -0.668307
H13   H     H_    0.669880 0.245460 0.727165 0.384253
C72   C     C_2   0.102582 0.498660 0.270555 0.982859
O47   O     O_2   0.029933 0.475638 0.227917 -0.433819
O48   O     O_R   0.143741 0.560384 0.354245 -0.717249
H14   H     H_    0.103835 0.563128 0.374779 0.361484
Cl23  Cl    Cl    0.583104 0.365449 0.688481 -0.492183
Cl24  Cl    Cl    0.338722 0.649860 0.429998 -0.307511
Cl25  Cl    Cl    0.689815 0.408014 0.856125 -0.395116
Cl26  Cl    Cl    0.224380 0.651727 0.297160 -0.433033
Cl27  Cl    Cl    0.845563 0.170061 0.761060 -0.330922
Cl28  Cl    Cl    0.173703 0.767843 0.261426 -0.275177
Cl29  Cl    Cl    0.829445 0.074781 0.602109 -0.293121
Cl30  Cl    Cl    0.164923 0.914397 0.344157 -0.290135
C73   C     C_2   0.064283 0.299970 0.641494 0.997584
O49   O     O_2   0.116227 0.368335 0.658606 -0.376148
O50   O     O_R   0.008828 0.239346 0.558092 -0.730482
H15   H     H_    0.998676 0.265297 0.521810 0.396660
C74   C     C_2   0.962315 0.715179 0.364167 0.939854
O51   O     O_2   0.972098 0.764582 0.428877 -0.440015
O52   O     O_R   0.971899 0.647401 0.362806 -0.733652
H16   H     H_    0.986896 0.647814 0.417536 0.394251
C75   C     C_2   0.879871 0.196382 0.577895 0.954366
O53   O     O_2   0.885980 0.263361 0.588112 -0.576713
O54   O     O_R   0.839245 0.131234 0.495139 -0.599727
H17   H     H_    0.822078 0.149323 0.452724 0.368794
C76   C     C_2   0.149919 0.854002 0.437441 1.010331
O55   O     O_2   0.121571 0.819913 0.470879 -0.579577
O56   O     O_R   0.235115 0.912093 0.483575 -0.566553
H18   H     H_    0.262662 0.921970 0.542215 0.373618
C77   C     C_2   0.845996 0.265832 0.707692 0.960151
O57   O     O_2   0.783340 0.221909 0.639306 -0.421174
O58   O     O_R   0.848625 0.327068 0.770170 -0.765159
H19   H     H_    0.822826 0.301460 0.798243 0.372884
C78   C     C_2   0.097545 0.691797 0.318836 0.900163
O59   O     O_2   0.047256 0.618669 0.284611 -0.540196
O60   O     O_R   0.169772 0.727051 0.394203 -0.614973
H20   H     H_    0.162846 0.698435 0.427593 0.378461
C79   C     C_2   0.012963 0.400457 0.734062 0.938427
O61   O     O_2   0.995790 0.446543 0.774290 -0.473946
O62   O     O_R   0.010525 0.404659 0.663798 -0.673289
H21   H     H_    0.988980 0.441845 0.651832 0.414038
C80   C     C_2   0.880793 0.570241 0.201646 1.062036
O63   O     O_2   0.823755 0.553772 0.216147 -0.449279
O64   O     O_R   0.903166 0.509396 0.181633 -0.637801
H22   H     H_    0.869294 0.457855 0.182372 0.370206
Cl31  Cl    Cl    0.113461 0.168489 0.807720 -0.257175
Cl32  Cl    Cl    0.878999 0.815069 0.181254 -0.219614
Cl33  Cl    Cl    0.953411 0.085414 0.750105 -0.248134
Cl34  Cl    Cl    0.028851 0.930562 0.247058 -0.271948
Cl35  Cl    Cl    0.997836 0.228269 0.903839 -0.248743
Cl36  Cl    Cl    0.082230 0.819626 0.156915 -0.228833
Cl37  Cl    Cl    0.142035 0.330061 0.916478 -0.272464
Cl38  Cl    Cl    0.923885 0.734260 0.066998 -0.272612
C81   C     C_2   0.302225 0.416825 0.616925 1.031811
O65   O     O_2   0.233473 0.407724 0.596042 -0.425082
O66   O     O_R   0.369642 0.499445 0.667702 -0.681906
H23   H     H_    0.352486 0.543258 0.679905 0.371782
C82   C     C_2   0.698064 0.567565 0.393139 1.038269
O67   O     O_2   0.765266 0.572954 0.424078 -0.414489
O68   O     O_R   0.629322 0.486025 0.336599 -0.711708
H24   H     H_    0.644032 0.440413 0.330437 0.365969
C83   C     C_2   0.400497 0.378421 0.664295 1.070144
O69   O     O_2   0.458504 0.395242 0.653227 -0.536169
O70   O     O_R   0.413008 0.403555 0.745099 -0.603164
H25   H     H_    0.471533 0.425119 0.788013 0.415299
C84   C     C_2   0.606078 0.607268 0.329167 1.065428
O71   O     O_2   0.603814 0.580479 0.262214 -0.407380
O72   O     O_R   0.532143 0.590891 0.325835 -0.674264
H26   H     H_    0.529197 0.597522 0.376665 0.295320
Cl39  Cl    Cl    0.303064 0.228615 0.657981 -0.322742
Cl40  Cl    Cl    0.713339 0.748054 0.331024 -0.293965
Cl41  Cl    Cl    0.200068 0.283030 0.633492 -0.420118
Cl42  Cl    Cl    0.812169 0.686449 0.380930 -0.399354
Cl43  Cl    Cl    0.218416 0.362061 0.439697 -0.472946
Cl44  Cl    Cl    0.799362 0.648172 0.579344 -0.411730
Cl45  Cl    Cl    0.094768 0.255177 0.461458 -0.380644
Cl46  Cl    Cl    0.921788 0.755401 0.558010 -0.299633

loop_
_geom_bond_atom_site_label_1
_geom_bond_atom_site_label_2
_ccdc_geom_bond_type
C45   C79   S    
C12   Cl6   S    
C73   O49   D    
C1    C21   S    
O46   H13   S    
C79   O62   S    
C43   Cl33  S    
C61   O25   D    
C1    O9    A    
O64   H22   S    
Cu2   O9    S    
C63   O29   D    
C82   O67   D    
C45   Cl1   S    
O48   H14   S    
O56   H18   S    
C17   Cl17  S    
C67   O37   D    
C74   O52   S    
C37   O3    A    
C20   C30   S    
O54   H17   S    
C36   O20   A    
C7    C11   S    
C73   O50   S    
O28   H4    S    
Cu5   O8    S    
C34   O16   A    
C2    O10   A    
C84   O72   S    
Cu2   O12   S    
C19   C21   S    
C49   Cl27  S    
C11   Cl3   S    
Cu1   O14   S    
C82   O68   S    
C72   O47   D    
C8    C36   S    
C66   O36   S    
C71   O46   S    
O62   H21   S    
Cu1   O1    S    
C64   O31   D    
Cu6   O6    S    
C38   O24   A    
C26   C40   S    
Cu5   O5    S    
Cu2   O2    S    
C69   O42   S    
C34   O18   A    
C33   O17   A    
Cu4   O16   S    
C56   C82   S    
C24   O14   A    
C34   C52   S    
C17   Cl23  S    
C70   O43   D    
C8    C58   S    
C18   Cl24  S    
C24   O12   A    
C62   O27   D    
C56   C58   S    
C64   O32   S    
C55   C81   S    
C5    C23   S    
C2    C22   S    
C19   Cl19  S    
C72   O48   S    
C10   Cl10  S    
C53   Cl15  S    
C39   O7    A    
C4    C12   S    
C18   C22   S    
C16   Cl14  S    
C60   Cl8   S    
C28   Cl26  S    
C29   C71   S    
C44   Cl32  S    
C44   C52   S    
C39   O5    A    
C59   Cl43  S    
C80   O63   D    
C15   Cl11  S    
C25   C29   S    
C32   C48   S    
C48   Cl36  S    
O58   H19   S    
C28   C68   S    
C35   O19   A    
Cu4   O21   S    
C31   C49   S    
C41   C49   S    
C13   C65   S    
C41   C75   S    
O26   H3    S    
C7    C9    S    
C65   O34   S    
C9    Cl9   S    
C30   C72   S    
C38   O4    A    
C10   Cl46  S    
C5    C59   S    
O32   H6    S    
C9    Cl45  S    
C78   O59   D    
C17   C27   S    
C6    C60   S    
C66   O35   D    
C18   C28   S    
C84   O71   D    
C4    C6    S    
C65   O33   D    
C6    C56   S    
C83   O69   D    
C4    H2    S    
C37   O23   A    
C55   C83   S    
O68   H24   S    
O66   H23   S    
C41   Cl29  S    
O40   H10   S    
C45   C53   S    
C59   Cl7   S    
C40   O8    A    
Cu3   O15   S    
C9    C59   S    
C54   C74   S    
C10   C60   S    
C76   O55   D    
C78   O60   S    
Cu6   O3    S    
C11   Cl5   S    
O70   H25   S    
C58   Cl42  S    
C83   O70   S    
C57   Cl41  S    
C81   O65   D    
C15   Cl13  S    
Cu1   O10   S    
C8    C12   S    
C6    C24   S    
C46   C54   S    
C44   Cl34  S    
O72   H26   S    
C20   C70   S    
C13   C21   S    
C49   C77   S    
C63   O30   S    
C55   C57   S    
C32   C37   S    
C42   Cl30  S    
C50   C78   S    
C33   O15   A    
C32   C50   S    
O34   H7    S    
C75   O53   D    
C27   Cl25  S    
C35   O21   A    
C81   O66   S    
Cu2   O13   S    
C42   C50   S    
O60   H20   S    
C13   C15   S    
Cu3   O18   S    
C50   Cl28  S    
O36   H8    S    
C67   O38   S    
C14   C16   S    
C33   C51   S    
Cu5   Cu6   S    
C17   C21   S    
C62   O28   S    
C19   C29   S    
C44   C48   S    
Cu4   O17   S    
C58   Cl40  S    
C29   Cl21  S    
O30   H5    S    
C36   O22   A    
Cu5   O23   S    
C19   C69   S    
C14   C66   S    
C46   Cl2   S    
Cu3   O19   S    
C60   Cl44  S    
C32   C46   S    
C5    C55   S    
C47   Cl37  S    
C3    H1    S    
O42   H11   S    
C20   C22   S    
Cu3   Cu4   S    
C3    C5    S    
C16   C26   S    
C56   C84   S    
Cu6   O24   S    
C68   O39   D    
C61   O26   S    
C12   Cl4   S    
C31   C47   S    
C41   C51   S    
C42   C76   S    
C25   C27   S    
Cu5   O4    S    
C70   O44   S    
O38   H9    S    
C26   C28   S    
C31   C38   S    
C47   Cl35  S    
C54   Cl16  S    
C27   C67   S    
C14   C22   S    
C76   O56   S    
C69   O41   D    
C48   Cl38  S    
C77   O57   D    
C13   C63   S    
C74   O51   D    
O44   H12   S    
C25   C39   S    
C43   Cl31  S    
C68   O40   S    
C43   C51   S    
C46   C80   S    
Cu1   O11   S    
Cu6   O7    S    
Cu3   O22   S    
C7    C35   S    
C40   O6    A    
C52   C54   S    
C18   Cl18  S    
C23   O13   A    
C16   Cl12  S    
Cu1   Cu2   S    
C1    O1    A    
C77   O58   S    
C3    C11   S    
C53   C73   S    
O50   H15   S    
C79   O61   D    
C57   Cl39  S    
C20   Cl20  S    
C30   Cl22  S    
C15   C25   S    
C8    C10   S    
O52   H16   S    
C31   C45   S    
C4    C62   S    
C71   O45   D    
C80   O64   S    
C3    C61   S    
C51   C53   S    
Cu4   O20   S    
C2    O2    A    
C43   C47   S    
C7    C57   S    
C14   C64   S    
C42   C52   S    
C75   O54   S    
C26   C30   S    
C23   O11   A    
