data_mof_unit_31606.cif
_audit_creation_date              2012-12-10T17:28:37-0500
_audit_creation_method            fapswitch 2.2
_symmetry_space_group_name_H-M    P1
_symmetry_Int_Tables_number       1
_space_group_crystal_system       triclinic
_cell_length_a                    10.89087
_cell_length_b                    12.054252
_cell_length_c                    13.203012
_cell_angle_alpha                 88.361402
_cell_angle_beta                  94.117096
_cell_angle_gamma                 84.75369
_cell_volume                      1720.51409769

loop_
_atom_site_label
_atom_site_type_symbol
_atom_type_description
_atom_site_fract_x
_atom_site_fract_y
_atom_site_fract_z
_atom_type_partial_charge
C1    C     C_R   0.491818 0.518044 0.699524 0.932728
C2    C     C_R   0.465212 0.562725 0.122189 -0.109572
C3    C     C_R   0.506059 0.445797 0.980730 0.013203
C4    C     C_R   0.475034 0.552990 0.017731 0.016038
C5    C     C_R   0.410626 0.967224 0.385566 -0.310006
C6    C     C_R   0.595510 0.032081 0.612030 -0.261715
C7    C     C_R   0.405822 0.851579 0.401533 0.145992
C8    C     C_R   0.593381 0.149042 0.599403 0.146494
C9    C     C_R   0.541342 0.851786 0.549588 -0.002994
C10   C     C_R   0.470922 0.146466 0.445072 -0.033542
C11   C     C_R   0.536588 0.970310 0.540058 0.127638
C12   C     C_R   0.504181 0.481889 0.299949 0.964928
C13   C     C_R   0.473889 0.028191 0.455581 0.113247
C14   C     C_R   0.737584 0.496887 0.486392 0.923306
C15   C     C_R   0.257725 0.500827 0.498035 0.940286
C16   C     C_R   0.899410 0.278719 0.490077 -0.090358
C17   C     C_R   0.073979 0.706787 0.467743 -0.095585
C18   C     C_R   0.978438 0.189836 0.535663 -0.027024
C19   C     C_R   0.000757 0.797635 0.418810 0.020758
C20   C     C_R   0.104579 0.202368 0.544852 0.028207
C21   C     C_R   0.888722 0.779286 0.364674 0.031300
C22   C     C_R   0.144213 0.289273 0.488015 -0.005005
C23   C     C_R   0.511802 0.473724 0.190155 -0.165408
C24   C     C_R   0.848594 0.671562 0.366498 -0.012764
C25   C     C_R   0.071070 0.392541 0.484113 0.049802
C26   C     C_R   0.917319 0.584767 0.427182 0.051115
C27   C     C_R   0.942855 0.386732 0.477894 0.028536
C28   C     C_R   0.039850 0.596923 0.461060 0.011595
C29   C     C_R   0.121430 0.498454 0.484531 -0.140411
C30   C     C_R   0.865762 0.487399 0.458456 -0.135647
C31   C     C_2   0.930960 0.084005 0.566273 0.414643
C32   C     C_2   0.047348 0.909366 0.419118 0.400592
C33   C     C_2   0.197970 0.255052 0.392466 0.451397
C34   C     C_R   0.476459 0.525528 0.808361 -0.233962
C35   C     C_2   0.747858 0.645080 0.292352 0.461495
C36   C     C_2   0.393779 0.660492 0.157452 0.555405
C37   C     C_2   0.591236 0.337483 0.843193 0.549457
C38   C     C_2   0.681849 0.197680 0.671322 0.411225
C39   C     C_2   0.313334 0.804495 0.332313 0.430981
C40   C     C_R   0.447878 0.645918 0.948633 0.161182
C41   C     C_R   0.532963 0.352936 0.049599 0.148016
C42   C     C_R   0.427845 0.627297 0.845833 0.142810
C43   C     C_R   0.557632 0.371655 0.151637 0.183165
C44   C     C_R   0.519004 0.435922 0.876826 -0.101366
H1    H     H_    0.358106 0.011139 0.321262 0.145225
H2    H     H_    0.668756 0.704773 0.272270 0.077402
H3    H     H_    0.442433 0.721102 0.199080 0.045168
H4    H     H_    0.543524 0.277250 0.800166 0.059963
H5    H     H_    0.722853 0.148111 0.737295 0.085890
H6    H     H_    0.265114 0.856366 0.270561 0.082688
H7    H     H_    0.648701 0.988283 0.676103 0.145442
H8    H     H_    0.807497 0.260159 0.465599 0.228670
H9    H     H_    0.155617 0.724701 0.512640 0.226366
H10   H     H_    0.428442 0.189046 0.376723 0.159775
H11   H     H_    0.595315 0.807584 0.612753 0.147972
H12   H     H_    0.982252 0.028218 0.623371 0.134927
H13   H     H_    0.999649 0.979002 0.374474 0.129575
H14   H     H_    0.218316 0.167158 0.378940 0.058708
I1    I     I_    0.779311 0.912466 0.280060 -0.286847
I2    I     I_    0.237588 0.093715 0.633140 -0.284773
I3    I     I_    0.679768 0.248553 0.239007 -0.186882
I4    I     I_    0.311696 0.751257 0.753700 -0.219904
I5    I     I_    0.474842 0.815236 0.986704 -0.227906
I6    I     I_    0.501662 0.184398 0.012318 -0.218056
N1    N     N_R   0.523130 0.207800 0.519340 -0.115487
N2    N     N_R   0.476870 0.792200 0.480660 -0.118136
O1    O     O_R   0.506170 0.421700 0.658830 -0.613548
O2    O     O_2   0.141644 0.925521 0.469750 -0.601835
O3    O     O_2   0.215263 0.323545 0.326185 -0.538883
O4    O     O_2   0.755258 0.556333 0.249938 -0.573874
O5    O     O_2   0.282963 0.677060 0.133734 -0.505328
O6    O     O_2   0.701361 0.320268 0.869472 -0.512603
O7    O     O_2   0.715441 0.289732 0.658860 -0.514532
O8    O     O_2   0.286029 0.709965 0.341671 -0.517543
O9    O     O_R   0.493830 0.578300 0.341170 -0.639178
O10   O     O_R   0.491330 0.609310 0.646410 -0.603920
O11   O     O_R   0.508670 0.390690 0.353590 -0.607369
O12   O     O_R   0.690650 0.406190 0.506220 -0.579404
O13   O     O_R   0.309350 0.593810 0.493780 -0.577296
O14   O     O_R   0.675800 0.593810 0.493800 -0.649232
O15   O     O_R   0.324200 0.406190 0.506200 -0.618165
O16   O     O_2   0.835804 0.055476 0.524768 -0.606378
Zn1   Zn    Zn3+2 0.509910 0.374730 0.508290 1.038159
Zn2   Zn    Zn3+2 0.490090 0.625270 0.491710 1.020964

loop_
_geom_bond_atom_site_label_1
_geom_bond_atom_site_label_2
_ccdc_geom_bond_type
O1    Zn1   S    
C33   H14   S    
C34   C42   A    
O14   Zn2   S    
O10   Zn2   S    
C15   O15   A    
C38   H5    S    
C12   C23   S    
C40   I5    S    
C28   C29   A    
C19   C21   A    
C24   C26   A    
C21   I1    S    
O13   Zn2   S    
O9    Zn2   S    
N1    Zn1   S    
O11   Zn1   S    
C23   C43   A    
C36   H3    S    
C39   O8    D    
C9    N2    A    
C1    O1    A    
O12   Zn1   S    
C15   O13   A    
C4    C40   A    
C35   O4    D    
C22   C25   A    
C9    H11   S    
C14   O14   A    
C6    H7    S    
C20   I2    S    
C42   I4    S    
C5    C13   A    
C36   O5    D    
C33   O3    D    
C32   O2    D    
C16   C27   A    
C40   C42   A    
C8    N1    A    
C27   C30   A    
C41   C43   A    
C8    C38   S    
C32   H13   S    
C14   C30   S    
C19   C32   S    
O15   Zn1   S    
C1    C34   S    
C15   C29   S    
C31   O16   D    
C25   C29   A    
C3    C44   A    
C24   C35   S    
C34   C44   A    
C6    C11   A    
C5    C7    A    
C6    C8    A    
C5    H1    S    
C2    C4    A    
C1    O10   A    
C12   O11   A    
C37   H4    S    
C9    C11   A    
C20   C22   A    
C26   C30   A    
C31   H12   S    
C37   O6    D    
C21   C24   A    
C3    C4    A    
C17   H9    S    
C43   I3    S    
C10   N1    A    
C2    C36   S    
C22   C33   S    
C3    C41   A    
C17   C28   A    
C16   H8    S    
C10   C13   A    
C25   C27   A    
C26   C28   A    
C37   C44   S    
C7    N2    A    
C11   C13   A    
C17   C19   A    
C18   C20   A    
C14   O12   A    
C10   H10   S    
N2    Zn2   S    
C39   H6    S    
C16   C18   A    
C12   O9    A    
C2    C23   A    
C7    C39   S    
C18   C31   S    
C41   I6    S    
C35   H2    S    
C38   O7    D    
