data_mof_unit_42675.cif
_audit_creation_date              2012-12-10T17:19:26-0500
_audit_creation_method            fapswitch 2.2
_symmetry_space_group_name_H-M    P1
_symmetry_Int_Tables_number       1
_space_group_crystal_system       triclinic
_cell_length_a                    15.084414
_cell_length_b                    10.849246
_cell_length_c                    9.602823
_cell_angle_alpha                 90.898025
_cell_angle_beta                  89.828707
_cell_angle_gamma                 93.104535
_cell_volume                      1569.04259982

loop_
_atom_site_label
_atom_site_type_symbol
_atom_type_description
_atom_site_fract_x
_atom_site_fract_y
_atom_site_fract_z
_atom_type_partial_charge
C1    C     C_R   0.491598 0.262509 0.499216 0.854904
C2    C     C_R   0.908543 0.560549 0.609501 0.032107
C3    C     C_R   0.948189 0.400093 0.271178 -0.235475
C4    C     C_R   0.040220 0.396402 0.272333 -0.167196
C5    C     C_R   0.089799 0.448329 0.384537 0.034155
C6    C     C_R   0.045980 0.506729 0.495551 -0.077166
C7    C     C_R   0.094847 0.562194 0.607318 -0.009975
C8    C     C_R   0.050238 0.619857 0.717867 0.508927
C9    C     C_R   0.957307 0.615545 0.719866 -0.297315
C10   C     C_R   0.182279 0.440604 0.388864 0.447463
C11   C     C_R   0.231439 0.500536 0.497493 -0.202079
C12   C     C_R   0.328640 0.499696 0.499704 0.911029
C13   C     C_R   0.187306 0.559590 0.605865 -0.297317
C14   C     C_R   0.374207 0.128025 0.701654 0.503576
C15   C     C_R   0.356497 0.075950 0.831472 -0.320789
C16   C     C_R   0.365534 0.951912 0.849492 -0.319847
C17   C     C_R   0.391997 0.875651 0.737251 0.508227
C18   C     C_R   0.433198 0.933973 0.617534 -0.047892
C19   C     C_R   0.428519 0.064849 0.606385 -0.050426
C20   C     C_R   0.475235 0.128058 0.497591 -0.078329
C21   C     C_R   0.513244 0.062168 0.389667 -0.217444
C22   C     C_R   0.512914 0.935536 0.392898 -0.212089
C23   C     C_R   0.491141 0.736552 0.502114 0.816498
C24   C     C_R   0.477281 0.869813 0.506400 -0.058995
C25   C     C_R   0.616703 0.666996 0.145898 -0.218130
C26   C     C_R   0.672870 0.750188 0.075305 -0.325431
C27   C     C_R   0.674441 0.749990 0.929737 0.499328
C28   C     C_R   0.615963 0.667964 0.858358 -0.203093
C29   C     C_R   0.556770 0.583031 0.926503 0.121887
C30   C     C_R   0.556882 0.582822 0.075818 0.157525
C31   C     C_R   0.448946 0.417092 0.072124 0.252509
C32   C     C_R   0.449244 0.417678 0.924309 -0.150472
C33   C     C_R   0.671082 0.501433 0.499798 0.787421
C34   C     C_R   0.815928 0.556964 0.611170 -0.207638
C35   C     C_R   0.767681 0.504088 0.498763 -0.065456
C36   C     C_R   0.811806 0.454254 0.384319 -0.248022
C37   C     C_R   0.904111 0.454161 0.382873 0.132314
C38   C     C_R   0.952930 0.507751 0.495689 0.085602
Cu1   Cu    Cu3+1 0.499990 0.499990 0.640660 0.983822
Cu2   Cu    Cu3+1 0.500010 0.500010 0.359340 0.971390
H1    H     H_    0.781486 0.596767 0.698817 0.165385
H2    H     H_    0.326476 0.128249 0.914308 0.148466
H3    H     H_    0.341944 0.916089 0.947958 0.156536
H4    H     H_    0.545925 0.889226 0.308161 0.162765
H5    H     H_    0.623808 0.672309 0.255726 0.219778
H6    H     H_    0.715006 0.814316 0.136093 0.153763
H7    H     H_    0.621177 0.673242 0.748497 0.209258
H8    H     H_    0.774161 0.412995 0.297790 0.155830
H9    H     H_    0.407061 0.351247 0.867843 0.183204
H10   H     H_    0.911388 0.359063 0.183797 0.144807
H11   H     H_    0.072321 0.352494 0.185106 0.182937
H12   H     H_    0.225175 0.603467 0.689327 0.235055
H13   H     H_    0.923520 0.655682 0.807788 0.161340
H14   H     H_    0.547182 0.109212 0.304414 0.160649
N1    N     N_R   0.500860 0.501210 0.147910 -0.184029
N2    N     N_R   0.500890 0.501290 0.852040 -0.190325
O1    O     O_R   0.499990 0.319640 0.618810 -0.549139
O2    O     O_R   0.500000 0.319660 0.381240 -0.572932
O3    O     O_R   0.370250 0.499960 0.618800 -0.545758
O4    O     O_R   0.370260 0.499980 0.381230 -0.527759
O5    O     O_R   0.500000 0.680340 0.618760 -0.553056
O6    O     O_R   0.500010 0.680360 0.381190 -0.623544
O7    O     O_R   0.629740 0.500020 0.618770 -0.602611
O8    O     O_R   0.629750 0.500040 0.381200 -0.604912
O9    O     O_3   0.336247 0.236457 0.662876 -0.598535
C39   C     C_3   0.246390 0.237610 0.706467 -0.385184
H15   H     H_    0.242113 0.274761 0.814563 0.174495
H16   H     H_    0.210639 0.145207 0.696821 0.159373
H17   H     H_    0.210475 0.299126 0.639101 0.191921
O10   O     O_3   0.368452 0.749390 0.733566 -0.578717
C40   C     C_3   0.347936 0.698767 0.865558 -0.264478
H18   H     H_    0.282666 0.728049 0.903588 0.170084
H19   H     H_    0.401607 0.721414 0.942435 0.152203
H20   H     H_    0.340663 0.597238 0.855349 0.204712
N3    N     N_3   0.394852 0.325680 0.141991 -0.496763
H21   H     H_    0.419762 0.239772 0.118150 0.185218
H22   H     H_    0.331584 0.325676 0.098084 0.223151
O11   O     O_3   0.727588 0.831557 0.850529 -0.581828
C41   C     C_3   0.809127 0.866487 0.915542 -0.336043
H23   H     H_    0.840107 0.786968 0.964357 0.154713
H24   H     H_    0.800129 0.941911 0.993020 0.172042
H25   H     H_    0.855984 0.903042 0.835026 0.186020
O12   O     O_3   0.224067 0.372922 0.287412 -0.581006
C42   C     C_3   0.226629 0.249457 0.331502 -0.349229
H26   H     H_    0.283411 0.240190 0.402983 0.216690
H27   H     H_    0.237332 0.189297 0.239230 0.176514
H28   H     H_    0.163636 0.214010 0.381395 0.145735
O13   O     O_3   0.096925 0.673431 0.828928 -0.584836
C43   C     C_3   0.104458 0.802161 0.809470 -0.359747
H29   H     H_    0.142090 0.825457 0.712579 0.174837
H30   H     H_    0.142002 0.845589 0.898219 0.188245
H31   H     H_    0.038191 0.842560 0.807849 0.156598

loop_
_geom_bond_atom_site_label_1
_geom_bond_atom_site_label_2
_ccdc_geom_bond_type
C39   H16   S    
C28   H7    S    
Cu2   O4    S    
C19   C20   A    
C42   H28   S    
C27   O11   S    
C7    C8    A    
C26   C27   A    
C29   C30   A    
O12   C42   S    
C18   C24   A    
C28   C29   A    
C42   H27   S    
C18   C19   A    
C21   H14   S    
C39   H17   S    
C15   C16   A    
Cu1   O1    S    
C10   O12   S    
Cu2   O6    S    
C34   C35   A    
C12   O3    A    
C23   O6    A    
C22   H4    S    
C31   C32   A    
C8    C9    A    
C23   C24   S    
C6    C38   A    
O10   C40   S    
C43   H30   S    
C2    C34   A    
C39   H15   S    
C17   O10   S    
C21   C22   A    
C34   H1    S    
C5    C10   A    
C3    H10   S    
Cu1   O5    S    
Cu2   O2    S    
C4    H11   S    
C42   H26   S    
Cu1   Cu2   S    
C40   H19   S    
O11   C41   S    
C16   C17   A    
C25   C26   A    
C8    O13   S    
C35   C36   A    
N3    H21   S    
C37   C38   A    
C1    O1    A    
C41   H25   S    
C13   H12   S    
C2    C38   A    
C31   N3    S    
Cu1   N2    S    
C7    C13   A    
C33   O7    A    
Cu2   N1    S    
Cu1   O3    S    
C17   C18   A    
C20   C21   A    
C43   H31   S    
N3    H22   S    
C16   H3    S    
C22   C24   A    
C9    H13   S    
C3    C4    A    
C25   H5    S    
C41   H24   S    
C25   C30   A    
C36   C37   A    
C1    C20   S    
C14   C19   A    
C15   H2    S    
C4    C5    A    
C40   H20   S    
C11   C12   S    
C6    C7    A    
C29   N2    A    
Cu1   O7    S    
C30   N1    A    
Cu2   O8    S    
C40   H18   S    
C1    O2    A    
C11   C13   A    
C5    C6    A    
C33   O8    A    
C33   C35   S    
C14   O9    S    
C36   H8    S    
C32   H9    S    
C10   C11   A    
C26   H6    S    
C41   H23   S    
C12   O4    A    
C23   O5    A    
O13   C43   S    
C3    C37   A    
O9    C39   S    
C27   C28   A    
C14   C15   A    
C31   N1    A    
C43   H29   S    
C2    C9    A    
C32   N2    A    
