data_mof_unit_5847.cif
_audit_creation_date              2012-12-11T14:45:58-0500
_audit_creation_method            fapswitch 2.2
_symmetry_space_group_name_H-M    P1
_symmetry_Int_Tables_number       1
_space_group_crystal_system       triclinic
_cell_length_a                    10.903822
_cell_length_b                    10.973779
_cell_length_c                    18.867694
_cell_angle_alpha                 90.233088
_cell_angle_beta                  90.182788
_cell_angle_gamma                 119.417153
_cell_volume                      1966.50001446

loop_
_atom_site_label
_atom_site_type_symbol
_atom_type_description
_atom_site_fract_x
_atom_site_fract_y
_atom_site_fract_z
_atom_type_partial_charge
C1    C     C_R   0.862835 0.637885 0.602648 0.590850
C2    C     C_R   0.506187 0.714539 0.762887 -0.168901
C3    C     C_R   0.462383 0.694470 0.692276 -0.172525
C4    C     C_R   0.326359 0.667789 0.675509 0.026097
C5    C     C_R   0.795421 0.077290 0.813469 -0.006630
C6    C     C_R   0.054539 0.144059 0.821790 -0.085511
C7    C     C_R   0.191656 0.230768 0.799350 0.117908
C8    C     C_R   0.214058 0.321227 0.744017 -0.083509
C9    C     C_R   0.098478 0.307587 0.705879 -0.097476
C10   C     C_R   0.959677 0.202167 0.720020 0.033286
C11   C     C_R   0.935294 0.137395 0.785891 0.012439
C12   C     C_R   0.273269 0.633216 0.603140 0.552678
C13   C     C_R   0.705767 0.076188 0.695301 0.014527
C14   C     C_R   0.681302 0.058813 0.768246 0.028610
C15   C     C_R   0.589441 0.022217 0.647935 -0.087546
C16   C     C_R   0.457184 0.991161 0.671656 -0.105806
C17   C     C_R   0.435708 0.997920 0.743409 -0.100601
C18   C     C_R   0.543622 0.024940 0.791448 -0.045213
C19   C     C_R   0.844663 0.162533 0.672160 0.008335
C20   C     C_R   0.741125 0.528999 0.714142 -0.077312
C21   C     C_R   0.742260 0.537098 0.788037 0.229909
C22   C     C_R   0.806178 0.668640 0.820662 0.023437
C23   C     C_R   0.864308 0.230457 0.603506 0.552176
C24   C     C_R   0.869018 0.788581 0.778577 -0.136435
C25   C     C_R   0.875225 0.782921 0.705721 0.124830
C26   C     C_R   0.814761 0.651587 0.672825 0.013388
C27   C     C_R   0.208633 0.547000 0.273336 -0.064436
C28   C     C_R   0.227953 0.564218 0.200320 0.133338
C29   C     C_R   0.339568 0.690821 0.174734 0.038327
C30   C     C_R   0.422822 0.798752 0.222497 -0.122256
C31   C     C_R   0.403373 0.780447 0.295128 -0.092645
C32   C     C_R   0.298118 0.653288 0.320554 0.033311
C33   C     C_R   0.732449 0.171653 0.286212 -0.185604
C34   C     C_R   0.903957 0.614183 0.389928 0.570086
C35   C     C_R   0.716325 0.137925 0.216251 -0.182056
C36   C     C_R   0.799608 0.090011 0.183892 -0.025901
C37   C     C_R   0.901764 0.076994 0.223425 -0.081511
C38   C     C_R   0.922441 0.116133 0.294902 0.222886
C39   C     C_R   0.837124 0.164820 0.326312 0.024942
C40   C     C_R   0.987250 0.721076 0.271098 0.220733
C41   C     C_R   0.961936 0.726985 0.200105 -0.143416
C42   C     C_R   0.826978 0.645265 0.171099 -0.008678
C43   C     C_R   0.719430 0.540737 0.212698 0.105045
C44   C     C_R   0.748120 0.528465 0.283717 -0.167712
C45   C     C_R   0.267473 0.631011 0.395445 0.530012
C46   C     C_R   0.879511 0.621782 0.314191 0.002068
C47   C     C_R   0.768456 0.040989 0.888258 0.534105
C48   C     C_R   0.458613 0.723073 0.889773 0.526722
C49   C     C_R   0.796366 0.692236 0.896340 0.570251
C50   C     C_R   0.770625 0.047491 0.110123 0.559470
C51   C     C_R   0.392913 0.704245 0.102818 0.544410
C52   C     C_R   0.799124 0.692843 0.103675 0.562663
C53   C     C_R   0.861167 0.226957 0.396528 0.554791
C54   C     C_R   0.233384 0.654687 0.730367 0.193696
C55   C     C_R   0.278112 0.676302 0.800272 -0.070092
C56   C     C_R   0.414758 0.707597 0.816496 -0.015189
Cr1   Cr    Cr6+3 0.791660 0.390250 0.499930 1.028482
Cr2   Cr    Cr6+3 0.098520 0.708290 0.500540 1.082399
Cr3   Cr    Cr6+3 0.109770 0.401430 0.499480 1.064901
Cr4   Cr    Cr6+3 0.874790 0.925890 0.000070 0.996488
Cr5   Cr    Cr6+3 0.574120 0.948670 0.999300 1.005536
Cr6   Cr    Cr6+3 0.551420 0.625320 0.000920 0.995334
H1    H     H_    0.371570 0.960743 0.634324 0.122415
H2    H     H_    0.601783 0.011741 0.591705 0.128672
H3    H     H_    0.332591 0.973186 0.762392 0.114131
H4    H     H_    0.698513 0.426214 0.690069 0.185395
H5    H     H_    0.909676 0.888430 0.802619 0.130883
H6    H     H_    0.122805 0.450215 0.293386 0.146851
H7    H     H_    0.508486 0.894443 0.203311 0.130545
H8    H     H_    0.205277 0.664482 0.842159 0.171969
H9    H     H_    0.470432 0.864249 0.331168 0.138498
H10   H     H_    0.664672 0.208861 0.307684 0.163693
H11   H     H_    0.634479 0.146255 0.188049 0.149337
H12   H     H_    0.964985 0.037234 0.198996 0.172068
H13   H     H_    0.046998 0.805581 0.168795 0.176452
H14   H     H_    0.664680 0.449898 0.315733 0.150533
H15   H     H_    0.611108 0.737061 0.775904 0.099085
H16   H     H_    0.533735 0.699541 0.651106 0.116953
H17   H     H_    0.319862 0.397232 0.728509 0.142679
H18   H     H_    0.048571 0.075415 0.863529 0.153184
H19   H     H_    0.117627 0.384067 0.667938 0.208213
H20   H     H_    0.512636 0.018808 0.845523 0.178998
O1    O     O_R   0.766500 0.250040 0.579790 -0.513363
O2    O     O_R   0.218690 0.701900 0.425960 -0.478998
O3    O     O_R   0.249490 0.516440 0.419420 -0.506136
O4    O     O_R   0.982880 0.281910 0.424890 -0.454637
O5    O     O_3   0.999980 0.499990 0.499980 -0.280253
O6    O     O_R   0.895110 0.806860 0.920430 -0.545474
O7    O     O_R   0.872260 0.046970 0.925000 -0.514067
O8    O     O_R   0.691430 0.085060 0.918550 -0.478064
O9    O     O_R   0.451490 0.822460 0.925250 -0.531028
O10   O     O_R   0.413330 0.603360 0.920440 -0.527722
O11   O     O_R   0.676110 0.626250 0.926750 -0.507311
O12   O     O_R   0.798570 0.516780 0.574780 -0.502672
O13   O     O_R   0.895350 0.809870 0.080950 -0.539829
O14   O     O_R   0.872490 0.049760 0.073800 -0.486691
O15   O     O_R   0.691680 0.088070 0.079070 -0.525726
O16   O     O_R   0.451720 0.825250 0.074050 -0.513944
O17   O     O_R   0.413580 0.606370 0.080960 -0.509159
O18   O     O_R   0.676340 0.629040 0.075550 -0.461595
O19   O     O_3   0.666780 0.833290 0.000090 -0.306239
O20   O     O_R   0.984000 0.732950 0.581090 -0.489301
O21   O     O_R   0.218600 0.700890 0.574760 -0.482396
O22   O     O_R   0.249390 0.515350 0.579940 -0.541411
O23   O     O_R   0.982790 0.280900 0.573700 -0.512483
O24   O     O_R   0.766600 0.251130 0.419260 -0.545421
O25   O     O_R   0.798660 0.517790 0.425980 -0.524560
O26   O     O_R   0.984100 0.734040 0.420570 -0.419884
Cl1   Cl    Cl    0.055107 0.592025 0.715346 -0.642812
Cl2   Cl    Cl    0.687963 0.383757 0.837216 -0.611342
N1    N     N_2   0.943580 0.910219 0.666894 -0.519468
H21   H     H_    0.906883 0.905609 0.615963 0.259320
C57   C     C_3   0.095738 0.986362 0.673159 -0.249352
H22   H     H_    0.128746 0.998293 0.729368 0.152060
H23   H     H_    0.137466 0.090827 0.648649 0.146518
H24   H     H_    0.143817 0.931075 0.645935 0.184782
N2    N     N_2   0.134047 0.453875 0.154408 -0.513906
H25   H     H_    0.176177 0.441870 0.107973 0.282632
C58   C     C_3   0.000943 0.449571 0.142787 -0.297541
H26   H     H_    0.018079 0.545637 0.114960 0.144586
H27   H     H_    0.946824 0.439629 0.193982 0.156103
H28   H     H_    0.932103 0.358027 0.109008 0.183084
Cl3   Cl    Cl    0.053421 0.101234 0.342507 -0.523917
Cl4   Cl    Cl    0.152752 0.851233 0.302600 -0.550607
N3    N     N_2   0.579619 0.457042 0.186275 -0.479092
H29   H     H_    0.500818 0.426156 0.223461 0.264905
C59   C     C_3   0.557797 0.347708 0.136132 -0.250829
H30   H     H_    0.493652 0.243682 0.160875 0.129219
H31   H     H_    0.658970 0.357422 0.117560 0.149624
H32   H     H_    0.498846 0.353709 0.089457 0.166377
N4    N     N_2   0.304965 0.220967 0.830914 -0.524584
H33   H     H_    0.277785 0.121185 0.847140 0.235390
C60   C     C_3   0.377144 0.323129 0.885956 -0.213646
H34   H     H_    0.445228 0.293958 0.917141 0.170009
H35   H     H_    0.300762 0.328163 0.923133 0.147549
H36   H     H_    0.444293 0.425893 0.860969 0.221246

loop_
_geom_bond_atom_site_label_1
_geom_bond_atom_site_label_2
_ccdc_geom_bond_type
C55   C56   A    
C32   C45   S    
C14   C18   A    
C19   C23   S    
N1    H21   S    
Cr3   O22   S    
C37   H12   S    
Cr2   O5    S    
C43   N3    S    
C59   H31   S    
C21   Cl2   S    
Cr4   O6    S    
C7    C8    A    
C39   C53   S    
Cr4   O7    S    
C40   C46   A    
C5    C47   S    
C29   C30   A    
C23   O1    A    
C34   O25   A    
C20   H4    S    
C28   C29   A    
C5    C11   A    
C28   N2    S    
N2    C58   S    
C38   C39   A    
C15   C16   A    
C23   O23   A    
C52   O13   A    
C41   C42   A    
C44   H14   S    
C27   H6    S    
C33   H10   S    
C33   C35   A    
C53   O24   A    
Cr3   O23   S    
C35   H11   S    
C35   C36   A    
C8    C9    A    
C48   O9    A    
Cr6   O10   S    
C8    H17   S    
C15   H2    S    
Cr1   O1    S    
C59   H30   S    
C53   O4    A    
C34   C46   S    
C16   H1    S    
C4    C12   S    
C9    C10   A    
C7    N4    S    
C38   Cl3   S    
C24   H5    S    
Cr6   O19   S    
C51   O16   A    
C31   H9    S    
Cr1   O24   S    
C21   C22   A    
C47   O7    A    
C49   O6    A    
C44   C46   A    
C58   H27   S    
C51   O17   A    
C40   Cl4   S    
C13   C19   A    
C24   C25   A    
C12   O21   A    
C6    C11   A    
C16   C17   A    
C25   C26   A    
C52   O18   A    
Cr1   O5    S    
C54   Cl1   S    
Cr5   O19   S    
C43   C44   A    
Cr3   O3    S    
C37   C38   A    
Cr2   O2    S    
C41   H13   S    
C60   H34   S    
C6    H18   S    
C31   C32   A    
C10   C19   A    
C17   C18   A    
N1    C57   S    
C33   C39   A    
C5    C14   A    
C60   H36   S    
Cr6   O18   S    
Cr4   O14   S    
C40   C41   A    
Cr1   O25   S    
Cr1   O12   S    
C22   C49   S    
N3    H29   S    
C47   O8    A    
C22   C24   A    
C45   O2    A    
C42   C43   A    
Cr5   O16   S    
Cr4   O19   S    
C30   H7    S    
C36   C50   S    
Cr5   O8    S    
N3    C59   S    
C57   H22   S    
C29   C51   S    
C58   H28   S    
C48   C56   S    
C54   C55   A    
C36   C37   A    
C50   O15   A    
C4    C54   A    
C27   C32   A    
Cr5   O15   S    
N4    C60   S    
C1    O12   A    
C58   H26   S    
C12   O22   A    
C6    C7    A    
C17   H3    S    
C45   O3    A    
C34   O26   A    
C57   H24   S    
C13   C15   A    
C2    C3    A    
C59   H32   S    
C2    H15   S    
C2    C56   A    
N2    H25   S    
C30   C31   A    
C50   O14   A    
C1    C26   S    
C20   C26   A    
Cr2   O20   S    
C18   H20   S    
Cr2   O26   S    
N4    H33   S    
Cr3   O5    S    
Cr3   O4    S    
C55   H8    S    
C10   C11   A    
C25   N1    S    
Cr6   O17   S    
Cr4   O13   S    
Cr5   O9    S    
C20   C21   A    
C48   O10   A    
Cr6   O11   S    
C9    H19   S    
C27   C28   A    
C60   H35   S    
Cr2   O21   S    
C49   O11   A    
C13   C14   A    
C3    H16   S    
C1    O20   A    
C3    C4    A    
C42   C52   S    
C57   H23   S    
