data_mof_unit_63038.cif
_audit_creation_date              2012-12-10T19:18:41-0500
_audit_creation_method            fapswitch 2.2
_symmetry_space_group_name_H-M    P1
_symmetry_Int_Tables_number       1
_space_group_crystal_system       triclinic
_cell_length_a                    24.508291
_cell_length_b                    24.508257
_cell_length_c                    36.199854
_cell_angle_alpha                 90.000131
_cell_angle_beta                  90.000129
_cell_angle_gamma                 90.000051
_cell_volume                      21743.6412036

loop_
_atom_site_label
_atom_site_type_symbol
_atom_type_description
_atom_site_fract_x
_atom_site_fract_y
_atom_site_fract_z
_atom_type_partial_charge
C1    C     C_R   0.729599 0.227897 0.250898 0.053272
C2    C     C_R   0.271187 0.229790 0.249672 0.040670
C3    C     C_R   0.728089 0.810340 0.222129 -0.280830
C4    C     C_R   0.810355 0.271897 0.777864 -0.280839
C5    C     C_R   0.192128 0.725405 0.220978 -0.286870
C6    C     C_R   0.725611 0.808058 0.778916 -0.286734
C7    C     C_R   0.271917 0.189664 0.222122 -0.280758
C8    C     C_R   0.208284 0.293268 0.216292 -0.275442
C9    C     C_R   0.825548 0.742300 0.759527 -0.296436
C10   C     C_R   0.257740 0.825480 0.240323 -0.296152
C11   C     C_R   0.706761 0.208257 0.783706 -0.275473
C12   C     C_R   0.791722 0.706739 0.216294 -0.275435
C13   C     C_R   0.770214 0.271183 0.750324 0.040715
C14   C     C_R   0.174481 0.257716 0.759587 -0.296335
C15   C     C_R   0.742282 0.174482 0.240410 -0.296341
C16   C     C_R   0.293237 0.791745 0.783705 -0.275469
C17   C     C_R   0.635510 0.201149 0.261735 0.411796
C18   C     C_R   0.334197 0.830991 0.716347 0.409926
C19   C     C_R   0.831013 0.665824 0.283653 0.409913
C20   C     C_R   0.201150 0.364490 0.738267 0.411812
C21   C     C_R   0.364456 0.798871 0.261809 0.411767
C22   C     C_R   0.665813 0.168997 0.716347 0.409923
C23   C     C_R   0.168970 0.334158 0.283652 0.409907
C24   C     C_R   0.227754 0.730023 0.250984 0.043163
C25   C     C_R   0.798837 0.635488 0.738316 0.411842
C26   C     C_R   0.653741 0.817096 0.718978 0.420571
C27   C     C_R   0.350195 0.187428 0.278467 0.427417
C28   C     C_R   0.812563 0.350205 0.721538 0.427362
C29   C     C_R   0.182714 0.653912 0.281097 0.420537
C30   C     C_R   0.346188 0.182825 0.718947 0.420550
C31   C     C_R   0.649804 0.812575 0.278470 0.427488
C32   C     C_R   0.187436 0.649793 0.721537 0.427421
C33   C     C_R   0.817177 0.346185 0.281054 0.420561
C34   C     C_R   0.150279 0.686961 0.778820 0.423615
C35   C     C_R   0.269968 0.227757 0.749008 0.043176
C36   C     C_R   0.848726 0.314368 0.220703 0.422024
C37   C     C_R   0.314365 0.151271 0.779295 0.422025
C38   C     C_R   0.686947 0.849708 0.221172 0.423666
C39   C     C_R   0.849719 0.313042 0.778823 0.423682
C40   C     C_R   0.151376 0.685515 0.220645 0.422005
C41   C     C_R   0.685728 0.848812 0.779247 0.422037
C42   C     C_R   0.313061 0.150299 0.221165 0.423756
C43   C     C_R   0.167626 0.333097 0.216239 0.410011
C44   C     C_R   0.865645 0.701744 0.760794 0.416361
C45   C     C_R   0.298294 0.865576 0.239068 0.416240
C46   C     C_R   0.728810 0.770208 0.249676 0.040694
C47   C     C_R   0.666931 0.167600 0.783760 0.409990
C48   C     C_R   0.832382 0.666912 0.216240 0.410051
C49   C     C_R   0.134384 0.298271 0.760850 0.416316
C50   C     C_R   0.701728 0.134384 0.239149 0.416330
C51   C     C_R   0.333065 0.832404 0.783760 0.410019
C52   C     C_R   0.648042 0.147488 0.250267 -0.220540
C53   C     C_R   0.353109 0.852573 0.749992 -0.220478
C54   C     C_R   0.852573 0.646891 0.250008 -0.220443
C55   C     C_R   0.147488 0.351957 0.749733 -0.220547
C56   C     C_R   0.351955 0.852506 0.250265 -0.220853
C57   C     C_R   0.229790 0.728813 0.750323 0.040717
C58   C     C_R   0.646893 0.147425 0.749991 -0.220474
C59   C     C_R   0.147425 0.353107 0.250008 -0.220430
C60   C     C_R   0.852516 0.648041 0.749731 -0.220353
C61   C     C_R   0.648512 0.852822 0.749497 -0.240104
C62   C     C_R   0.352181 0.148107 0.249880 -0.242020
C63   C     C_R   0.851895 0.352178 0.750117 -0.241970
C64   C     C_R   0.147180 0.648497 0.250493 -0.239866
C65   C     C_R   0.351496 0.147180 0.749502 -0.239992
C66   C     C_R   0.647822 0.851896 0.249884 -0.242001
C67   C     C_R   0.148103 0.647823 0.750116 -0.241973
C68   C     C_R   0.772241 0.269969 0.250990 0.043168
C69   C     C_R   0.852819 0.351496 0.250497 -0.239997
C70   C     C_3   0.578635 0.228804 0.308073 0.087897
C71   C     C_3   0.518908 0.229486 0.319401 -0.677441
C72   C     C_3   0.382775 0.812674 0.664012 0.088165
C73   C     C_3   0.411045 0.839208 0.631184 -0.693416
C74   C     C_3   0.812737 0.617289 0.336014 0.088165
C75   C     C_3   0.839295 0.589059 0.368849 -0.693429
C76   C     C_3   0.228821 0.421367 0.691933 0.087880
C77   C     C_3   0.229506 0.481093 0.680606 -0.677477
C78   C     C_3   0.421225 0.771458 0.308265 0.088259
C79   C     C_1   0.499999 0.000001 0.111686 -0.108451
C80   C     C_3   0.480938 0.770659 0.319621 -0.677761
C81   C     C_3   0.617257 0.187300 0.663999 0.088123
C82   C     C_3   0.589005 0.160757 0.631168 -0.693296
C83   C     C_3   0.187222 0.382657 0.336033 0.088111
C84   C     C_3   0.160648 0.410869 0.368868 -0.693295
C85   C     C_3   0.771006 0.578542 0.692059 0.087634
C86   C     C_3   0.770408 0.518807 0.680749 -0.677251
C87   C     C_3   0.641428 0.851083 0.661240 0.064845
C88   C     C_3   0.601543 0.855120 0.629145 -0.677525
C89   C     C_3   0.363629 0.162055 0.338055 0.069122
C90   C     C_1   0.500000 0.000001 0.888306 -0.094439
C91   C     C_3   0.405547 0.158143 0.368931 -0.711103
C92   C     C_3   0.837919 0.363663 0.661950 0.069120
C93   C     C_3   0.841818 0.405593 0.631080 -0.711022
C94   C     C_3   0.148281 0.641955 0.338747 0.064502
C95   C     C_3   0.144071 0.602306 0.370966 -0.677267
C96   C     C_3   0.358349 0.148652 0.661245 0.064722
C97   C     C_3   0.398137 0.144536 0.629099 -0.677459
C98   C     C_3   0.636393 0.837970 0.338055 0.069117
C99   C     C_3   0.594490 0.841889 0.368941 -0.711170
C100  C     C_3   0.162070 0.636352 0.661949 0.069099
C101  C     C_1   0.000001 0.500000 0.111694 -0.094504
C102  C     C_3   0.158162 0.594432 0.631074 -0.711043
C103  C     C_3   0.851361 0.358337 0.338753 0.064675
C104  C     C_3   0.855481 0.398118 0.370903 -0.677359
C105  C     C_3   0.136375 0.661454 0.838331 0.067920
C106  C     C_3   0.094292 0.657738 0.869115 -0.704213
C107  C     C_3   0.919354 0.277499 0.188206 0.084321
C108  C     C_3   0.961935 0.290392 0.158891 -0.655896
C109  C     C_3   0.277494 0.080642 0.811790 0.084312
C110  C     C_3   0.290387 0.038057 0.841103 -0.655897
C111  C     C_3   0.661429 0.863588 0.161661 0.067905
C112  C     C_R   0.272556 0.771292 0.750293 0.050988
C113  C     C_1   0.000001 0.500000 0.888315 -0.108400
C114  C     C_3   0.657692 0.905662 0.130873 -0.704260
C115  C     C_3   0.863606 0.338557 0.838334 0.067901
C116  C     C_3   0.905680 0.342286 0.869123 -0.704243
C117  C     C_3   0.080923 0.722284 0.187914 0.084196
C118  C     C_3   0.038436 0.709257 0.158563 -0.655724
C119  C     C_3   0.722670 0.919584 0.811557 0.084413
C120  C     C_3   0.709890 0.962229 0.840852 -0.656022
C121  C     C_3   0.338639 0.136440 0.161664 0.067899
C122  C     C_3   0.342366 0.094392 0.130859 -0.704307
C123  C     C_3   0.178611 0.394183 0.169705 0.077033
C124  C     C_1   1.000000 0.500003 0.611669 -0.108939
C125  C     C_3   0.152191 0.417732 0.135185 -0.734815
C126  C     C_3   0.922240 0.729532 0.807255 0.088038
C127  C     C_3   0.981810 0.729633 0.818963 -0.676196
C128  C     C_3   0.270978 0.921985 0.192392 0.088721
C129  C     C_3   0.270631 0.981538 0.180650 -0.676808
C130  C     C_3   0.605888 0.178557 0.830323 0.077031
C131  C     C_3   0.582376 0.152120 0.864848 -0.734753
C132  C     C_3   0.821411 0.605843 0.169694 0.077021
C133  C     C_3   0.847840 0.582311 0.135171 -0.734819
C134  C     C_3   0.077867 0.270668 0.807398 0.088309
C135  C     C_1   1.000000 0.500005 0.388288 -0.128255
C136  C     C_3   0.018305 0.270472 0.819122 -0.676456
C137  C     C_3   0.729344 0.077861 0.192607 0.088293
C138  C     C_3   0.729523 0.018299 0.180881 -0.676392
C139  C     C_3   0.394100 0.821458 0.830329 0.077027
C140  C     C_3   0.417603 0.847902 0.864856 -0.734782
C141  C     C_1   0.499996 0.999999 0.611712 -0.128125
C142  C     C_1   0.499998 0.000000 0.388331 -0.108975
C143  C     C_R   0.049452 0.505801 0.480558 0.316942
C144  C     C_R   0.950555 0.494149 0.519347 0.318392
C145  C     C_R   0.494179 0.049450 0.480653 0.318386
C146  C     C_R   0.505724 0.950540 0.519441 0.316964
C147  C     C_R   0.950547 0.494228 0.480558 0.316954
C148  C     C_R   0.771290 0.727442 0.249706 0.050995
C149  C     C_R   0.049444 0.505876 0.519347 0.318378
C150  C     C_R   0.505804 0.950548 0.480652 0.318393
C151  C     C_R   0.494256 0.049457 0.519442 0.316946
C152  C     C_R   0.549390 0.993741 0.980600 0.318222
C153  C     C_R   0.450613 0.006318 0.019386 0.315212
C154  C     C_R   0.006352 0.549382 0.980614 0.315251
C155  C     C_R   0.993706 0.450614 0.019400 0.318248
C156  C     C_R   0.450608 0.006265 0.980600 0.318245
C157  C     C_R   0.549384 0.993688 0.019387 0.315192
C158  C     C_R   0.993653 0.450620 0.980614 0.315215
C159  C     C_R   0.227897 0.270400 0.749101 0.053270
C160  C     C_R   0.006301 0.549387 0.019401 0.318261
C161  C     C_R   0.999999 0.500014 0.461241 -0.197804
C162  C     C_R   1.000000 0.500011 0.538679 -0.200866
C163  C     C_R   0.499993 0.999999 0.461320 -0.200878
C164  C     C_R   0.499991 0.999999 0.538759 -0.197787
C165  C     C_R   0.499999 0.000003 0.961275 -0.206019
C166  C     C_R   0.499999 0.000003 0.038713 -0.198427
C167  C     C_R   0.000003 0.500001 0.961288 -0.198441
C168  C     C_R   0.000003 0.500000 0.038725 -0.205989
C169  C     C_R   0.500000 0.000000 0.348872 0.798964
C170  C     C_R   0.270396 0.772094 0.250893 0.053105
C171  C     C_R   0.499999 1.000000 0.651142 0.802574
C172  C     C_R   1.000000 0.500001 0.348857 0.802434
C173  C     C_R   1.000000 0.500000 0.651128 0.798995
C174  C     C_R   1.000000 0.500000 0.848866 0.799645
C175  C     C_R   0.000000 0.500000 0.151137 0.793269
C176  C     C_R   0.500000 0.000000 0.848863 0.793220
C177  C     C_R   0.500000 0.000000 0.151134 0.799606
C178  C     C_R   0.605328 0.894636 0.249983 0.853861
C179  C     C_R   0.394666 0.105276 0.749983 0.855671
C180  C     C_R   0.105276 0.605331 0.250016 0.855830
C181  C     C_R   0.727449 0.228703 0.750294 0.050985
C182  C     C_R   0.894635 0.394672 0.750018 0.853871
C183  C     C_R   0.394673 0.105366 0.249981 0.853843
C184  C     C_R   0.605336 0.894724 0.749981 0.855542
C185  C     C_R   0.894723 0.394666 0.250017 0.855673
C186  C     C_R   0.105364 0.605328 0.750017 0.853867
C187  C     C_R   0.605154 0.104960 0.749879 0.887330
C188  C     C_R   0.394695 0.894753 0.250028 0.888015
C189  C     C_R   0.105245 0.394696 0.749972 0.888340
C190  C     C_R   0.895040 0.605154 0.250121 0.887368
C191  C     C_R   0.394846 0.895040 0.749879 0.887332
C192  C     C_R   0.228705 0.272553 0.249703 0.050993
C193  C     C_R   0.605303 0.105245 0.250028 0.888351
C194  C     C_R   0.894756 0.605303 0.749972 0.888569
C195  C     C_R   0.104959 0.394846 0.250121 0.887381
C196  C     C_1   1.000000 0.500010 0.421488 0.166234
C197  C     C_1   1.000000 0.500007 0.578454 0.167845
C198  C     C_1   0.499995 0.000000 0.421546 0.167829
C199  C     C_1   0.499993 0.999999 0.578512 0.166227
C200  C     C_1   0.499999 0.000002 0.921513 0.176242
C201  C     C_1   0.499999 0.000002 0.078477 0.168722
C202  C     C_1   0.000002 0.500001 0.921523 0.168747
C203  C     C_R   0.772112 0.729599 0.749095 0.053381
C204  C     C_1   0.000002 0.500000 0.078487 0.176237
C205  C     C_R   0.676201 0.241164 0.261105 -0.285360
C206  C     C_R   0.292668 0.791868 0.716757 -0.288365
C207  C     C_R   0.791887 0.707352 0.283242 -0.288338
C208  C     C_R   0.241164 0.323799 0.738896 -0.285382
C209  C     C_R   0.323766 0.758856 0.261182 -0.285233
C210  C     C_R   0.707344 0.208120 0.716757 -0.288365
C211  C     C_R   0.208096 0.292630 0.283240 -0.288334
C212  C     C_R   0.758824 0.676181 0.738947 -0.285472
C213  C     C_R   0.693943 0.776786 0.719252 -0.280415
C214  C     C_R   0.730042 0.772244 0.749001 0.043179
C215  C     C_R   0.311217 0.228892 0.277290 -0.287689
C216  C     C_R   0.771098 0.311228 0.722716 -0.287694
C217  C     C_R   0.223030 0.694109 0.280823 -0.280268
C218  C     C_R   0.305988 0.223138 0.719221 -0.280361
C219  C     C_R   0.688777 0.771106 0.277292 -0.287656
C220  C     C_R   0.228905 0.688767 0.722715 -0.287682
C221  C     C_R   0.776864 0.305986 0.280779 -0.280349
C222  C     C_R   0.189646 0.728104 0.777862 -0.280846
C223  C     C_R   0.807972 0.274482 0.221035 -0.286792
C224  C     C_R   0.274479 0.192024 0.778962 -0.286802
Cl1   Cl    Cl    0.611407 0.985683 0.043774 -0.549822
Cl2   Cl    Cl    0.888430 0.487104 0.456141 -0.566982
Cl3   Cl    Cl    0.487194 0.111581 0.543860 -0.566975
Cl4   Cl    Cl    0.513218 0.888449 0.456270 -0.554474
Cl5   Cl    Cl    0.888463 0.486673 0.543729 -0.554441
Cl6   Cl    Cl    0.111568 0.512932 0.456140 -0.566840
Cl7   Cl    Cl    0.512781 0.888415 0.543858 -0.567083
Cl8   Cl    Cl    0.486766 0.111549 0.456271 -0.554425
Cl9   Cl    Cl    0.388564 0.014048 0.956205 -0.519088
Cl10  Cl    Cl    0.014131 0.611425 0.043797 -0.519350
Cl11  Cl    Cl    0.985606 0.388603 0.956226 -0.549872
Cl12  Cl    Cl    0.388591 0.014323 0.043774 -0.549913
Cl13  Cl    Cl    0.611434 0.985959 0.956206 -0.518826
Cl14  Cl    Cl    0.985877 0.388575 0.043795 -0.519030
Cl15  Cl    Cl    0.014400 0.611399 0.956227 -0.549843
Cl16  Cl    Cl    0.111536 0.513351 0.543729 -0.554479
H1    H     H_    0.665860 0.282890 0.268051 0.162876
H2    H     H_    0.312447 0.260271 0.298332 0.159369
H3    H     H_    0.579973 0.800491 0.376622 0.255439
H4    H     H_    0.613191 0.861382 0.393569 0.230182
H5    H     H_    0.559186 0.866889 0.359858 0.270589
H6    H     H_    0.186526 0.671549 0.651696 0.141095
H7    H     H_    0.119938 0.650399 0.668656 0.135128
H8    H     H_    0.133160 0.559132 0.640162 0.270597
H9    H     H_    0.138678 0.613118 0.606438 0.230281
H10   H     H_    0.199563 0.579910 0.623403 0.255387
H11   H     H_    0.893459 0.349492 0.328738 0.123699
H12   H     H_    0.832340 0.319944 0.349047 0.138287
H13   H     H_    0.739709 0.312470 0.701682 0.159362
H14   H     H_    0.814247 0.406538 0.382279 0.259233
H15   H     H_    0.881366 0.380412 0.393045 0.216058
H16   H     H_    0.873987 0.437060 0.361508 0.272104
H17   H     H_    0.171691 0.685633 0.848697 0.142841
H18   H     H_    0.150163 0.619249 0.831589 0.134408
H19   H     H_    0.058888 0.632962 0.859932 0.269229
H20   H     H_    0.112754 0.638095 0.893770 0.231591
H21   H     H_    0.079979 0.699209 0.876792 0.256851
H22   H     H_    0.898939 0.238511 0.180651 0.130277
H23   H     H_    0.940949 0.272399 0.215128 0.133224
H24   H     H_    0.250393 0.697467 0.304226 0.162217
H25   H     H_    0.983617 0.328793 0.165998 0.280940
H26   H     H_    0.992132 0.256693 0.157306 0.194400
H27   H     H_    0.942030 0.295155 0.131515 0.265656
H28   H     H_    0.272394 0.059049 0.784867 0.133216
H29   H     H_    0.238507 0.101056 0.819346 0.130273
H30   H     H_    0.295152 0.057959 0.868479 0.265640
H31   H     H_    0.256688 0.007860 0.842686 0.194399
H32   H     H_    0.328788 0.016375 0.833994 0.280951
H33   H     H_    0.619230 0.849788 0.168409 0.134376
H34   H     H_    0.685615 0.828278 0.151296 0.142853
H35   H     H_    0.302713 0.250584 0.695857 0.162165
H36   H     H_    0.699155 0.919988 0.123190 0.256898
H37   H     H_    0.638050 0.887187 0.106221 0.231528
H38   H     H_    0.632905 0.941059 0.140053 0.269221
H39   H     H_    0.828292 0.314374 0.848698 0.142847
H40   H     H_    0.849811 0.380759 0.831588 0.134404
H41   H     H_    0.941080 0.367070 0.859944 0.269217
H42   H     H_    0.887207 0.361926 0.893775 0.231586
H43   H     H_    0.920000 0.300819 0.876803 0.256878
H44   H     H_    0.101410 0.761200 0.180281 0.130360
H45   H     H_    0.059234 0.727578 0.214784 0.133340
H46   H     H_    0.687544 0.739726 0.298332 0.159379
H47   H     H_    0.016680 0.670929 0.165744 0.280863
H48   H     H_    0.008289 0.742984 0.156827 0.194502
H49   H     H_    0.058439 0.704294 0.131236 0.265779
H50   H     H_    0.727602 0.941114 0.784597 0.133151
H51   H     H_    0.761720 0.899230 0.819040 0.130194
H52   H     H_    0.705310 0.942392 0.868265 0.265517
H53   H     H_    0.743559 0.992474 0.842311 0.194328
H54   H     H_    0.671420 0.983841 0.833819 0.281022
H55   H     H_    0.380844 0.150197 0.168434 0.134373
H56   H     H_    0.314492 0.171781 0.151305 0.142832
H57   H     H_    0.260294 0.687522 0.701682 0.159367
H58   H     H_    0.300897 0.080108 0.123155 0.256943
H59   H     H_    0.362042 0.112875 0.106223 0.231498
H60   H     H_    0.367117 0.058966 0.140032 0.269209
H61   H     H_    0.220168 0.379340 0.162343 0.143679
H62   H     H_    0.182069 0.427572 0.190509 0.117522
H63   H     H_    0.110843 0.433442 0.141848 0.253628
H64   H     H_    0.177398 0.451801 0.124337 0.202531
H65   H     H_    0.148708 0.385724 0.113594 0.268430
H66   H     H_    0.900172 0.699625 0.825081 0.146112
H67   H     H_    0.905286 0.771065 0.811903 0.133698
H68   H     H_    0.749419 0.302710 0.304144 0.162173
H69   H     H_    0.005220 0.759470 0.802168 0.256903
H70   H     H_    0.985130 0.740972 0.848576 0.196153
H71   H     H_    0.999472 0.688343 0.814995 0.295708
H72   H     H_    0.229623 0.904744 0.187502 0.133507
H73   H     H_    0.301269 0.900094 0.174764 0.146194
H74   H     H_    0.311737 0.999496 0.184884 0.295872
H75   H     H_    0.259702 0.984744 0.150960 0.196386
H76   H     H_    0.240387 0.004757 0.197231 0.256679
H77   H     H_    0.572477 0.182026 0.809536 0.117521
H78   H     H_    0.620740 0.220110 0.837688 0.143668
H79   H     H_    0.188554 0.759392 0.798961 0.168883
H80   H     H_    0.614407 0.148627 0.886423 0.268456
H81   H     H_    0.548319 0.177322 0.875719 0.202503
H82   H     H_    0.566658 0.110775 0.858183 0.253670
H83   H     H_    0.779854 0.620688 0.162330 0.143677
H84   H     H_    0.817951 0.572445 0.190490 0.117520
H85   H     H_    0.889187 0.566601 0.141835 0.253641
H86   H     H_    0.822636 0.548246 0.124313 0.202531
H87   H     H_    0.851324 0.614330 0.113587 0.268432
H88   H     H_    0.099868 0.300726 0.825145 0.146138
H89   H     H_    0.094933 0.229204 0.812140 0.133620
H90   H     H_    0.803399 0.247818 0.197364 0.160471
H91   H     H_    0.994966 0.240476 0.802412 0.256823
H92   H     H_    0.015033 0.259294 0.848765 0.196233
H93   H     H_    0.000527 0.311691 0.815050 0.295772
H94   H     H_    0.770817 0.094912 0.187873 0.133635
H95   H     H_    0.699303 0.099874 0.174853 0.146134
H96   H     H_    0.688294 0.000538 0.184941 0.295740
H97   H     H_    0.740719 0.015023 0.151242 0.196237
H98   H     H_    0.759499 0.994948 0.197599 0.256838
H99   H     H_    0.427516 0.817989 0.809546 0.117519
H100  H     H_    0.379249 0.779905 0.837694 0.143664
H101  H     H_    0.247813 0.196595 0.802633 0.160464
H102  H     H_    0.385566 0.851394 0.886427 0.268451
H103  H     H_    0.451659 0.822704 0.875731 0.202502
H104  H     H_    0.433318 0.889247 0.858190 0.253681
H105  H     H_    0.275462 0.778526 0.690744 0.154540
H106  H     H_    0.759368 0.811421 0.201023 0.168896
H107  H     H_    0.811445 0.240611 0.798965 0.168884
H108  H     H_    0.196791 0.751983 0.197271 0.160418
H109  H     H_    0.752341 0.803556 0.802560 0.160508
H110  H     H_    0.240644 0.188588 0.201011 0.168917
H111  H     H_    0.223959 0.279041 0.190045 0.159224
H112  H     H_    0.836349 0.783995 0.766244 0.152916
H113  H     H_    0.216079 0.836248 0.233486 0.153118
H114  H     H_    0.721008 0.223914 0.809953 0.159221
H115  H     H_    0.776054 0.720975 0.190047 0.159219
H116  H     H_    0.778562 0.724576 0.309254 0.154534
H117  H     H_    0.163694 0.216034 0.766352 0.152996
H118  H     H_    0.783964 0.163696 0.233645 0.152991
H119  H     H_    0.278985 0.776093 0.809953 0.159218
H120  H     H_    0.596080 0.270009 0.313199 0.136698
H121  H     H_    0.600044 0.198259 0.325771 0.143833
H122  H     H_    0.500745 0.188521 0.314949 0.296192
H123  H     H_    0.515326 0.240292 0.349090 0.195348
H124  H     H_    0.496140 0.259963 0.302729 0.256199
H125  H     H_    0.355556 0.779902 0.653393 0.134574
H126  H     H_    0.414821 0.794269 0.682012 0.152000
H127  H     H_    0.282890 0.334139 0.731952 0.162866
H128  H     H_    0.439251 0.871605 0.640882 0.272078
H129  H     H_    0.434875 0.808137 0.615748 0.220613
H130  H     H_    0.380312 0.857513 0.612348 0.253904
H131  H     H_    0.794326 0.585222 0.318034 0.152031
H132  H     H_    0.779969 0.644516 0.346628 0.134567
H133  H     H_    0.857607 0.619816 0.387664 0.253806
H134  H     H_    0.808236 0.565243 0.384305 0.220692
H135  H     H_    0.871691 0.560847 0.359156 0.272111
H136  H     H_    0.198284 0.399956 0.674229 0.143821
H137  H     H_    0.270029 0.403923 0.686814 0.136691
H138  H     H_    0.334089 0.717151 0.268196 0.162965
H139  H     H_    0.259977 0.503862 0.697283 0.256206
H140  H     H_    0.240322 0.484677 0.650918 0.195329
H141  H     H_    0.188538 0.499255 0.685052 0.296200
H142  H     H_    0.403641 0.730344 0.313509 0.136593
H143  H     H_    0.399896 0.802191 0.325858 0.143881
H144  H     H_    0.499245 0.811528 0.315038 0.296253
H145  H     H_    0.484455 0.760062 0.349349 0.195466
H146  H     H_    0.503618 0.739980 0.303064 0.256109
H147  H     H_    0.644483 0.220068 0.653383 0.134566
H148  H     H_    0.585203 0.205711 0.681990 0.152008
H149  H     H_    0.724557 0.221457 0.690745 0.154539
H150  H     H_    0.560792 0.128364 0.640863 0.272110
H151  H     H_    0.565185 0.191825 0.615722 0.220662
H152  H     H_    0.619747 0.142446 0.612342 0.253847
H153  H     H_    0.205650 0.414732 0.318068 0.152031
H154  H     H_    0.219980 0.355418 0.346649 0.134566
H155  H     H_    0.142316 0.380104 0.387667 0.253732
H156  H     H_    0.191701 0.434668 0.384343 0.220762
H157  H     H_    0.128265 0.439096 0.359175 0.272152
H158  H     H_    0.801416 0.600011 0.674287 0.143786
H159  H     H_    0.729737 0.595888 0.687019 0.136764
H160  H     H_    0.221414 0.275394 0.309250 0.154529
H161  H     H_    0.740070 0.495976 0.697498 0.256268
H162  H     H_    0.759458 0.515181 0.651086 0.195253
H163  H     H_    0.811439 0.500745 0.685109 0.296155
H164  H     H_    0.679776 0.832005 0.650917 0.138254
H165  H     H_    0.650330 0.893208 0.671179 0.123758
H166  H     H_    0.562644 0.873678 0.638571 0.272070
H167  H     H_    0.619192 0.880920 0.606937 0.216324
H168  H     H_    0.593062 0.813853 0.617843 0.259050
H169  H     H_    0.349581 0.119924 0.331345 0.135106
H170  H     H_    0.328433 0.186511 0.348308 0.141081
H171  H     H_    0.717084 0.665829 0.732048 0.162804
H172  H     H_    0.420069 0.199543 0.376604 0.255402
H173  H     H_    0.386860 0.138656 0.393566 0.230202
H174  H     H_    0.440847 0.133142 0.359842 0.270604
H175  H     H_    0.813465 0.328467 0.651694 0.141090
H176  H     H_    0.880053 0.349617 0.668653 0.135129
H177  H     H_    0.866815 0.440894 0.640173 0.270609
H178  H     H_    0.861305 0.386917 0.606441 0.230277
H179  H     H_    0.800415 0.420110 0.623413 0.255362
H180  H     H_    0.106216 0.650715 0.328635 0.123630
H181  H     H_    0.167222 0.680411 0.349002 0.138310
H182  H     H_    0.697155 0.749278 0.695917 0.162133
H183  H     H_    0.185267 0.593978 0.382435 0.259444
H184  H     H_    0.118078 0.620078 0.393025 0.215691
H185  H     H_    0.125644 0.563305 0.361611 0.272141
H186  H     H_    0.319958 0.167676 0.650950 0.138275
H187  H     H_    0.349501 0.106553 0.671257 0.123698
H188  H     H_    0.437075 0.126028 0.638496 0.272097
H189  H     H_    0.380434 0.118657 0.606953 0.216039
H190  H     H_    0.406560 0.185772 0.617727 0.259217
H191  H     H_    0.650434 0.880100 0.331336 0.135097
H192  H     H_    0.671596 0.813521 0.348304 0.141081
O1    O     O_3   0.500000 0.000000 0.250000 -0.501922
O2    O     O_R   0.500000 0.045450 0.668550 -0.648036
O3    O     O_R   0.045450 0.500000 0.331450 -0.647941
O4    O     O_R   0.954550 0.500000 0.668550 -0.646363
O5    O     O_R   0.000000 0.545450 0.831450 -0.646376
O6    O     O_R   1.000000 0.454550 0.168550 -0.627032
O7    O     O_R   0.454550 0.000000 0.831450 -0.627094
O8    O     O_R   0.545450 0.000000 0.168550 -0.646381
O9    O     O_R   1.000000 0.454550 0.831450 -0.646397
O10   O     O_R   1.000000 0.545450 0.168550 -0.627202
O11   O     O_R   0.545450 0.000000 0.831450 -0.626968
O12   O     O_3   0.500000 0.000000 0.750000 -0.504437
O13   O     O_R   0.454550 0.000000 0.168550 -0.646412
O14   O     O_R   0.564020 0.890520 0.271340 -0.606634
O15   O     O_R   0.435980 0.109480 0.728660 -0.604174
O16   O     O_R   0.109480 0.564020 0.271340 -0.604157
O17   O     O_R   0.890520 0.435980 0.728660 -0.606680
O18   O     O_R   0.435980 0.109480 0.271340 -0.606658
O19   O     O_R   0.564020 0.890520 0.728660 -0.604184
O20   O     O_R   0.890520 0.435980 0.271340 -0.604170
O21   O     O_R   0.109480 0.564020 0.728660 -0.606653
O22   O     O_R   0.564020 0.109480 0.728660 -0.633515
O23   O     O_3   1.000000 0.500000 0.250000 -0.504444
O24   O     O_R   0.435980 0.890520 0.271340 -0.617402
O25   O     O_R   0.109480 0.435980 0.728660 -0.617446
O26   O     O_R   0.890520 0.564020 0.271340 -0.633561
O27   O     O_R   0.435980 0.890520 0.728660 -0.633505
O28   O     O_R   0.564020 0.109480 0.271340 -0.617456
O29   O     O_R   0.890520 0.564020 0.728660 -0.617479
O30   O     O_R   0.109480 0.435980 0.271340 -0.633578
O31   O     O_R   0.064020 0.390520 0.771340 -0.617040
O32   O     O_R   0.935980 0.609480 0.228660 -0.616050
O33   O     O_R   0.609480 0.064020 0.771340 -0.616200
O34   O     O_3   1.000000 0.500000 0.750000 -0.501941
O35   O     O_R   0.390520 0.935980 0.228660 -0.617034
O36   O     O_R   0.935980 0.609480 0.771340 -0.617052
O37   O     O_R   0.064020 0.390520 0.228660 -0.616146
O38   O     O_R   0.390520 0.935980 0.771340 -0.616132
O39   O     O_R   0.609480 0.064020 0.228660 -0.617027
O40   O     O_R   0.064020 0.609480 0.228660 -0.615953
O41   O     O_R   0.935980 0.390520 0.771340 -0.606434
O42   O     O_R   0.609480 0.935980 0.228660 -0.606434
O43   O     O_R   0.390520 0.064020 0.771340 -0.615809
O44   O     O_R   0.935980 0.390520 0.228660 -0.615820
O45   O     O_R   0.500000 0.045450 0.331450 -0.646365
O46   O     O_R   0.064020 0.609480 0.771340 -0.606457
O47   O     O_R   0.390520 0.064020 0.228660 -0.606439
O48   O     O_R   0.609480 0.935980 0.771340 -0.615707
O49   O     O_3   0.582272 0.215367 0.270192 -0.587836
O50   O     O_3   0.352366 0.852625 0.683201 -0.599770
O51   O     O_3   0.852674 0.647682 0.316798 -0.599807
O52   O     O_3   0.215368 0.417729 0.729811 -0.587830
O53   O     O_3   0.417668 0.784663 0.270344 -0.587742
O54   O     O_3   0.647655 0.147353 0.683201 -0.599788
O55   O     O_3   0.147293 0.352283 0.316797 -0.599837
O56   O     O_R   0.500000 0.954550 0.668550 -0.648091
O57   O     O_3   0.784612 0.582233 0.729910 -0.587890
O58   O     O_3   0.617833 0.819270 0.689554 -0.575790
O59   O     O_3   0.387767 0.187135 0.306958 -0.593292
O60   O     O_3   0.812844 0.387787 0.693053 -0.593367
O61   O     O_3   0.180337 0.618198 0.310622 -0.575720
O62   O     O_3   0.382014 0.180565 0.689480 -0.575762
O63   O     O_3   0.612242 0.812878 0.306967 -0.593194
O64   O     O_3   0.187148 0.612218 0.693048 -0.593305
O65   O     O_3   0.819442 0.382007 0.310523 -0.575756
O66   O     O_3   0.112555 0.686794 0.807218 -0.592460
O67   O     O_R   0.954550 0.500000 0.331450 -0.648016
O68   O     O_3   0.881042 0.320518 0.189620 -0.574613
O69   O     O_3   0.320513 0.118953 0.810378 -0.574615
O70   O     O_3   0.686770 0.887424 0.192768 -0.592375
O71   O     O_3   0.887438 0.313217 0.807225 -0.592391
O72   O     O_3   0.119179 0.679231 0.189515 -0.574804
O73   O     O_3   0.679685 0.881224 0.810295 -0.574471
O74   O     O_3   0.313253 0.112597 0.192752 -0.592288
O75   O     O_3   0.146162 0.350878 0.183034 -0.580289
O76   O     O_3   0.918951 0.715405 0.769475 -0.589565
O77   O     O_3   0.284642 0.918834 0.230255 -0.589403
O78   O     O_R   0.045450 0.500000 0.668550 -0.646380
O79   O     O_3   0.649178 0.146113 0.816965 -0.580306
O80   O     O_3   0.853855 0.649144 0.183035 -0.580257
O81   O     O_3   0.081097 0.284613 0.769585 -0.589496
O82   O     O_3   0.715385 0.081096 0.230417 -0.589502
O83   O     O_3   0.350811 0.853897 0.816964 -0.580283
O84   O     O_R   0.500000 0.954550 0.331450 -0.646391
Zn1   Zn    Zn3+2 0.564990 0.000000 0.219470 0.982697
Zn2   Zn    Zn3+2 0.935010 0.500000 0.280530 0.983428
Zn3   Zn    Zn3+2 0.500000 0.064990 0.719470 0.983414
Zn4   Zn    Zn3+2 0.500000 0.935010 0.280530 0.982115
Zn5   Zn    Zn3+2 0.935010 0.500000 0.719470 0.982157
Zn6   Zn    Zn3+2 0.064990 0.500000 0.280530 0.983545
Zn7   Zn    Zn3+2 0.500000 0.935010 0.719470 0.983324
Zn8   Zn    Zn3+2 0.500000 0.064990 0.280530 0.982132
Zn9   Zn    Zn3+2 0.435010 0.000000 0.780530 0.994684
Zn10  Zn    Zn3+2 1.000000 0.564990 0.219470 0.994652
Zn11  Zn    Zn3+2 0.000000 0.435010 0.780530 0.982702
Zn12  Zn    Zn3+2 0.435010 0.000000 0.219470 0.982640
Zn13  Zn    Zn3+2 0.564990 0.000000 0.780530 0.994737
Zn14  Zn    Zn3+2 0.000000 0.435010 0.219470 0.994719
Zn15  Zn    Zn3+2 0.000000 0.564990 0.780530 0.982724
Zn16  Zn    Zn3+2 0.064990 0.500000 0.719470 0.982146

loop_
_geom_bond_atom_site_label_1
_geom_bond_atom_site_label_2
_ccdc_geom_bond_type
C28   C216  A    
C151  Cl3   S    
C126  C127  S    
C77   H139  S    
C139  H100  S    
O39   Zn1   S    
C16   H119  S    
C11   C181  A    
C140  H102  S    
C173  O78   A    
C152  C165  A    
O23   Zn10  S    
C182  O17   A    
C129  H74   S    
C150  C163  A    
C9    H112  S    
C216  H13   S    
C123  H61   S    
C2    C192  S    
C20   C55   A    
O22   Zn3   S    
C153  C166  A    
C88   H167  S    
C78   H142  S    
C94   H180  S    
C1    C68   S    
C73   H128  S    
C7    C42   A    
C119  H51   S    
C194  O29   A    
C72   H125  S    
C109  H29   S    
C80   H145  S    
C138  H97   S    
O12   Zn9   S    
C62   C183  S    
C146  C150  A    
C125  H64   S    
C11   C47   A    
O31   Zn11  S    
C128  H72   S    
C45   C56   A    
C79   C201  T    
C50   C52   A    
C1    C15   A    
C25   C60   A    
C41   C61   A    
O19   Zn7   S    
C20   O52   S    
C33   C69   A    
C89   O59   S    
C170  C209  A    
C29   C64   A    
C91   H172  S    
C217  H24   S    
C160  Cl10  S    
C131  H80   S    
C155  C158  A    
C89   H170  S    
C195  O30   A    
C83   O55   S    
C84   H157  S    
C189  O31   A    
C109  H28   S    
C74   H131  S    
C17   C52   A    
C147  Cl2   S    
C158  C167  A    
C127  H69   S    
C195  O37   A    
O44   Zn14  S    
C144  Cl5   S    
O18   Zn8   S    
C42   O74   S    
C59   C195  S    
C124  C197  T    
C161  C196  S    
C185  O44   A    
C71   H123  S    
C34   O66   S    
C70   O49   S    
O8    Zn1   S    
C179  O15   A    
C135  C172  S    
C153  C156  A    
C108  H26   S    
C84   H156  S    
C118  H47   S    
C97   H188  S    
C92   H175  S    
C76   H137  S    
C145  Cl8   S    
O35   Zn12  S    
C178  O14   A    
C188  O35   A    
C154  C167  A    
C165  C200  S    
C140  H104  S    
C38   O70   S    
C69   C185  S    
C73   H129  S    
C172  O3    A    
C129  H76   S    
C82   H151  S    
C132  H84   S    
C222  H79   S    
C219  H46   S    
C18   O50   S    
C44   O76   S    
C72   C73   S    
C83   H154  S    
C96   H187  S    
C22   C58   A    
C169  O84   A    
C139  C140  S    
C3    C46   A    
C27   O59   S    
C103  H11   S    
C130  C131  S    
C186  O46   A    
C120  H54   S    
C126  H67   S    
C100  H7    S    
C49   C55   A    
C110  H32   S    
C8    C192  A    
C213  H182  S    
C22   C210  A    
C174  O5    A    
C152  C157  A    
C115  O71   S    
C160  C168  A    
C143  Cl6   S    
C212  H171  S    
C123  C125  S    
C25   O57   S    
C28   C63   A    
C143  C149  A    
O23   Zn14  S    
C75   H135  S    
C134  H89   S    
C98   C99   S    
C180  O16   A    
C14   H117  S    
C72   O50   S    
C149  C162  A    
C141  C199  T    
C189  O25   A    
C109  C110  S    
C143  C161  A    
C115  H40   S    
C51   C53   A    
C47   O79   S    
C218  H35   S    
C90   C176  S    
C98   H192  S    
C2    C7    A    
C16   C51   A    
C6    H109  S    
C21   O53   S    
C128  C129  S    
C128  O77   S    
C85   C86   S    
C23   C59   A    
O48   Zn13  S    
C95   H185  S    
C26   C213  A    
C39   O71   S    
C55   C189  S    
C190  O32   A    
O1    Zn4   S    
C81   O54   S    
C78   C80   S    
C107  O68   S    
C185  O20   A    
O14   Zn4   S    
C128  H73   S    
C105  O66   S    
C83   H153  S    
C176  O11   A    
C122  H59   S    
C167  C202  S    
C99   H4    S    
C7    H110  S    
C31   O63   S    
C51   O83   S    
C97   H190  S    
C148  C207  A    
C135  C196  T    
C88   H166  S    
C178  O42   A    
C152  Cl13  S    
C155  Cl14  S    
C37   C65   A    
C85   H158  S    
O34   Zn16  S    
C107  C108  S    
C79   C177  S    
C118  H49   S    
C89   C91   S    
C24   C170  S    
C42   C62   A    
C18   C53   A    
C164  C199  S    
C43   C59   A    
O6    Zn14  S    
C86   H163  S    
C108  H25   S    
C96   O62   S    
C210  H149  S    
C144  C147  A    
C205  H1    S    
C103  O65   S    
C221  H68   S    
C146  Cl7   S    
C46   C148  S    
C91   H173  S    
C150  Cl4   S    
C136  H92   S    
C163  C198  S    
C137  H95   S    
O1    Zn8   S    
C110  H30   S    
O78   Zn16  S    
C133  H85   S    
C145  C163  A    
O41   Zn11  S    
C146  C164  A    
C168  C204  S    
C153  Cl12  S    
C45   O77   S    
C181  C210  A    
O43   Zn9   S    
C176  O7    A    
C127  H71   S    
C27   C62   A    
C76   O52   S    
O10   Zn10  S    
C83   C84   S    
C75   H133  S    
C130  H77   S    
C95   H184  S    
C10   C45   A    
C145  C151  A    
C137  O82   S    
C87   O58   S    
C32   C220  A    
C193  O28   A    
C106  H20   S    
C32   C67   A    
C85   O57   S    
C19   C54   A    
O32   Zn10  S    
C11   H114  S    
C106  H19   S    
C121  H55   S    
C101  C175  S    
C117  H45   S    
C207  H116  S    
O36   Zn15  S    
C122  H58   S    
C215  H2    S    
C54   C190  S    
C139  H99   S    
C58   C187  S    
C169  O45   A    
C52   C193  S    
C172  O67   A    
C116  H43   S    
C139  O83   S    
C57   C220  A    
C48   O80   S    
C13   C181  S    
O56   Zn7   S    
C14   C159  A    
O17   Zn5   S    
C117  H44   S    
C17   C205  A    
O47   Zn12  S    
C206  H105  S    
C96   H186  S    
C35   C224  A    
C116  H41   S    
C88   H168  S    
C188  O24   A    
C191  O27   A    
C78   H143  S    
C94   H181  S    
C29   O61   S    
C40   O72   S    
C119  H50   S    
C125  H65   S    
C136  H93   S    
C72   H126  S    
C131  H82   S    
C177  O13   A    
C125  H63   S    
C151  C164  A    
C81   H148  S    
C32   O64   S    
C92   O60   S    
C113  C174  S    
C33   C221  A    
C27   C215  A    
C87   C88   S    
C123  O75   S    
C74   O51   S    
C132  H83   S    
C102  H9    S    
O13   Zn12  S    
C116  H42   S    
C8    C43   A    
C93   H177  S    
C209  H138  S    
C12   C48   A    
C74   H132  S    
O4    Zn5   S    
C121  O74   S    
C114  H36   S    
C133  H87   S    
C213  C214  A    
C105  H18   S    
C104  H15   S    
C175  O6    A    
C93   H178  S    
C208  H127  S    
C26   C61   A    
O24   Zn4   S    
O12   Zn13  S    
C86   H161  S    
C77   H141  S    
C111  H34   S    
C184  O48   A    
O1    Zn1   S    
C171  O56   A    
C203  C214  S    
C114  H37   S    
C61   C184  S    
C70   H121  S    
C70   C71   S    
O67   Zn2   S    
C99   H5    S    
C118  H48   S    
C157  Cl1   S    
C92   H176  S    
C24   C217  A    
C129  H75   S    
C2    C215  A    
C77   H140  S    
C134  H88   S    
C111  O70   S    
O26   Zn2   S    
O40   Zn10  S    
C31   C219  A    
C57   C222  A    
O28   Zn8   S    
C15   H118  S    
C82   H152  S    
C5    H108  S    
C132  O80   S    
C43   O75   S    
C123  H62   S    
C84   H155  S    
C147  C161  A    
C41   O73   S    
O21   Zn16  S    
C65   C179  S    
C224  H101  S    
O38   Zn9   S    
C166  C201  S    
O15   Zn3   S    
C25   C212  A    
C66   C178  S    
C33   O65   S    
C6    C214  A    
C155  C168  A    
C113  C202  T    
C223  H90   S    
C53   C191  S    
C36   C223  A    
C121  C122  S    
C76   H136  S    
C10   H113  S    
C3    H106  S    
O11   Zn13  S    
O34   Zn5   S    
O33   Zn13  S    
C191  O38   A    
C87   H165  S    
C120  H52   S    
O1    Zn12  S    
O5    Zn15  S    
C183  O18   A    
C37   O69   S    
C16   C112  A    
C115  H39   S    
C127  H70   S    
C19   O51   S    
C105  H17   S    
C17   O49   S    
C40   C64   A    
C34   C67   A    
C21   C56   A    
C119  C120  S    
C171  O2    A    
C10   C170  A    
C220  H57   S    
C105  C106  S    
C137  H94   S    
C26   O58   S    
C112  C206  A    
O27   Zn7   S    
C71   H124  S    
C8    H111  S    
C23   C211  A    
C156  C165  A    
C44   C60   A    
O30   Zn6   S    
C92   C93   S    
C21   C209  A    
C107  H22   S    
C122  H60   S    
C99   H3    S    
C94   C95   S    
C97   H189  S    
C87   H164  S    
O9    Zn11  S    
C57   C112  S    
O37   Zn14  S    
C89   H169  S    
C5    C40   A    
C103  C104  S    
C190  O26   A    
C98   O63   S    
C50   O82   S    
C140  H103  S    
C117  C118  S    
C73   H130  S    
C115  C116  S    
C82   H150  S    
C31   C66   A    
O7    Zn9   S    
C91   H174  S    
C94   O61   S    
C68   C221  A    
C22   O54   S    
C141  C171  S    
O84   Zn4   S    
O23   Zn2   S    
C81   C82   S    
C60   C194  S    
C159  C208  A    
C100  H6    S    
C48   C54   A    
C75   H134  S    
O12   Zn3   S    
C28   O60   S    
C103  H12   S    
C13   C216  A    
C120  H53   S    
C126  H66   S    
O2    Zn3   S    
C110  H31   S    
C64   C180  S    
C15   C50   A    
C14   C49   A    
C90   C200  T    
C4    C13   A    
C149  Cl16  S    
C104  H14   S    
C117  O72   S    
O46   Zn15  S    
C130  H78   S    
C9    C203  A    
C179  O43   A    
C56   C188  S    
C3    C38   A    
O34   Zn11  S    
C6    C41   A    
C95   H183  S    
C177  O8    A    
C1    C205  A    
C80   H146  S    
C67   C186  S    
C29   C217  A    
C63   C182  S    
C175  O10   A    
C19   C207  A    
C98   H191  S    
C142  C198  T    
C211  H160  S    
C134  O81   S    
C100  O64   S    
O23   Zn6   S    
C74   C75   S    
O12   Zn7   S    
C194  O36   A    
C30   C65   A    
C119  O73   S    
C38   C66   A    
C102  H8    S    
C76   C77   S    
C182  O41   A    
C183  O47   A    
C71   H122  S    
C132  C133  S    
C134  C136  S    
C124  C173  S    
O25   Zn16  S    
C154  Cl15  S    
C106  H21   S    
C23   O55   S    
C78   O53   S    
C108  H27   S    
C192  C211  A    
C154  C160  A    
C158  Cl11  S    
C4    C39   A    
C156  Cl9   S    
C96   C97   S    
C85   H159  S    
C100  C102  S    
O34   Zn15  S    
O16   Zn6   S    
C9    C44   A    
C131  H81   S    
O29   Zn5   S    
C142  C169  S    
C174  O9    A    
C70   H120  S    
C203  C212  A    
C81   H147  S    
C68   C223  A    
C111  C114  S    
C20   C208  A    
C184  O19   A    
C35   C218  A    
C162  C197  S    
C36   C69   A    
C126  O76   S    
C121  H56   S    
C138  H96   S    
C12   H115  S    
C46   C219  A    
C144  C162  A    
C102  H10   S    
C49   O81   S    
C138  H98   S    
C136  H91   S    
C187  O33   A    
C37   C224  A    
C101  C204  T    
C157  C166  A    
C186  O21   A    
C133  H86   S    
C109  O69   S    
C39   C63   A    
C137  C138  S    
C104  H16   S    
C30   C218  A    
C18   C206  A    
C4    H107  S    
C130  O79   S    
C12   C148  A    
O20   Zn2   S    
O45   Zn8   S    
C47   C58   A    
C5    C24   A    
C30   O62   S    
C86   H162  S    
C193  O39   A    
C111  H33   S    
C35   C159  S    
C114  H38   S    
C187  O22   A    
C36   O68   S    
O3    Zn6   S    
C180  O40   A    
O42   Zn1   S    
C93   H179  S    
C107  H23   S    
C80   H144  S    
C173  O4    A    
C34   C222  A    
