data_mof_unit_35891.cif
_audit_creation_date              2012-12-10T17:12:46-0500
_audit_creation_method            fapswitch 2.2
_symmetry_space_group_name_H-M    P1
_symmetry_Int_Tables_number       1
_space_group_crystal_system       triclinic
_cell_length_a                    23.431562
_cell_length_b                    10.684005
_cell_length_c                    9.992702
_cell_angle_alpha                 86.124543
_cell_angle_beta                  89.960228
_cell_angle_gamma                 90.212222
_cell_volume                      2495.86365496

loop_
_atom_site_label
_atom_site_type_symbol
_atom_type_description
_atom_site_fract_x
_atom_site_fract_y
_atom_site_fract_z
_atom_type_partial_charge
C1    C     C_R   0.502015 0.261861 0.505370 0.829032
C2    C     C_R   0.119939 0.641142 0.474624 0.538810
C3    C     C_R   0.240444 0.552000 0.372326 -0.180441
C4    C     C_R   0.389221 0.500428 0.500085 0.903608
C5    C     C_R   0.299341 0.543032 0.377346 -0.297550
C6    C     C_R   0.326878 0.507691 0.498758 -0.230301
C7    C     C_R   0.294376 0.481361 0.616634 0.392572
C8    C     C_R   0.234974 0.496182 0.612002 0.464309
C9    C     C_R   0.208392 0.527559 0.488667 0.156818
C10   C     C_R   0.760223 0.531689 0.363700 0.599994
C11   C     C_R   0.700963 0.520368 0.371829 -0.391548
C12   C     C_R   0.970516 0.301108 0.474564 -0.153695
C13   C     C_R   0.673346 0.508281 0.497153 -0.225986
C14   C     C_R   0.705837 0.506660 0.616350 0.523304
C15   C     C_R   0.765275 0.511394 0.607185 -0.302565
C16   C     C_R   0.498431 0.737127 0.494817 0.779399
C17   C     C_R   0.791966 0.524011 0.482188 0.156094
C18   C     C_2   0.542250 0.932331 0.452862 -0.348655
C19   C     C_2   0.493352 0.869774 0.476431 0.444587
C20   C     C_2   0.540748 0.069271 0.432932 0.485108
C21   C     C_2   0.510436 0.128338 0.523824 0.322435
C22   C     C_2   0.529509 0.579064 0.919282 -0.092782
C23   C     C_R   0.029791 0.301296 0.476130 -0.155564
C24   C     C_2   0.532701 0.572853 0.069892 -0.131827
C25   C     C_R   0.610851 0.500971 0.499814 0.940138
C26   C     C_R   0.880144 0.639473 0.473612 0.562682
C27   C     C_R   0.880957 0.415411 0.475424 0.568024
C28   C     C_R   0.940395 0.414407 0.473867 -0.004569
C29   C     C_R   0.970149 0.529552 0.472860 -0.084417
C30   C     C_R   0.940083 0.644174 0.472026 -0.144331
C31   C     C_3   0.684440 0.599467 0.808538 -0.275123
C32   C     C_3   0.393635 0.854336 0.491317 -0.303282
C33   C     C_3   0.585986 0.063286 0.224970 -0.249452
C34   C     C_R   0.059938 0.414896 0.476274 -0.013226
C35   C     C_3   0.440679 0.092280 0.689312 -0.242061
C36   C     C_3   0.946502 0.923185 0.592846 -0.224725
C37   C     C_3   0.319625 0.313030 0.753456 -0.229007
C38   C     C_3   0.200015 0.578163 0.798334 -0.265476
C39   C     C_3   0.773929 0.650328 0.167317 -0.287115
C40   C     C_R   0.030141 0.529503 0.473609 -0.018252
C41   C     C_R   0.060305 0.643738 0.471946 -0.091733
C42   C     C_R   0.030488 0.757280 0.468962 -0.260566
C43   C     C_R   0.970762 0.758656 0.471897 0.542233
C44   C     C_R   0.119445 0.417041 0.479883 0.573108
H1    H     H_    0.948408 0.211949 0.474615 0.192167
H2    H     H_    0.397283 0.817892 0.597943 0.165140
H3    H     H_    0.388189 0.776360 0.424211 0.171430
H4    H     H_    0.354604 0.912717 0.482560 0.196140
H5    H     H_    0.549069 0.010208 0.187023 0.165278
H6    H     H_    0.621247 0.999034 0.257713 0.160783
H7    H     H_    0.602249 0.125829 0.140194 0.203949
H8    H     H_    0.410676 0.114869 0.604733 0.150093
H9    H     H_    0.441965 0.169992 0.757530 0.175047
H10   H     H_    0.423285 0.008814 0.747867 0.182400
H11   H     H_    0.553935 0.652022 0.864237 0.157000
H12   H     H_    0.480496 0.427193 0.903271 0.164409
H13   H     H_    0.563008 0.634227 0.115255 0.145131
H14   H     H_    0.051834 0.212257 0.477672 0.191344
H15   H     H_    0.469302 0.449383 0.105774 0.171506
H16   H     H_    0.053318 0.845813 0.465157 0.204909
H17   H     H_    0.931768 0.855016 0.675104 0.158197
H18   H     H_    0.918147 0.006056 0.592988 0.209168
H19   H     H_    0.990667 0.955505 0.612666 0.136401
H20   H     H_    0.219494 0.576702 0.277675 0.172736
H21   H     H_    0.344224 0.283357 0.844889 0.168527
H22   H     H_    0.340205 0.270225 0.667221 0.120078
H23   H     H_    0.323314 0.563772 0.285757 0.201331
H24   H     H_    0.275335 0.276667 0.767497 0.204151
H25   H     H_    0.180183 0.657969 0.738168 0.175224
H26   H     H_    0.243120 0.605164 0.833441 0.185427
H27   H     H_    0.173019 0.557732 0.888453 0.192762
H28   H     H_    0.779297 0.733545 0.227664 0.190256
H29   H     H_    0.729808 0.646215 0.127152 0.139203
H30   H     H_    0.803205 0.662929 0.080120 0.197780
H31   H     H_    0.676693 0.519846 0.279724 0.201592
H32   H     H_    0.660762 0.586175 0.904632 0.180737
H33   H     H_    0.664835 0.680231 0.749255 0.149123
H34   H     H_    0.729498 0.620976 0.833574 0.155335
H35   H     H_    0.791008 0.503707 0.697356 0.173790
H36   H     H_    0.583123 0.884302 0.452041 0.095849
N1    N     N_R   0.852550 0.526511 0.476064 -0.331773
N2    N     N_R   0.147828 0.528891 0.480364 -0.327437
N3    N     N_2   0.500610 0.501330 0.852150 -0.176919
N4    N     N_2   0.500630 0.501360 0.147810 -0.176858
O1    O     O_R   0.499990 0.319060 0.613040 -0.613874
O2    O     O_R   0.583840 0.500020 0.613040 -0.561469
O3    O     O_R   0.583850 0.500060 0.386900 -0.613774
O4    O     O_2   0.849329 0.745897 0.473611 -0.515261
O5    O     O_3   0.680044 0.488160 0.740826 -0.566680
O6    O     O_3   0.441010 0.929913 0.451084 -0.625895
O7    O     O_3   0.569585 0.138031 0.329446 -0.615545
O8    O     O_3   0.496428 0.063920 0.646398 -0.617529
O9    O     O_3   0.942673 0.872594 0.466330 -0.556041
O10   O     O_3   0.320382 0.445136 0.737197 -0.587548
O11   O     O_3   0.202257 0.469741 0.725630 -0.592625
O12   O     O_2   0.851507 0.306447 0.476995 -0.536699
O13   O     O_3   0.788311 0.537758 0.241393 -0.584612
O14   O     O_2   0.148926 0.308535 0.483116 -0.550388
O15   O     O_2   0.149925 0.749345 0.473139 -0.571057
O16   O     O_R   0.500010 0.319100 0.386900 -0.573079
O17   O     O_R   0.416150 0.499940 0.613100 -0.566166
O18   O     O_R   0.416160 0.499980 0.386960 -0.627130
O19   O     O_R   0.499990 0.680900 0.613100 -0.623596
O20   O     O_R   0.500010 0.680940 0.386960 -0.627523
Zn1   Zn    Zn3+2 0.499990 0.499970 0.650990 0.986898
Zn2   Zn    Zn3+2 0.500010 0.500030 0.349010 0.970181

loop_
_geom_bond_atom_site_label_1
_geom_bond_atom_site_label_2
_ccdc_geom_bond_type
C23   H14   S    
C38   H26   S    
C1    C21   S    
C35   H9    S    
C41   C42   A    
C5    H23   S    
O20   Zn2   S    
C7    C8    A    
C3    H20   S    
C12   C23   A    
C12   C28   A    
C34   C40   A    
C28   C29   A    
C44   N2    A    
C33   O7    S    
C5    C6    A    
O1    Zn1   S    
C39   O13   S    
C10   C17   A    
C33   H5    S    
C37   H24   S    
C25   O3    A    
C18   C19   D    
C39   H30   S    
C44   O14   S    
C36   O9    S    
C16   O20   A    
C32   O6    S    
C24   H13   S    
C31   O5    S    
C4    O18   A    
C38   O11   S    
N4    Zn2   S    
C39   H28   S    
C36   H19   S    
C17   N1    S    
C9    N2    S    
C35   O8    S    
C38   H25   S    
C13   C14   A    
C4    O17   A    
C35   H10   S    
O17   Zn1   S    
C32   H4    S    
C13   C25   S    
C27   O12   S    
C8    O11   S    
C36   H18   S    
C1    O16   A    
C31   H33   S    
C1    O1    A    
C20   O7    S    
C15   H35   S    
C27   N1    A    
C34   C44   A    
H15   N4    S    
C4    C6    S    
C42   H16   S    
C8    C9    A    
C33   H6    S    
N3    Zn1   S    
C37   H21   S    
C10   O13   S    
C14   O5    S    
C29   C30   A    
C3    C9    A    
C16   O19   A    
C23   C34   A    
C37   H22   S    
O19   Zn1   S    
C6    C7    A    
C26   O4    S    
C40   C41   A    
C2    O15   S    
C26   C30   A    
C26   N1    A    
C32   H3    S    
C22   C24   S    
C30   C43   A    
C2    N2    A    
O2    Zn1   S    
C42   C43   A    
C36   H17   S    
C27   C28   A    
H12   N3    S    
C15   C17   A    
C7    O10   S    
C38   H27   S    
C32   H2    S    
C12   H1    S    
C3    C5    A    
C22   H11   S    
C33   H7    S    
O16   Zn2   S    
C22   N3    D    
C24   N4    D    
C19   O6    S    
C11   H31   S    
C11   C13   A    
C31   H32   S    
O3    Zn2   S    
C16   C19   S    
C29   C40   A    
C25   O2    A    
C43   O9    S    
C37   O10   S    
O18   Zn2   S    
C18   C20   S    
C39   H29   S    
C10   C11   A    
C20   C21   D    
C18   H36   S    
C35   H8    S    
C14   C15   A    
C2    C41   A    
C31   H34   S    
C21   O8    S    
