data_mof_unit_51129.cif
_audit_creation_date              2012-12-10T17:25:20-0500
_audit_creation_method            fapswitch 2.2
_symmetry_space_group_name_H-M    P1
_symmetry_Int_Tables_number       1
_space_group_crystal_system       triclinic
_cell_length_a                    27.746855
_cell_length_b                    10.806753
_cell_length_c                    9.647115
_cell_angle_alpha                 89.933208
_cell_angle_beta                  87.675031
_cell_angle_gamma                 90.917742
_cell_volume                      2889.96351738

loop_
_atom_site_label
_atom_site_type_symbol
_atom_type_description
_atom_site_fract_x
_atom_site_fract_y
_atom_site_fract_z
_atom_type_partial_charge
C1    C     C_R   0.498371 0.262936 0.499913 0.833807
C2    C     C_R   0.278712 0.565759 0.604256 -0.093879
C3    C     C_R   0.253986 0.491581 0.510219 0.209493
C4    C     C_R   0.101992 0.503683 0.499745 -0.102244
C5    C     C_R   0.124459 0.468990 0.621917 -0.078429
C6    C     C_R   0.096446 0.445371 0.742887 -0.107107
C7    C     C_R   0.130720 0.538926 0.381109 -0.110036
C8    C     C_R   0.355061 0.493924 0.507692 -0.096281
C9    C     C_R   0.644790 0.497414 0.492356 -0.273558
C10   C     C_R   0.972143 0.447211 0.604128 0.013238
C11   C     C_R   0.976897 0.546210 0.375192 0.024192
C12   C     C_R   0.407759 0.498440 0.502414 0.784374
C13   C     C_R   0.949044 0.494679 0.487719 0.083929
C14   C     C_R   0.944556 0.374732 0.699656 -0.150848
C15   C     C_R   0.894547 0.368583 0.697893 0.430153
C16   C     C_R   0.870265 0.431042 0.593062 -0.108678
C17   C     C_R   0.897826 0.488964 0.483416 -0.138320
C18   C     C_R   0.874311 0.540479 0.369473 -0.118783
C19   C     C_R   0.823426 0.534359 0.370022 0.683731
C20   C     C_R   0.819559 0.436593 0.592150 0.651737
C21   C     C_R   0.718896 0.382088 0.477047 -0.112314
C22   C     C_R   0.668676 0.383862 0.482620 0.364148
C23   C     C_R   0.499095 0.737259 0.499700 0.840289
C24   C     C_R   0.671534 0.608733 0.500088 0.276381
C25   C     C_R   0.722096 0.606120 0.498308 0.443134
C26   C     C_R   0.745797 0.492331 0.484862 0.085527
C27   C     C_R   0.022633 0.465159 0.616211 -0.004361
C28   C     C_R   0.050803 0.503299 0.497009 0.043438
C29   C     C_R   0.028128 0.541758 0.375600 0.023490
C30   C     C_R   0.046374 0.448802 0.742902 0.344133
C31   C     C_R   0.107587 0.571685 0.258711 0.430547
C32   C     C_R   0.952572 0.599817 0.265231 -0.188299
C33   C     C_R   0.902540 0.597056 0.260773 0.438343
C34   C     C_R   0.592127 0.499439 0.497680 0.959852
C35   C     C_R   0.057483 0.572855 0.257487 -0.196398
C36   C     C_R   0.420766 0.124855 0.646834 -0.175122
C37   C     C_R   0.386114 0.059409 0.726854 -0.091382
C38   C     C_R   0.388125 0.931172 0.735619 0.409836
C39   C     C_R   0.424191 0.867740 0.661238 -0.204870
C40   C     C_R   0.460309 0.932725 0.580955 -0.001073
C41   C     C_R   0.459120 0.063441 0.577407 0.071829
C42   C     C_R   0.494911 0.129118 0.498150 -0.153616
C43   C     C_R   0.527289 0.066984 0.410245 -0.131939
C44   C     C_R   0.527512 0.939326 0.407310 0.400110
C45   C     C_R   0.174848 0.463066 0.622307 0.613801
C46   C     C_R   0.495990 0.871295 0.498095 -0.165778
C47   C     C_R   0.587912 0.525718 0.111818 0.299185
C48   C     C_R   0.623657 0.604086 0.051774 0.326301
C49   C     C_R   0.614106 0.667448 0.929269 0.312164
C50   C     C_R   0.572114 0.637213 0.859523 -0.235760
C51   C     C_R   0.536855 0.557813 0.922737 0.060110
C52   C     C_R   0.540731 0.533824 0.066433 0.069326
C53   C     C_R   0.461744 0.457471 0.079732 -0.028542
C54   C     C_R   0.462888 0.449762 0.932846 0.474600
C55   C     C_R   0.181475 0.539428 0.390268 0.662784
C56   C     C_R   0.280299 0.414919 0.417464 0.449104
C57   C     C_R   0.330620 0.418483 0.414734 -0.234437
C58   C     C_R   0.328928 0.565138 0.604650 -0.139721
Cu1   Cu    Cu3+1 0.500000 0.499990 0.640660 1.034052
Cu2   Cu    Cu3+1 0.500000 0.500010 0.359340 1.042313
H1    H     H_    0.567483 0.678532 0.759765 0.243695
N1    N     N_R   0.202233 0.497024 0.507259 -0.466747
N2    N     N_R   0.797580 0.487633 0.482210 -0.461982
N3    N     N_R   0.500460 0.501210 0.147910 -0.200509
N4    N     N_R   0.500480 0.501290 0.852040 -0.201821
O1    O     O_R   0.500000 0.319640 0.618810 -0.535410
O2    O     O_2   0.792045 0.394281 0.700986 -0.399367
O3    O     O_2   0.210204 0.583223 0.284769 -0.409857
O4    O     O_2   0.799435 0.574585 0.260389 -0.365380
O5    O     O_R   0.500000 0.319660 0.381240 -0.565745
O6    O     O_R   0.430260 0.500010 0.618770 -0.543760
O7    O     O_R   0.430270 0.500030 0.381200 -0.596469
O8    O     O_R   0.500000 0.680340 0.618760 -0.607982
O9    O     O_R   0.500000 0.680360 0.381190 -0.538106
O10   O     O_R   0.569730 0.499970 0.618800 -0.583448
O11   O     O_R   0.569740 0.499990 0.381230 -0.530439
O12   O     O_2   0.196367 0.423055 0.736730 -0.466768
H2    H     H_    0.347464 0.622714 0.677754 0.207134
Cl1   Cl    Cl    0.251228 0.311667 0.305881 -0.476138
Cl2   Cl    Cl    0.138305 0.607676 0.099264 -0.445125
H3    H     H_    0.971563 0.648571 0.181700 0.193652
Cl3   Cl    Cl    0.641841 0.751560 0.511784 -0.401749
Cl4   Cl    Cl    0.878526 0.669861 0.115193 -0.374921
Cl5   Cl    Cl    0.755823 0.744575 0.517284 -0.337665
H4    H     H_    0.042465 0.595004 0.159588 0.214190
H5    H     H_    0.552889 0.118420 0.343653 0.240041
H6    H     H_    0.416365 0.223303 0.635650 0.190427
H7    H     H_    0.357237 0.108585 0.780446 0.213771
H8    H     H_    0.258949 0.624837 0.676299 0.208440
Cl6   Cl    Cl    0.344259 0.849553 0.836761 -0.553590
H9    H     H_    0.422535 0.767951 0.664890 0.167466
Cl7   Cl    Cl    0.568406 0.869761 0.287221 -0.461689
H10   H     H_    0.430780 0.420675 0.138676 0.173654
Cl8   Cl    Cl    0.606977 0.376338 0.158208 -0.451219
Cl9   Cl    Cl    0.681322 0.611609 0.121754 -0.337984
Cl10  Cl    Cl    0.656530 0.772677 0.854326 -0.326057
Cl11  Cl    Cl    0.414018 0.371284 0.862775 -0.603053
H11   H     H_    0.113509 0.429230 0.840225 0.243815
Cl12  Cl    Cl    0.636725 0.241824 0.480620 -0.460998
H12   H     H_    0.737267 0.294578 0.468393 0.224760
Cl13  Cl    Cl    0.865540 0.274554 0.827007 -0.382183
H13   H     H_    0.961720 0.316910 0.773755 0.222820
Cl14  Cl    Cl    0.017122 0.456879 0.908852 -0.588873
H14   H     H_    0.350673 0.360832 0.341684 0.183493

loop_
_geom_bond_atom_site_label_1
_geom_bond_atom_site_label_2
_ccdc_geom_bond_type
C10   C27   A    
C21   C26   A    
C48   Cl9   S    
C11   C13   A    
C41   C42   A    
C20   O2    S    
C7    C55   A    
C43   C44   A    
C55   O3    S    
C31   Cl2   S    
C54   N4    A    
C53   C54   A    
C40   C46   A    
C32   H3    S    
C56   Cl1   S    
C6    H11   S    
C28   C29   A    
Cu1   O1    S    
C5    C6    A    
C53   N3    A    
C9    C22   A    
C14   H13   S    
Cu2   O7    S    
C15   C16   A    
C55   N1    A    
C45   N1    A    
C56   C57   A    
C18   C19   A    
C51   N4    A    
C24   Cl3   S    
C37   H7    S    
C8    C58   A    
C19   N2    A    
C16   C17   A    
C30   Cl14  S    
C25   Cl5   S    
C54   Cl11  S    
Cu1   O8    S    
C44   Cl7   S    
C8    C12   S    
C34   O10   A    
C12   O7    A    
Cu1   Cu2   S    
C23   C46   S    
C21   C22   A    
C27   C30   A    
C36   C41   A    
C23   O8    A    
C4    C7    A    
C39   H9    S    
C4    C28   A    
C44   C46   A    
C17   C18   A    
C36   H6    S    
C7    C31   A    
C53   H10   S    
C51   C52   A    
C24   C25   A    
C52   N3    A    
C39   C40   A    
C21   H12   S    
C25   C26   A    
C5    C45   A    
Cu2   O11   S    
C1    O1    A    
C2    H8    S    
C26   N2    S    
C37   C38   A    
C8    C57   A    
C3    C56   A    
C47   C48   A    
Cu2   O5    S    
C16   C20   A    
C50   C51   A    
C15   Cl13  S    
C33   Cl4   S    
C48   C49   A    
C6    C30   A    
C12   O6    A    
C11   C32   A    
C10   C14   A    
C9    C34   S    
C31   C35   A    
C19   O4    S    
C42   C43   A    
C23   O9    A    
Cu1   O10   S    
C3    N1    S    
C57   H14   S    
C38   Cl6   S    
C40   C41   A    
C22   Cl12  S    
C43   H5    S    
C4    C5    A    
C10   C13   A    
C2    C58   A    
C9    C24   A    
C47   C52   A    
C29   C35   A    
C1    O5    A    
C13   C17   A    
Cu2   N3    S    
C32   C33   A    
C20   N2    A    
C2    C3    A    
Cu1   N4    S    
C35   H4    S    
C38   C39   A    
Cu2   O9    S    
C47   Cl8   S    
C49   Cl10  S    
C18   C33   A    
C58   H2    S    
C1    C42   S    
C11   C29   A    
C36   C37   A    
C49   C50   A    
C34   O11   A    
C27   C28   A    
C50   H1    S    
C14   C15   A    
C45   O12   S    
Cu1   O6    S    
