data_mof_unit_54840.cif
_audit_creation_date              2013-03-05T15:54:34-0500
_audit_creation_method            fapswitch 2.2
_symmetry_space_group_name_H-M    P1
_symmetry_Int_Tables_number       1
_space_group_crystal_system       triclinic
_cell_length_a                    17.516502
_cell_length_b                    24.137196
_cell_length_c                    15.059002
_cell_angle_alpha                 90.000048
_cell_angle_beta                  125.377083
_cell_angle_gamma                 89.999971
_cell_volume                      5191.34018983

loop_
_atom_site_label
_atom_site_type_symbol
_atom_site_description
_atom_site_fract_x
_atom_site_fract_y
_atom_site_fract_z
_atom_type_partial_charge
C1    C     C_R   0.848206 0.651760 0.906192 -0.133834
C2    C     C_R   0.151861 0.651803 0.093483 -0.121063
C3    C     C_R   0.348139 0.151803 0.906517 -0.121067
C4    C     C_R   0.651794 0.151760 0.093808 -0.133833
H1    H     H_    0.814541 0.666032 0.823595 0.149077
H2    H     H_    0.186050 0.665951 0.176252 0.140455
H3    H     H_    0.313951 0.165951 0.823748 0.140450
H4    H     H_    0.685458 0.166032 0.176405 0.149074
N1    N     N_R   0.892620 0.603790 0.941770 -0.048709
N2    N     N_R   0.107380 0.603790 0.058230 -0.045921
N3    N     N_R   0.392620 0.103790 0.941770 -0.045921
N4    N     N_R   0.607380 0.103790 0.058230 -0.048708
C5    C     C_R   0.905455 0.376960 0.094979 -0.099507
C6    C     C_R   0.095462 0.377394 0.905786 -0.080170
C7    C     C_R   0.404538 0.877394 0.094214 -0.080161
C8    C     C_R   0.594545 0.876960 0.905021 -0.099509
H5    H     H_    0.931373 0.375195 0.179290 0.106176
H6    H     H_    0.069634 0.375331 0.821588 0.116723
H7    H     H_    0.430366 0.875331 0.178412 0.116723
H8    H     H_    0.568628 0.875195 0.820710 0.106175
N5    N     N_R   0.952270 0.397640 0.058010 -0.039060
N6    N     N_R   0.047730 0.397640 0.941990 -0.047995
N7    N     N_R   0.452270 0.897640 0.058010 -0.047997
N8    N     N_R   0.547730 0.897640 0.941990 -0.039060
C9    C     C_R   0.057950 0.545688 0.307536 0.322016
C10   C     C_R   0.948953 0.547395 0.697071 0.334094
C11   C     C_R   0.551042 0.047396 0.302927 0.334076
C12   C     C_R   0.442050 0.045687 0.692464 0.321948
N9    N     N_R   0.026310 0.529110 0.206760 -0.098016
N10   N     N_R   0.973690 0.529110 0.793240 -0.075217
N11   N     N_R   0.526310 0.029110 0.206760 -0.075217
N12   N     N_R   0.473690 0.029110 0.793240 -0.098009
C13   C     C_R   0.733026 0.454841 0.717220 -0.036288
C14   C     C_R   0.259272 0.455505 0.299146 -0.055585
C15   C     C_R   0.240727 0.955504 0.700856 -0.055593
C16   C     C_R   0.766974 0.954841 0.282779 -0.036286
N13   N     N_R   0.818570 0.472310 0.793020 -0.050021
N14   N     N_R   0.181430 0.472310 0.206980 -0.048785
N15   N     N_R   0.318570 0.972310 0.793020 -0.048784
N16   N     N_R   0.681430 0.972310 0.206980 -0.050021
C17   C     C_R   0.050466 0.454281 0.303154 -0.183317
C18   C     C_R   0.954555 0.455615 0.697372 -0.103051
C19   C     C_R   0.545443 0.955615 0.302627 -0.103034
C20   C     C_R   0.449534 0.954280 0.696847 -0.183309
H9    H     H_    0.062082 0.411381 0.328548 0.155600
H10   H     H_    0.944539 0.413118 0.670051 0.131173
H11   H     H_    0.555458 0.913118 0.329948 0.131171
H12   H     H_    0.437917 0.911380 0.671453 0.155599
N17   N     N_R   0.026930 0.472300 0.207330 -0.066126
N18   N     N_R   0.973070 0.472300 0.792670 -0.059528
N19   N     N_R   0.526930 0.972300 0.207330 -0.059526
N20   N     N_R   0.473070 0.972300 0.792670 -0.066125
C21   C     C_R   0.730859 0.547433 0.730716 -0.056996
C22   C     C_R   0.263132 0.548018 0.290900 -0.014014
C23   C     C_R   0.236867 0.048018 0.709103 -0.013999
C24   C     C_R   0.769141 0.047433 0.269284 -0.057004
H13   H     H_    0.709347 0.590343 0.713305 0.118673
H14   H     H_    0.280648 0.591085 0.313507 0.132706
H15   H     H_    0.219351 0.091085 0.686496 0.132702
H16   H     H_    0.790652 0.090343 0.286695 0.118673
N21   N     N_R   0.817960 0.529130 0.792460 -0.047330
N22   N     N_R   0.182040 0.529130 0.207540 -0.056240
N23   N     N_R   0.317960 0.029130 0.792460 -0.056241
N24   N     N_R   0.682040 0.029130 0.207540 -0.047330
C25   C     C_R   0.813967 0.373477 0.913284 -0.067443
C26   C     C_R   0.187676 0.375603 0.087864 -0.041712
C27   C     C_R   0.312324 0.875603 0.912136 -0.041705
C28   C     C_R   0.686033 0.873477 0.086716 -0.067442
H17   H     H_    0.756058 0.364586 0.831461 0.117480
H18   H     H_    0.247034 0.370032 0.170821 0.115909
H19   H     H_    0.252966 0.870032 0.829179 0.115908
H20   H     H_    0.743942 0.864586 0.168540 0.117481
N25   N     N_R   0.894850 0.397640 0.943830 -0.040824
N26   N     N_R   0.105150 0.397640 0.056170 -0.035695
N27   N     N_R   0.394850 0.897640 0.943830 -0.035696
N28   N     N_R   0.605150 0.897640 0.056170 -0.040825
C29   C     C_R   0.935073 0.652124 0.087514 -0.081810
C30   C     C_R   0.063846 0.652204 0.911866 -0.012439
C31   C     C_R   0.436154 0.152204 0.088134 -0.012490
C32   C     C_R   0.564927 0.152124 0.912487 -0.081829
H21   H     H_    0.973872 0.666833 0.170023 0.169229
H22   H     H_    0.022833 0.666851 0.829029 0.139174
H23   H     H_    0.477168 0.166852 0.170971 0.139182
H24   H     H_    0.526127 0.166833 0.829977 0.169214
N29   N     N_R   0.950040 0.603780 0.055950 -0.052814
N30   N     N_R   0.049960 0.603780 0.944050 -0.040144
N31   N     N_R   0.450040 0.103780 0.055950 -0.040142
N32   N     N_R   0.549960 0.103780 0.944050 -0.052813
C33   C     C_R   0.873454 0.683286 0.995260 0.024453
C34   C     C_R   0.125893 0.683442 0.003945 0.023686
C35   C     C_R   0.374107 0.183442 0.996055 0.023696
C36   C     C_R   0.626546 0.183286 0.004741 0.024463
C37   C     C_R   0.818277 0.361414 0.006351 0.015003
C38   C     C_R   0.183395 0.362792 0.994938 0.021327
C39   C     C_R   0.316605 0.862792 0.005062 0.021330
C40   C     C_R   0.681723 0.861414 0.993649 0.015005
C41   C     C_R   0.064082 0.499327 0.365556 -0.037173
C42   C     C_R   0.941999 0.502304 0.637624 -0.089298
C43   C     C_R   0.557996 0.002305 0.362374 -0.089307
C44   C     C_R   0.435917 0.999327 0.634444 -0.037140
C45   C     C_R   0.676511 0.500841 0.687047 -0.087261
C46   C     C_R   0.312313 0.502193 0.348589 -0.059866
C47   C     C_R   0.187685 0.002193 0.651415 -0.059855
C48   C     C_R   0.823489 0.000841 0.312953 -0.087258
Ni1   Ni    Ni4+2 0.934160 0.565860 0.869070 0.288897
Ni2   Ni    Ni4+2 0.065840 0.565860 0.130930 0.280544
Ni3   Ni    Ni4+2 0.434160 0.065860 0.869070 0.280541
Ni4   Ni    Ni4+2 0.565840 0.065860 0.130930 0.288895
Ni5   Ni    Ni4+2 0.067260 0.435560 0.132230 0.284388
Ni6   Ni    Ni4+2 0.932740 0.435560 0.867770 0.283383
Ni7   Ni    Ni4+2 0.567260 0.935560 0.132230 0.283385
Ni8   Ni    Ni4+2 0.432740 0.935560 0.867770 0.284392
C49   C     C_3   0.510849 0.455640 0.579015 -0.211505
C50   C     C_3   0.475878 0.459564 0.458815 -0.199017
C51   C     C_3   0.024119 0.959564 0.541187 -0.199019
C52   C     C_3   0.989150 0.955639 0.420988 -0.211516
C53   C     C_3   0.439265 0.499726 0.560933 -0.087992
C54   C     C_3   0.545353 0.506409 0.485036 -0.121706
C55   C     C_3   0.954645 0.006410 0.514964 -0.121708
C56   C     C_3   0.060735 0.999726 0.439070 -0.087979
H25   H     H_    0.392196 0.497098 0.587749 0.146803
H26   H     H_    0.591804 0.509023 0.457328 0.135178
H27   H     H_    0.908192 0.009025 0.542670 0.135177
H28   H     H_    0.107806 0.997096 0.412257 0.146807
H29   H     H_    0.528397 0.417183 0.627716 0.120440
H30   H     H_    0.459887 0.424123 0.403530 0.118823
H31   H     H_    0.040110 0.924124 0.596473 0.118823
H32   H     H_    0.971604 0.917183 0.372288 0.120442
C57   C     C_3   0.406004 0.503448 0.442544 0.171026
C58   C     C_3   0.579238 0.502381 0.603541 0.164651
C59   C     C_3   0.920761 0.002381 0.396459 0.164648
C60   C     C_3   0.093994 0.003449 0.557459 0.171026
C61   C     C_3   0.474355 0.550465 0.467535 -0.128770
C62   C     C_3   0.510023 0.546622 0.588077 -0.115747
C63   C     C_3   0.989978 0.046621 0.411924 -0.115739
C64   C     C_3   0.025643 0.050466 0.532465 -0.128770
H33   H     H_    0.457079 0.589234 0.419773 0.120776
H34   H     H_    0.527705 0.581978 0.644058 0.126013
H35   H     H_    0.972296 0.081977 0.355943 0.126016
H36   H     H_    0.042919 0.089235 0.580227 0.120776
C65   C     C_R   0.770842 0.310206 0.109962 0.146123
C66   C     C_R   0.231771 0.311447 0.891943 0.190606
C67   C     C_R   0.268229 0.811447 0.108057 0.190617
C68   C     C_R   0.729159 0.810206 0.890039 0.146122
C69   C     C_R   0.747393 0.333372 0.011798 0.042354
C70   C     C_R   0.254541 0.334410 0.990054 0.048953
C71   C     C_R   0.245459 0.834410 0.009946 0.048956
C72   C     C_R   0.752607 0.833372 0.988202 0.042353
C73   C     C_R   0.659706 0.319917 0.915866 -0.178135
C74   C     C_R   0.341333 0.320008 0.086409 -0.172862
C75   C     C_R   0.158668 0.820007 0.913591 -0.172857
C76   C     C_R   0.840294 0.819917 0.084135 -0.178135
H37   H     H_    0.634457 0.340113 0.839365 0.126551
H38   H     H_    0.366119 0.339688 0.163192 0.129145
H39   H     H_    0.133881 0.839688 0.836808 0.129143
H40   H     H_    0.865543 0.840113 0.160635 0.126552
C77   C     C_R   0.110709 0.773330 0.912498 -0.178985
C78   C     C_R   0.888761 0.773530 0.085364 -0.174124
C79   C     C_R   0.611239 0.273530 0.914636 -0.174130
C80   C     C_R   0.389292 0.273331 0.087502 -0.178989
H41   H     H_    0.050657 0.758870 0.835000 0.144157
H42   H     H_    0.949738 0.759626 0.162683 0.151690
H43   H     H_    0.550262 0.259626 0.837318 0.151683
H44   H     H_    0.449343 0.258871 0.165001 0.144163
C81   C     C_R   0.149258 0.741857 0.008141 0.029717
C82   C     C_R   0.849601 0.741551 0.990270 0.035782
C83   C     C_R   0.650399 0.241551 0.009731 0.035783
C84   C     C_R   0.350743 0.241858 0.991859 0.029715
C85   C     C_R   0.220198 0.765955 0.107012 0.161350
C86   C     C_R   0.777545 0.764946 0.891194 0.163152
C87   C     C_R   0.722456 0.264946 0.108806 0.163151
C88   C     C_R   0.279803 0.265955 0.892988 0.161353
C89   C     C_3   0.306138 0.741056 0.205291 -0.507931
C90   C     C_3   0.691359 0.739299 0.794334 -0.504367
C91   C     C_3   0.808641 0.239299 0.205666 -0.504366
C92   C     C_3   0.193863 0.241056 0.794709 -0.507929
C93   C     C_3   0.861953 0.288532 0.206728 -0.488093
C94   C     C_3   0.140876 0.290416 0.793795 -0.501727
C95   C     C_3   0.359124 0.790416 0.206205 -0.501724
C96   C     C_3   0.638048 0.788532 0.793272 -0.488094
H45   H     H_    0.327871 0.701595 0.187810 0.209428
H46   H     H_    0.670875 0.699867 0.813480 0.204093
H47   H     H_    0.829125 0.199866 0.186519 0.204092
H48   H     H_    0.172130 0.201595 0.812190 0.209425
H49   H     H_    0.302673 0.739952 0.276696 0.212117
H50   H     H_    0.693652 0.737811 0.722117 0.206160
H51   H     H_    0.806349 0.237811 0.277883 0.206160
H52   H     H_    0.197328 0.239953 0.723304 0.212117
H53   H     H_    0.912607 0.276784 0.187990 0.218224
H54   H     H_    0.089277 0.278565 0.811006 0.209998
H55   H     H_    0.410723 0.778565 0.188994 0.209998
H56   H     H_    0.587393 0.776785 0.812009 0.218225
H57   H     H_    0.890847 0.315098 0.279937 0.189893
H58   H     H_    0.113154 0.317399 0.721352 0.208014
H59   H     H_    0.386847 0.817399 0.278648 0.208018
H60   H     H_    0.609154 0.815099 0.720063 0.189894
C97   C     C_R   0.010285 0.548429 0.556211 0.063355
C98   C     C_R   0.044637 0.547605 0.494494 0.003080
C99   C     C_R   0.455343 0.047602 0.505490 0.003055
C100  C     C_R   0.489694 0.048426 0.443772 0.063432
C101  C     C_R   0.956038 0.505197 0.553313 0.160374
C102  C     C_R   0.033441 0.499760 0.436116 0.053105
C103  C     C_R   0.466549 0.999759 0.563877 0.053096
C104  C     C_R   0.543951 0.005197 0.446680 0.160351
C105  C     C_R   0.932630 0.460828 0.482747 -0.182930
C106  C     C_R   0.971719 0.457831 0.424839 -0.151031
C107  C     C_R   0.528278 0.957833 0.575159 -0.151034
C108  C     C_R   0.567367 0.960831 0.517252 -0.182926
H61   H     H_    0.889605 0.427049 0.477813 0.131368
H62   H     H_    0.953851 0.422342 0.372312 0.118843
H63   H     H_    0.546153 0.922346 0.627693 0.118844
H64   H     H_    0.610399 0.927054 0.522192 0.131369
C109  C     C_3   0.132067 0.578156 0.581122 0.114467
C110  C     C_3   0.094545 0.577305 0.650127 -0.017462
C111  C     C_3   0.405429 0.077293 0.349847 -0.017477
C112  C     C_3   0.367908 0.078146 0.418854 0.114409
H65   H     H_    0.197925 0.554415 0.614724 0.149210
H66   H     H_    0.078185 0.618734 0.667687 0.146849
H67   H     H_    0.421779 0.118721 0.332274 0.146874
H68   H     H_    0.302052 0.054403 0.385253 0.149214
N33   N     N_R   0.136056 0.634864 0.549332 0.273247
O1    O     O_R   0.216522 0.659858 0.597900 -0.316671
O2    O     O_R   0.059749 0.662761 0.482293 -0.363024
N34   N     N_R   0.150678 0.542324 0.747105 0.241251
O3    O     O_R   0.180097 0.562212 0.842174 -0.392808
O4    O     O_R   0.172175 0.491661 0.739872 -0.406673
N35   N     N_R   0.349303 0.042304 0.252880 0.241243
O5    O     O_R   0.319884 0.062184 0.157805 -0.392817
O6    O     O_R   0.327817 0.991641 0.260128 -0.406677
N36   N     N_R   0.363912 0.134855 0.450636 0.273222
O7    O     O_R   0.283421 0.159808 0.402214 -0.316575
O8    O     O_R   0.440214 0.162790 0.517521 -0.363052
N37   N     N_R   0.127846 0.588277 0.360065 0.241807
O9    O     O_R   0.208850 0.576546 0.449485 -0.416622
O10   O     O_R   0.121979 0.631853 0.305965 -0.440288
N38   N     N_R   0.899682 0.598658 0.650381 0.212333
O11   O     O_R   0.869710 0.612401 0.551659 -0.392399
O12   O     O_R   0.868760 0.626208 0.697672 -0.467172
N39   N     N_R   0.600308 0.098659 0.349616 0.212338
O13   O     O_R   0.630265 0.112407 0.448331 -0.392379
O14   O     O_R   0.631241 0.126207 0.302334 -0.467164
N40   N     N_R   0.372151 0.088274 0.639932 0.241796
O15   O     O_R   0.291142 0.076536 0.550526 -0.416571
O16   O     O_R   0.378024 0.131856 0.694022 -0.440288
C113  C     C_2   0.712673 0.403396 0.653908 0.438087
H69   H     H_    0.641935 0.393020 0.586690 0.037627
O17   O     O_2   0.776286 0.372435 0.675073 -0.579765
C114  C     C_2   0.270186 0.401785 0.352180 0.460393
H70   H     H_    0.333903 0.392307 0.431074 0.037197
O18   O     O_2   0.206566 0.368028 0.309383 -0.572937
C115  C     C_2   0.229811 0.901785 0.647820 0.460402
H71   H     H_    0.166093 0.892307 0.568928 0.037195
O19   O     O_2   0.293431 0.868028 0.690615 -0.572929
C116  C     C_2   0.787327 0.903396 0.346092 0.438083
H72   H     H_    0.858064 0.893021 0.413310 0.037626
O20   O     O_2   0.723713 0.872435 0.324927 -0.579766

loop_
_geom_bond_atom_site_label_1
_geom_bond_atom_site_label_2
_geom_bond_distance
_ccdc_geom_bond_type
C38   C70   1.460802 S    
C30   N30   1.340409 A    
C107  H63   1.082023 S    
C61   H33   1.110196 S    
C23   H15   1.081520 S    
C43   C104  1.427881 S    
N11   Ni4   1.867045 S    
C66   C70   1.402429 A    
C42   C101  1.427890 S    
C71   C75   1.408281 A    
N39   O13   1.300789 A    
N8    Ni8   1.880770 S    
C46   C57   1.416847 S    
N18   Ni6   1.868041 S    
C41   C102  1.441374 S    
C68   C72   1.401256 A    
N34   O3    1.300519 A    
C90   H46   1.112468 S    
N26   Ni5   1.862898 S    
C31   N31   1.340410 A    
C77   C81   1.407618 A    
C11   N39   1.437902 S    
C115  H71   1.083566 S    
C91   C93   1.505701 S    
C95   H59   1.112051 S    
C109  C110  1.517578 S    
C30   C34   1.388320 A    
C7    H7    1.072666 S    
C88   C92   1.495982 S    
C94   H58   1.112053 S    
C29   C33   1.387258 A    
N27   Ni8   1.862898 S    
C14   C46   1.373521 A    
C93   H57   1.112046 S    
C65   C93   1.500439 S    
C80   H44   1.081125 S    
N17   Ni5   1.868040 S    
C13   C113  1.478003 S    
C19   C43   1.377978 A    
C3    H3    1.079117 S    
N15   N23   1.371503 A    
C18   C42   1.377977 A    
C7    C39   1.380097 A    
C94   H54   1.112282 S    
C44   C103  1.441364 S    
C115  O19   1.220455 D    
C49   H29   1.110365 S    
N20   Ni8   1.868041 S    
N1    Ni1   1.867779 S    
C51   C52   1.541671 S    
C26   N26   1.342203 A    
C23   C47   1.361496 A    
C65   C87   1.376606 A    
C100  C111  1.499109 S    
C25   N25   1.343282 A    
N38   O11   1.300792 A    
C9    N9    1.340308 A    
C3    C35   1.377676 A    
C54   H26   1.110514 S    
C77   H41   1.081124 S    
N34   O4    1.302511 A    
C4    H4    1.078987 S    
C2    C34   1.377676 A    
N35   O5    1.300515 A    
C73   H37   1.081861 S    
N12   N20   1.371265 A    
C16   N16   1.321186 A    
C116  O20   1.220836 D    
N1    N29   1.401998 A    
C70   C74   1.408281 A    
C109  N33   1.465042 S    
C64   H36   1.110197 S    
N31   Ni4   1.890798 S    
C68   C96   1.500440 S    
N3    N31   1.401998 A    
N6    Ni6   1.880770 S    
N12   Ni3   1.867041 S    
C23   N23   1.317817 A    
C98   C102  1.394753 A    
C1    C33   1.373590 A    
C24   N24   1.320939 A    
C97   C101  1.394882 A    
C79   H43   1.081269 S    
N19   Ni7   1.868041 S    
C107  C108  1.387747 A    
C4    N4    1.322997 A    
N21   Ni1   1.881719 S    
C47   C60   1.416844 S    
C31   C35   1.388321 A    
C96   H60   1.112046 S    
C60   C64   1.530118 S    
C26   C38   1.392110 A    
C45   C58   1.415960 S    
C12   C44   1.385078 A    
C63   C64   1.542999 S    
N10   N18   1.371265 A    
C51   H31   1.110563 S    
C89   H45   1.112421 S    
C99   C100  1.368870 A    
C8    N8    1.326705 A    
C58   C62   1.528896 S    
C14   N14   1.326183 A    
C113  H69   1.081820 S    
C99   C103  1.394759 A    
C2    H2    1.079117 S    
C21   N21   1.320938 A    
N33   O2    1.302569 A    
C53   C62   1.548509 S    
C17   N17   1.323844 A    
C108  H64   1.083269 S    
C114  O18   1.220455 D    
C92   H52   1.111848 S    
N16   Ni7   1.856541 S    
C51   C60   1.527366 S    
C81   C85   1.398902 A    
C40   C72   1.457546 S    
N5    N25   1.401997 A    
C76   C78   1.398757 A    
C72   C76   1.407961 A    
C8    C40   1.376260 A    
C93   H53   1.112298 S    
C49   C58   1.527093 S    
N4    N32   1.401997 A    
N38   O12   1.299774 A    
C11   N11   1.324101 A    
C32   H24   1.074235 S    
C76   H40   1.081861 S    
C35   C84   1.459319 S    
C12   N12   1.340313 A    
C39   C71   1.460802 S    
C24   C48   1.370603 A    
C110  H66   1.113445 S    
C21   C45   1.370604 A    
N40   O16   1.297549 A    
N4    Ni4   1.867780 S    
N32   Ni3   1.890799 S    
C109  H65   1.113235 S    
N8    N28   1.401996 A    
C83   C87   1.399088 A    
C22   N22   1.317819 A    
C105  C106  1.387753 A    
C103  C107  1.417530 A    
C48   C59   1.415958 S    
C16   C116  1.478002 S    
C24   H16   1.081224 S    
C51   C55   1.535893 S    
C5    C37   1.376260 A    
C28   H20   1.070513 S    
C32   C36   1.387259 A    
C15   N15   1.326182 A    
C111  C112  1.517585 S    
C89   C95   1.505432 S    
N7    N27   1.401997 A    
C116  H72   1.081820 S    
C54   C58   1.523138 S    
C111  H67   1.113444 S    
C100  C104  1.394882 A    
C102  C106  1.417529 A    
N33   O1    1.300723 A    
N37   O10   1.297551 A    
C106  H62   1.082024 S    
C18   H10   1.081044 S    
C55   C59   1.523139 S    
C99   C112  1.509184 S    
C105  H61   1.083269 S    
C8    H8    1.073538 S    
C89   H49   1.111848 S    
C15   C115  1.476100 S    
C112  N36   1.465044 S    
C1    N1    1.322996 A    
C12   N40   1.435273 S    
N39   O14   1.299771 A    
C28   C40   1.390028 A    
N9    N17   1.371267 A    
N14   Ni5   1.856541 S    
C37   C69   1.457545 S    
C73   C79   1.398758 A    
C67   C85   1.377862 A    
N13   Ni6   1.856540 S    
C50   C54   1.535895 S    
C54   C61   1.538629 S    
C110  N34   1.466208 S    
C10   C42   1.369137 A    
C49   C53   1.543841 S    
C9    C41   1.385082 A    
N15   Ni8   1.856540 S    
N35   O6    1.302512 A    
C27   C39   1.392112 A    
C18   N18   1.337135 A    
C82   C86   1.399088 A    
C75   H39   1.081583 S    
C113  O17   1.220834 D    
C34   C81   1.459318 S    
C96   H56   1.112297 S    
C61   C62   1.543000 S    
C22   H14   1.081519 S    
C50   C57   1.527367 S    
C17   C41   1.364790 A    
N9    Ni2   1.867045 S    
N2    Ni2   1.867780 S    
N30   Ni1   1.890799 S    
C27   N27   1.342203 A    
N36   O8    1.302574 A    
N6    N26   1.401996 A    
C14   C114  1.476099 S    
N23   Ni3   1.881719 S    
N29   Ni2   1.890798 S    
C2    N2    1.324012 A    
C75   C77   1.399759 A    
C67   C71   1.402428 A    
C1    H1    1.078987 S    
C68   C86   1.376608 A    
C53   C57   1.524223 S    
C114  H70   1.083567 S    
C78   C82   1.406998 A    
C66   C88   1.377862 A    
C49   C50   1.541671 S    
C74   C80   1.399761 A    
C84   C88   1.398901 A    
C10   N38   1.437903 S    
C92   H48   1.112422 S    
C65   C69   1.401258 A    
C104  C108  1.392738 A    
N2    N30   1.401997 A    
C101  C105  1.392742 A    
C57   C61   1.530117 S    
N40   O15   1.301675 A    
C56   C60   1.524223 S    
C91   H47   1.112468 S    
C59   C63   1.528896 S    
C22   C46   1.361495 A    
C112  H68   1.113237 S    
C92   C94   1.505431 S    
N11   N19   1.371265 A    
C30   H22   1.076812 S    
C21   H13   1.081224 S    
C20   N20   1.323841 A    
C62   H34   1.110210 S    
N13   N21   1.371503 A    
C10   N10   1.324105 A    
N22   Ni2   1.881718 S    
C86   C90   1.496698 S    
C53   H25   1.110136 S    
C28   N28   1.343280 A    
N7    Ni7   1.880769 S    
C63   H35   1.110209 S    
C90   C96   1.505702 S    
C15   C47   1.373523 A    
C55   C64   1.538633 S    
N16   N24   1.371503 A    
C5    H5    1.073539 S    
C16   C48   1.377826 A    
C56   C63   1.548505 S    
C69   C73   1.407961 A    
C6    N6    1.327751 A    
C13   C45   1.377825 A    
C52   H32   1.110364 S    
C66   C94   1.500781 S    
C9    N37   1.435281 S    
N36   O7    1.300728 A    
N10   Ni1   1.867041 S    
C17   H9    1.081555 S    
C5    N5    1.326704 A    
N3    Ni3   1.867779 S    
N25   Ni6   1.862898 S    
C20   C44   1.364782 A    
C36   C83   1.456603 S    
C19   N19   1.337134 A    
C26   H18   1.075063 S    
C52   C59   1.527092 S    
C87   C91   1.496699 S    
C29   N29   1.341855 A    
N28   Ni7   1.862898 S    
C25   H17   1.070514 S    
C7    N7    1.327750 A    
C25   C37   1.390029 A    
C111  N35   1.466207 S    
C79   C83   1.406999 A    
C6    H6    1.072665 S    
C27   H19   1.075063 S    
C80   C84   1.407618 A    
C97   C98   1.368863 A    
C11   C43   1.369136 A    
C13   N13   1.321187 A    
C33   C82   1.456604 S    
C3    N3    1.324013 A    
C56   H28   1.110137 S    
C78   H42   1.081268 S    
C91   H51   1.111829 S    
C31   H23   1.076812 S    
C52   C56   1.543842 S    
C55   H27   1.110511 S    
C95   H55   1.112284 S    
C32   N32   1.341853 A    
C29   H21   1.074237 S    
C74   H38   1.081581 S    
C67   C95   1.500782 S    
C50   H30   1.110563 S    
C85   C89   1.495982 S    
C4    C36   1.373591 A    
N37   O9    1.301674 A    
C98   C109  1.509180 S    
C19   H11   1.081042 S    
C6    C38   1.380097 A    
C90   H50   1.111828 S    
C97   C110  1.499115 S    
C20   H12   1.081555 S    
N24   Ni4   1.881718 S    
N5    Ni5   1.880769 S    
N14   N22   1.371503 A    
