data_mof_unit_27066.cif
_audit_creation_date              2012-10-26T18:27:33-0400
_audit_creation_method            fapswitch 2.2
_symmetry_space_group_name_H-M    P1
_symmetry_Int_Tables_number       1
_space_group_crystal_system       triclinic
_cell_length_a                    10.856441
_cell_length_b                    11.056411
_cell_length_c                    9.87368
_cell_angle_alpha                 111.682288
_cell_angle_beta                  99.869267
_cell_angle_gamma                 91.178595
_cell_volume                      1080.45229022

loop_
_atom_site_label
_atom_site_type_symbol
_atom_type_description
_atom_site_fract_x
_atom_site_fract_y
_atom_site_fract_z
_atom_type_partial_charge
C1    C     C_R   0.488923 0.253708 0.439619 0.580637
C2    C     C_2   0.495811 0.932921 0.489920 -0.121640
C3    C     C_2   0.512725 0.507189 0.081923 0.089246
C4    C     C_R   0.263317 0.510649 0.502288 0.550259
C5    C     C_2   0.492262 0.486671 0.917787 0.521917
C6    C     C_R   0.513736 0.746616 0.560642 0.539932
C7    C     C_R   0.738518 0.496142 0.501277 0.524584
C8    C     C_R   0.169657 0.653815 0.776737 -0.078897
C9    C     C_R   0.137925 0.673006 0.912993 -0.073209
C10   C     C_R   0.024012 0.616347 0.918689 0.012745
C11   C     C_R   0.936494 0.552872 0.785990 -0.093054
C12   C     C_R   0.088895 0.574846 0.642687 0.027699
C13   C     C_R   0.963860 0.541649 0.646006 0.019508
C14   C     C_3   0.642696 0.666264 0.959072 -0.177908
C15   C     C_3   0.573369 0.784875 0.035295 -0.275147
C16   C     C_3   0.665930 0.902063 0.135276 -0.449927
C17   C     C_3   0.998235 0.621108 0.066020 -0.259457
C18   C     C_3   0.984898 0.761322 0.168855 -0.306092
C19   C     C_3   0.951704 0.765653 0.314556 -0.444854
C20   C     C_3   0.612483 0.972785 0.748741 -0.277182
C21   C     C_3   0.530452 0.059858 0.850638 -0.269420
C22   C     C_3   0.611138 0.166959 0.985215 -0.404217
C23   C     C_R   0.130456 0.524052 0.506031 -0.010001
C24   C     C_R   0.043521 0.469277 0.372678 -0.160492
C25   C     C_R   0.916761 0.461091 0.373919 -0.168455
C26   C     C_R   0.874622 0.495987 0.508522 -0.004636
C27   C     C_2   0.474693 0.113905 0.405114 0.335637
C28   C     C_2   0.519636 0.069656 0.510639 -0.119515
C29   C     C_2   0.535751 0.887220 0.597210 -0.034824
Cu1   Cu    Cu3+1 0.521920 0.521810 0.644910 0.977762
Cu2   Cu    Cu3+1 0.478080 0.478190 0.355090 1.040529
F1    F     F_    0.409781 0.032401 0.269852 -0.667822
F2    F     F_    0.404971 0.389916 0.821469 -0.550434
F3    F     F_    0.347691 0.362966 0.046046 -0.499200
H1    H     H_    0.073389 0.431886 0.266699 0.160240
H2    H     H_    0.733822 0.922432 0.072476 0.128540
H3    H     H_    0.614809 0.989878 0.177199 0.203832
H4    H     H_    0.512518 0.810889 0.949671 0.188546
H5    H     H_    0.512110 0.762086 0.103532 0.163378
H6    H     H_    0.709452 0.641105 0.040835 0.083731
H7    H     H_    0.700574 0.692589 0.889968 0.178490
H8    H     H_    0.863009 0.703926 0.293128 0.152338
H9    H     H_    0.028593 0.730843 0.376589 0.169147
H10   H     H_    0.939057 0.867796 0.384312 0.151403
H11   H     H_    0.074274 0.823306 0.194705 0.186028
H12   H     H_    0.588297 0.576259 0.159447 0.033594
H13   H     H_    0.910432 0.802977 0.112184 0.162637
H14   H     H_    0.911450 0.558059 0.049230 0.122977
H15   H     H_    0.076955 0.581330 0.119613 0.175198
H16   H     H_    0.686727 0.125427 0.040521 0.131640
H17   H     H_    0.654356 0.239987 0.950442 0.140062
H18   H     H_    0.551836 0.216861 0.066439 0.223533
H19   H     H_    0.464287 0.106798 0.790596 0.224246
H20   H     H_    0.473449 0.998893 0.889047 0.180465
H21   H     H_    0.660521 0.911398 0.804982 0.153413
H22   H     H_    0.689649 0.031997 0.734610 0.137426
H23   H     H_    0.258735 0.700147 0.777819 0.132118
H24   H     H_    0.205053 0.726971 0.013884 0.132741
H25   H     H_    0.852524 0.505543 0.795212 0.139359
H26   H     H_    0.851627 0.423784 0.268334 0.129324
H27   H     H_    0.442769 0.867068 0.382983 0.191478
H28   H     H_    0.572643 0.137885 0.615641 0.116050
H29   H     H_    0.717461 0.883125 0.231655 0.151852
N1    N     N_2   0.445130 0.445430 0.137370 0.032737
N2    N     N_2   0.554930 0.554500 0.862630 -0.260734
O1    O     O_R   0.511700 0.332330 0.577400 -0.482079
O2    O     O_R   0.474680 0.295500 0.332650 -0.454158
O3    O     O_R   0.338160 0.518420 0.622400 -0.451424
O4    O     O_R   0.301140 0.481590 0.377650 -0.470688
O5    O     O_R   0.525320 0.704500 0.667350 -0.526066
O6    O     O_R   0.488300 0.667670 0.422600 -0.529746
O7    O     O_R   0.698860 0.518410 0.622350 -0.535980
O8    O     O_R   0.661840 0.481580 0.377600 -0.539721

loop_
_geom_bond_atom_site_label_1
_geom_bond_atom_site_label_2
_ccdc_geom_bond_type
Cu1   O7    S    
C23   C24   A    
C19   H8    S    
C15   H4    S    
C6    O5    A    
C25   H26   S    
C8    H23   S    
C21   H19   S    
C9    C10   A    
C3    H12   S    
C7    O7    A    
C17   H14   S    
C8    C12   A    
C16   H3    S    
C20   H22   S    
C18   H13   S    
F3    N1    S    
C17   C18   S    
C25   C26   A    
C24   C25   A    
C7    O8    A    
C21   C22   S    
C19   H10   S    
Cu2   O2    S    
C12   C13   A    
C11   C13   A    
C12   C23   A    
C15   H5    S    
Cu1   O1    S    
C7    C26   S    
C2    C29   D    
C11   H25   S    
C28   H28   S    
Cu2   O6    S    
C4    O4    A    
C1    O2    A    
C14   N2    S    
C19   H9    S    
C9    H24   S    
C22   H18   S    
C20   C29   S    
C14   H7    S    
C3    N1    D    
C21   H20   S    
Cu1   O3    S    
C13   C26   A    
Cu2   O8    S    
C24   H1    S    
C20   H21   S    
C10   C11   A    
C10   C17   S    
C14   H6    S    
C15   C16   S    
Cu1   N2    S    
C18   H11   S    
C22   H16   S    
Cu2   O4    S    
C6    C29   S    
C20   C21   S    
C5    N2    D    
C18   C19   S    
C17   H15   S    
C27   C28   D    
C1    C27   S    
C4    C23   S    
Cu1   Cu2   S    
C22   H17   S    
C16   H29   S    
C2    C28   S    
C6    O6    A    
Cu1   O5    S    
C27   F1    S    
C14   C15   S    
C4    O3    A    
Cu2   N1    S    
C16   H2    S    
C5    F2    S    
C8    C9    A    
C3    C5    S    
C2    H27   S    
C1    O1    A    
