data_mof_unit_46099.cif
_audit_creation_date              2012-12-10T17:51:27-0500
_audit_creation_method            fapswitch 2.2
_symmetry_space_group_name_H-M    P1
_symmetry_Int_Tables_number       1
_space_group_crystal_system       triclinic
_cell_length_a                    9.942358
_cell_length_b                    10.683549
_cell_length_c                    16.564677
_cell_angle_alpha                 92.118737
_cell_angle_beta                  84.997468
_cell_angle_gamma                 89.321325
_cell_volume                      1751.39336362

loop_
_atom_site_label
_atom_site_type_symbol
_atom_type_description
_atom_site_fract_x
_atom_site_fract_y
_atom_site_fract_z
_atom_type_partial_charge
C1    C     C_R   0.500401 0.738641 0.491795 0.958848
C2    C     C_R   0.374308 0.515746 0.792202 -0.248520
C3    C     C_R   0.420762 0.468745 0.135062 -0.187123
C4    C     C_R   0.420514 0.506841 0.215761 -0.198486
C5    C     C_R   0.643006 0.412850 0.220001 -0.226745
C6    C     C_R   0.643404 0.373234 0.138917 0.296248
C7    C     C_R   0.529887 0.398058 0.096658 0.102597
C8    C     C_2   0.415014 0.338908 0.976188 -0.139017
C9    C     C_2   0.529687 0.360964 0.010734 -0.126804
C10   C     C_R   0.530258 0.476974 0.258995 -0.069042
C11   C     C_R   0.305422 0.868864 0.394150 -0.139600
C12   C     C_R   0.481013 0.494087 0.653004 1.013646
C13   C     C_R   0.211589 0.934683 0.353775 -0.111636
C14   C     C_R   0.217357 0.064260 0.351234 -0.103452
C15   C     C_R   0.316386 0.128722 0.389562 -0.137443
C16   C     C_R   0.408805 0.064599 0.434564 0.066454
C17   C     C_R   0.404089 0.932757 0.436022 0.112404
C18   C     C_R   0.503975 0.869833 0.475704 -0.179400
C19   C     C_R   0.618003 0.932415 0.497300 -0.189463
C20   C     C_R   0.623782 0.059244 0.497031 0.302555
C21   C     C_R   0.511059 0.127125 0.474732 -0.208459
C22   C     C_R   0.843405 0.585901 0.641892 0.320154
C23   C     C_R   0.502626 0.260078 0.492717 0.930844
C24   C     C_R   0.901703 0.573215 0.714716 -0.290679
C25   C     C_R   0.040985 0.573667 0.713757 -0.244658
C26   C     C_R   0.116742 0.587514 0.639947 0.324221
C27   C     C_R   0.062033 0.545427 0.567874 0.079931
C28   C     C_R   0.917940 0.545422 0.568185 0.060223
C29   C     C_R   0.938634 0.457627 0.434720 -0.059219
C30   C     C_R   0.081421 0.457569 0.434756 -0.103601
C31   C     C_R   0.519019 0.497903 0.346457 0.822081
C32   C     C_R   0.467284 0.453997 0.735996 -0.185730
C33   C     C_R   0.532964 0.343002 0.755977 0.420658
C34   C     C_R   0.502587 0.294109 0.832817 0.219634
C35   C     C_R   0.415045 0.361509 0.890204 0.035356
C36   C     C_R   0.348851 0.470156 0.869181 -0.191215
H1    H     H_    0.703590 0.883160 0.517586 0.235376
H2    H     H_    0.302555 0.768112 0.388207 0.156440
H3    H     H_    0.136953 0.884525 0.321968 0.145390
H4    H     H_    0.147369 0.114800 0.317358 0.147351
H5    H     H_    0.322986 0.227822 0.379639 0.151074
H6    H     H_    0.893534 0.421920 0.381577 0.140960
H7    H     H_    0.842743 0.593778 0.771908 0.203511
H8    H     H_    0.333420 0.557841 0.244787 0.156145
H9    H     H_    0.084210 0.595855 0.770199 0.189181
H10   H     H_    0.142740 0.421794 0.381585 0.136198
H11   H     H_    0.728051 0.388512 0.253312 0.174115
H12   H     H_    0.624163 0.367788 0.972886 0.194188
H13   H     H_    0.282771 0.523237 0.913799 0.169658
H14   H     H_    0.335541 0.495835 0.102828 0.149250
H15   H     H_    0.324120 0.600937 0.777052 0.201251
H16   H     H_    0.318666 0.335307 0.012267 0.163878
N1    N     N_R   0.857140 0.501200 0.500750 -0.104760
N2    N     N_R   0.142740 0.501280 0.500770 -0.110011
O1    O     O_R   0.385310 0.683220 0.500000 -0.586681
O2    O     O_R   0.614640 0.683250 0.500010 -0.595984
O3    O     O_R   0.371780 0.500010 0.615800 -0.606405
O4    O     O_R   0.601110 0.500030 0.615800 -0.581168
O5    O     O_R   0.385360 0.316750 0.499990 -0.621935
O6    O     O_R   0.614690 0.316780 0.500000 -0.560956
O7    O     O_R   0.398890 0.499970 0.384200 -0.650482
O8    O     O_R   0.628220 0.499990 0.384200 -0.630221
Zn1   Zn    Zn3+2 0.346870 0.499980 0.499990 0.976748
Zn2   Zn    Zn3+2 0.653130 0.500020 0.500010 1.008400
O9    O     O_3   0.617841 0.278002 0.697843 -0.579891
C37   C     C_3   0.753435 0.287234 0.717113 -0.086656
H17   H     H_    0.792674 0.192456 0.728498 0.229754
H18   H     H_    0.769731 0.350447 0.770466 0.102371
H19   H     H_    0.815195 0.322238 0.663963 0.187446
Br1   Br    Br    0.797800 0.280255 0.090012 -0.505430
Br2   Br    Br    0.791408 0.125560 0.530244 -0.459466
Br3   Br    Br    0.729643 0.732566 0.649891 -0.431250
Br4   Br    Br    0.216465 0.739782 0.642399 -0.432999
Br5   Br    Br    0.576650 0.134414 0.858649 -0.399952

loop_
_geom_bond_atom_site_label_1
_geom_bond_atom_site_label_2
_ccdc_geom_bond_type
C11   H2    S    
C37   H18   S    
C28   N1    A    
O2    Zn2   S    
C20   Br2   S    
C7    C9    S    
C29   C30   A    
C29   H6    S    
C5    H11   S    
C8    H16   S    
O5    Zn1   S    
C35   C36   A    
O6    Zn2   S    
C12   O4    A    
C32   C33   A    
C19   C20   A    
C17   C18   A    
C1    C18   S    
C27   N2    A    
C33   O9    S    
C5    C10   A    
O9    C37   S    
C22   C28   A    
C13   C14   A    
C12   C32   S    
C23   O5    A    
C30   N2    A    
C31   O8    A    
C26   C27   A    
C16   C21   A    
C29   N1    A    
C34   Br5   S    
C5    C6    A    
C12   O3    A    
C2    C32   A    
C22   Br3   S    
C1    O2    A    
C33   C34   A    
O3    Zn1   S    
C6    C7    A    
C3    C7    A    
C24   C25   A    
C21   C23   S    
O4    Zn2   S    
C23   O6    A    
C34   C35   A    
N1    Zn2   S    
C22   C24   A    
C1    O1    A    
C13   H3    S    
C37   H19   S    
C19   H1    S    
N2    Zn1   S    
C4    C10   A    
C15   C16   A    
C25   H9    S    
C3    H14   S    
C11   C13   A    
C26   Br4   S    
C37   H17   S    
C20   C21   A    
C15   H5    S    
C9    H12   S    
C6    Br1   S    
C18   C19   A    
C2    H15   S    
C2    C36   A    
C27   C28   A    
O7    Zn1   S    
C24   H7    S    
C31   O7    A    
C14   C15   A    
C11   C17   A    
O8    Zn2   S    
C4    H8    S    
C25   C26   A    
C14   H4    S    
C10   C31   S    
C30   H10   S    
C36   H13   S    
C3    C4    A    
C16   C17   A    
C8    C9    D    
C8    C35   S    
O1    Zn1   S    
