data_mof_unit_64296.cif
_audit_creation_date              2012-12-10T18:16:57-0500
_audit_creation_method            fapswitch 2.2
_symmetry_space_group_name_H-M    P1
_symmetry_Int_Tables_number       1
_space_group_crystal_system       triclinic
_cell_length_a                    15.897253
_cell_length_b                    15.92435
_cell_length_c                    14.682102
_cell_angle_alpha                 90.255914
_cell_angle_beta                  90.358481
_cell_angle_gamma                 90.013148
_cell_volume                      3716.7143992

loop_
_atom_site_label
_atom_site_type_symbol
_atom_type_description
_atom_site_fract_x
_atom_site_fract_y
_atom_site_fract_z
_atom_type_partial_charge
C1    C     C_R   0.500046 0.339926 0.499832 0.805420
C2    C     C_3   0.083155 0.501181 0.500047 -0.206499
C3    C     C_3   0.972415 0.569955 0.542325 0.361571
C4    C     C_3   0.916831 0.500354 0.501210 -0.205366
C5    C     C_3   0.027163 0.568635 0.456093 0.240247
C6    C     C_3   0.971202 0.499003 0.415241 0.555731
C7    C     C_1   0.174606 0.500684 0.499348 0.186197
C8    C     C_1   0.825378 0.500146 0.501139 0.195599
C9    C     C_3   0.555501 0.050068 0.587852 0.521911
C10   C     C_3   0.543929 0.048690 0.408758 0.514595
C11   C     C_3   0.556193 0.950792 0.416924 0.784481
C12   C     C_R   0.339494 0.500038 0.499698 0.808938
C13   C     C_1   0.501383 0.749368 0.500685 -0.003619
C14   C     C_3   0.505700 0.083105 0.501015 -0.272282
C15   C     C_3   0.548225 0.949978 0.592520 0.503171
C16   C     C_3   0.505329 0.916911 0.501424 -0.326388
C17   C     C_3   0.413006 0.952086 0.499174 0.129845
C18   C     C_3   0.413918 0.049090 0.507905 -0.477383
C19   C     C_1   0.503003 0.824641 0.501006 0.233281
C20   C     C_1   0.503070 0.175347 0.499969 0.216991
C21   C     C_1   0.501359 0.250617 0.499548 -0.029325
C22   C     C_3   0.525812 0.589677 0.056253 0.673562
C23   C     C_R   0.500080 0.660069 0.500186 0.814811
C24   C     C_3   0.413050 0.478567 0.051779 0.429270
C25   C     C_3   0.413066 0.481430 0.945495 0.393977
C26   C     C_3   0.501563 0.500087 0.092104 -0.418774
C27   C     C_3   0.532474 0.589385 0.947713 0.512404
C28   C     C_3   0.502570 0.501853 0.907952 -0.404941
C29   C     C_3   0.563163 0.432344 0.945941 0.060313
C30   C     C_3   0.566789 0.435546 0.053354 0.184258
C31   C     C_1   0.502066 0.501605 0.804723 0.460836
C32   C     C_1   0.499260 0.499032 0.195289 0.482792
C33   C     C_R   0.660501 0.500007 0.500309 0.820169
C34   C     C_3   0.972523 0.432192 0.545617 -0.292943
C35   C     C_3   0.027456 0.431853 0.459080 0.622691
C36   C     C_1   0.249987 0.500339 0.499194 -0.070250
C37   C     C_1   0.750000 0.500059 0.500913 -0.057779
C38   C     C_3   0.029214 0.502595 0.587229 -0.254731
Cu1   Cu    Cu3+1 0.499890 0.499910 0.589920 1.106339
Cu2   Cu    Cu3+1 0.500110 0.500090 0.410080 1.126215
H1    H     H_    0.385722 0.067405 0.574163 0.244421
H2    H     H_    0.372051 0.078131 0.455986 0.286287
H3    H     H_    0.376903 0.926675 0.557396 0.219861
H4    H     H_    0.949409 0.375715 0.581770 0.239505
H5    H     H_    0.366131 0.524385 0.077928 0.210225
H6    H     H_    0.391975 0.419534 0.918553 0.215252
H7    H     H_    0.630786 0.457421 0.073083 0.159922
H8    H     H_    0.627740 0.443962 0.920425 0.193300
H9    H     H_    0.053931 0.504742 0.658082 0.241139
N1    N     N_1   0.501700 0.501390 0.724970 -0.130172
N2    N     N_1   0.498280 0.498620 0.275030 -0.127763
O1    O     O_R   0.499910 0.379360 0.575970 -0.560650
O2    O     O_R   0.500090 0.379510 0.424100 -0.550173
O3    O     O_R   0.378990 0.499920 0.575920 -0.565762
O4    O     O_R   0.379170 0.500070 0.424050 -0.556464
O5    O     O_R   0.499910 0.620490 0.575900 -0.551321
O6    O     O_R   0.500090 0.620640 0.424030 -0.547358
O7    O     O_R   0.620830 0.499930 0.575950 -0.562357
O8    O     O_R   0.621010 0.500080 0.424080 -0.553972
F1    F     F_    0.056792 0.360739 0.415268 -0.542755
Cl1   Cl    Cl    0.641473 0.098836 0.378628 -0.277810
F2    F     F_    0.640810 0.933769 0.430226 -0.529883
Cl2   Cl    Cl    0.531787 0.895205 0.312559 -0.250810
Cl3   Cl    Cl    0.515320 0.100442 0.689390 -0.356654
Cl4   Cl    Cl    0.487926 0.914677 0.689370 -0.373276
Cl5   Cl    Cl    0.352146 0.918825 0.402129 -0.358820
Cl6   Cl    Cl    0.470987 0.673852 0.900429 -0.221876
F3    F     F_    0.463411 0.645244 0.083454 -0.542812
F4    F     F_    0.386913 0.400035 0.080541 -0.550804
F5    F     F_    0.354173 0.539180 0.915166 -0.573346
Cl7   Cl    Cl    0.558439 0.334220 0.106717 -0.270392
Cl8   Cl    Cl    0.620157 0.627098 0.112180 -0.357739
Cl9   Cl    Cl    0.637554 0.611276 0.908234 -0.414021
F6    F     F_    0.940828 0.496538 0.326824 -0.524130
Cl10  Cl    Cl    0.537240 0.330277 0.899925 -0.353042
Cl11  Cl    Cl    0.063564 0.658559 0.396331 -0.313798
Cl12  Cl    Cl    0.934812 0.661942 0.598217 -0.342887
Cl13  Cl    Cl    0.648302 0.899241 0.613148 -0.247968
Cl14  Cl    Cl    0.663001 0.085960 0.587031 -0.299038
Cl15  Cl    Cl    0.476029 0.077185 0.314466 -0.327398

loop_
_geom_bond_atom_site_label_1
_geom_bond_atom_site_label_2
_ccdc_geom_bond_type
C2    C35   S    
C1    C21   S    
C33   O7    A    
C9    Cl3   S    
C7    C36   T    
C14   C18   S    
C2    C7    S    
C4    C8    S    
C11   F2    S    
C30   Cl7   S    
C23   O5    A    
C38   H9    S    
C25   C28   S    
C26   C32   S    
C17   Cl5   S    
C24   H5    S    
C28   C29   S    
C24   C26   S    
C11   Cl2   S    
C18   H2    S    
C5    C6    S    
C15   Cl13  S    
C15   C16   S    
C15   Cl4   S    
C6    C35   S    
C13   C23   S    
C34   C35   S    
C9    Cl14  S    
C1    O2    A    
C3    C38   S    
C16   C17   S    
C12   C36   S    
Cu1   O3    S    
Cu1   O1    S    
C33   O8    A    
Cu2   O8    S    
C22   Cl8   S    
C24   F4    S    
C6    F6    S    
C4    C34   S    
C13   C19   T    
C29   H8    S    
C14   C20   S    
C30   H7    S    
C34   H4    S    
C24   C25   S    
C4    C6    S    
C10   C14   S    
C18   H1    S    
Cu1   Cu2   S    
C10   Cl15  S    
Cu1   O7    S    
C33   C37   S    
C35   F1    S    
C9    C14   S    
C17   H3    S    
C32   N2    T    
C29   C30   S    
C11   C16   S    
C2    C38   S    
Cu1   O5    S    
Cu2   O4    S    
C17   C18   S    
C22   F3    S    
C26   C30   S    
C22   C27   S    
C2    C5    S    
C8    C37   T    
C31   N1    T    
C3    C4    S    
C3    Cl12  S    
C23   O6    A    
Cu2   O6    S    
C34   C38   S    
C28   C31   S    
C3    C5    S    
C29   Cl10  S    
Cu2   N2    S    
C5    Cl11  S    
C9    C15   S    
C16   C19   S    
C1    O1    A    
C12   O4    A    
C27   Cl6   S    
C10   C11   S    
C10   Cl1   S    
Cu1   N1    S    
C20   C21   T    
Cu2   O2    S    
C22   C26   S    
C27   C28   S    
C25   F5    S    
C27   Cl9   S    
C25   H6    S    
C12   O3    A    
