data_mof_unit_35086.cif
_audit_creation_date              2013-03-05T15:54:52-0500
_audit_creation_method            fapswitch 2.2
_symmetry_space_group_name_H-M    P1
_symmetry_Int_Tables_number       1
_space_group_crystal_system       triclinic
_cell_length_a                    12.505473
_cell_length_b                    13.393638
_cell_length_c                    14.531082
_cell_angle_alpha                 96.252475
_cell_angle_beta                  108.43733
_cell_angle_gamma                 117.1215
_cell_volume                      1960.55859611

loop_
_atom_site_label
_atom_site_type_symbol
_atom_site_description
_atom_site_fract_x
_atom_site_fract_y
_atom_site_fract_z
_atom_type_partial_charge
O1    O     O_R   0.545970 0.684450 0.528810 -0.614239
O2    O     O_R   0.687130 0.639470 0.490120 -0.552707
C1    C     C_R   0.646500 0.712162 0.503664 0.792901
O3    O     O_R   0.519670 0.535100 0.660030 -0.567615
O4    O     O_R   0.660830 0.490120 0.621340 -0.523585
C2    C     C_R   0.614525 0.511330 0.686104 0.874921
Cu1   Cu    Cu3+1 0.416420 0.526630 0.522910 1.069334
Cu2   Cu    Cu3+1 0.583580 0.473370 0.477090 1.090864
O5    O     O_R   0.312870 0.360530 0.509880 -0.523204
O6    O     O_R   0.454030 0.315550 0.471190 -0.499413
O7    O     O_R   0.339170 0.509880 0.378660 -0.525201
O8    O     O_R   0.480330 0.464900 0.339970 -0.588819
C3    C     C_R   0.345401 0.284178 0.486773 0.900800
C4    C     C_R   0.384355 0.486161 0.313632 0.814122
C5    C     C_R   0.683375 0.520782 0.794549 -0.201438
C6    C     C_R   0.315305 0.472247 0.205039 -0.095036
C7    C     C_R   0.798997 0.653656 0.965076 -0.177916
C8    C     C_R   0.683599 0.590879 0.874838 0.239762
C9    C     C_R   0.770129 0.477442 0.820156 0.281618
C10   C     C_R   0.865987 0.518659 0.921685 -0.059957
C11   C     C_R   0.896197 0.623787 0.985618 -0.069425
C12   C     C_R   0.938194 0.464319 0.959469 0.089719
C13   C     C_R   0.054834 0.527169 0.050958 0.011947
C14   C     C_R   0.096364 0.642487 0.102570 -0.156438
C15   C     C_R   0.019335 0.692487 0.070294 0.382925
C16   C     C_R   0.895200 0.347292 0.910757 -0.067050
C17   C     C_R   0.981180 0.306273 0.933109 -0.170790
C18   C     C_R   0.102443 0.372802 0.016490 0.124019
C19   C     C_R   0.131959 0.475721 0.083240 0.122691
C20   C     C_R   0.195606 0.338979 0.034116 -0.144209
C21   C     C_R   0.310761 0.398051 0.124273 0.117958
C22   C     C_R   0.233973 0.519436 0.180785 -0.183591
H1    H     H_    0.245963 0.584717 0.240224 0.200304
H2    H     H_    0.951586 0.221394 0.886715 0.152741
H3    H     H_    0.807915 0.718867 0.022772 0.220706
H4    H     H_    0.191788 0.696653 0.165765 0.198101
H5    H     H_    0.797025 0.287705 0.852379 0.196202
H6    H     H_    0.181593 0.271083 0.975424 0.155575
C23   C     C_R   0.190791 0.953202 0.457853 0.334446
C24   C     C_R   0.251074 0.158738 0.476228 -0.307922
C25   C     C_R   0.710130 0.921876 0.541446 -0.154220
C26   C     C_R   0.807057 0.039056 0.566946 -0.111213
C27   C     C_R   0.916994 0.068410 0.546242 -0.085085
C28   C     C_R   0.923974 0.982479 0.487321 0.145041
C29   C     C_R   0.824357 0.863254 0.460465 0.076609
C30   C     C_R   0.035096 0.010603 0.464545 -0.114733
C31   C     C_R   0.059214 0.921044 0.437962 -0.139895
C32   C     C_R   0.950422 0.803842 0.394833 0.416639
C33   C     C_R   0.831530 0.778576 0.400546 -0.211182
C34   C     C_R   0.120017 0.123912 0.463601 0.267345
C35   C     C_R   0.288539 0.073546 0.485341 0.229479
C36   C     C_R   0.723975 0.832484 0.497375 -0.078254
H7    H     H_    0.629656 0.901860 0.563265 0.176558
H8    H     H_    0.999200 0.157121 0.582718 0.190298
H9    H     H_    0.801330 0.106885 0.609196 0.190436
H10   H     H_    0.746893 0.690901 0.361110 0.168658
C37   C     C_R   0.252729 0.638440 0.694608 0.287622
H11   H     H_    0.076273 0.654973 0.745006 0.227217
N1    N     N_R   0.290690 0.566960 0.557640 -0.263812
C38   C     C_R   0.650237 0.337040 0.358870 0.373759
C39   C     C_R   0.728303 0.312466 0.320840 0.181781
C40   C     C_R   0.861543 0.366074 0.380600 -0.128725
C41   C     C_R   0.925412 0.457621 0.470557 -0.007186
C42   C     C_R   0.846062 0.491636 0.502739 0.142039
C43   C     C_R   0.065790 0.514228 0.530609 -0.073989
C44   C     C_R   0.116511 0.577898 0.633109 -0.101180
C45   C     C_R   0.035141 0.598436 0.668518 -0.076985
C46   C     C_R   0.912962 0.575605 0.601802 0.389262
C47   C     C_R   0.158678 0.512758 0.493059 0.545483
C48   C     C_R   0.339084 0.646589 0.649596 0.174350
N2    N     N_R   0.709100 0.433710 0.442970 -0.265307
H12   H     H_    0.910950 0.327154 0.358891 0.260348
N3    N     N_R   0.073677 0.815954 0.116777 0.154110
O9    O     O_R   0.179252 0.873813 0.201722 -0.244009
O10   O     O_R   0.034844 0.876015 0.065601 -0.316295
N4    N     N_R   0.423572 0.108315 0.538488 0.173296
O11   O     O_R   0.457304 0.080149 0.621428 -0.310725
O12   O     O_R   0.501956 0.137526 0.492501 -0.232854
N5    N     N_R   0.955043 0.711032 0.340052 0.149572
O13   O     O_R   0.879436 0.602752 0.335162 -0.390329
O14   O     O_R   0.017615 0.731299 0.281636 -0.309972
N6    N     N_R   0.230166 0.867794 0.465996 0.185428
O15   O     O_R   0.191427 0.794899 0.517099 -0.345796
O16   O     O_R   0.314031 0.869471 0.430342 -0.266205
N7    N     N_R   0.061772 0.190302 0.426563 0.153586
O17   O     O_R   0.076483 0.276994 0.489573 -0.401900
O18   O     O_R   0.968334 0.145532 0.335244 -0.270573
C49   C     C_3   0.458365 0.768657 0.677592 -0.349483
C50   C     C_3   0.580756 0.797483 0.769867 -0.286974
C51   C     C_3   0.692084 0.925107 0.800378 -0.775660
H13   H     H_    0.729409 0.940714 0.740534 0.242318
H14   H     H_    0.657654 0.986210 0.814017 0.280327
H15   H     H_    0.775055 0.944198 0.871555 0.273064
H16   H     H_    0.554413 0.784925 0.835182 0.301698
H17   H     H_    0.617763 0.739854 0.753556 0.245548
H18   H     H_    0.479982 0.783018 0.611261 0.226078
H19   H     H_    0.431475 0.835163 0.693341 0.246040
N8    N     N_R   0.304921 0.705270 0.798643 0.110053
O19   O     O_R   0.304969 0.652061 0.868350 -0.279437
O20   O     O_R   0.330708 0.812833 0.821024 -0.312516
N9    N     N_R   0.121739 0.481695 0.385594 0.106121
O21   O     O_R   0.089912 0.544814 0.333989 -0.303924
O22   O     O_R   0.101999 0.383076 0.336986 -0.298148
N10   N     N_R   0.515243 0.241424 0.324937 0.170004
O23   O     O_R   0.490858 0.134112 0.310134 -0.222456
O24   O     O_R   0.415300 0.254504 0.287481 -0.336340
N11   N     N_R   0.669960 0.225686 0.224054 0.167800
O25   O     O_R   0.564331 0.208053 0.151395 -0.305887
O26   O     O_R   0.729132 0.173066 0.204135 -0.252100
N12   N     N_R   0.889566 0.667311 0.627863 0.136202
O27   O     O_R   0.943499 0.758217 0.597556 -0.352872
O28   O     O_R   0.882175 0.688037 0.714567 -0.381628
C52   C     C_3   0.429701 0.394040 0.123578 -0.351235
C53   C     C_3   0.533907 0.512410 0.122928 -0.383004
C54   C     C_3   0.647222 0.505112 0.110797 -0.645986
H20   H     H_    0.682515 0.462854 0.164566 0.282117
H21   H     H_    0.614378 0.453034 0.031992 0.255205
H22   H     H_    0.730431 0.594976 0.126939 0.255965
H23   H     H_    0.488481 0.539303 0.059318 0.291875
H24   H     H_    0.573388 0.580398 0.195333 0.214984
H25   H     H_    0.475857 0.371669 0.188700 0.264008
H26   H     H_    0.399968 0.325080 0.054909 0.230618
N13   N     N_R   0.566886 0.591181 0.869981 0.108375
O29   O     O_R   0.574945 0.663635 0.942910 -0.363820
O30   O     O_R   0.450884 0.500810 0.810637 -0.327479
N14   N     N_R   0.767856 0.400329 0.741811 0.107885
O31   O     O_R   0.876500 0.418446 0.735870 -0.383578
O32   O     O_R   0.657222 0.306312 0.680689 -0.305358

loop_
_geom_bond_atom_site_label_1
_geom_bond_atom_site_label_2
_geom_bond_distance
_ccdc_geom_bond_type
C5    C8    1.414053 A    
C23   C35   1.416434 A    
C49   H18   1.094029 S    
N14   O31   1.300160 A    
N3    O10   1.301541 A    
N3    O9    1.302014 A    
C9    C10   1.420882 A    
C37   C44   1.406327 A    
C48   C49   1.520292 S    
C41   C43   1.446187 A    
C53   C54   1.526181 S    
Cu1   Cu2   2.731033 S    
N7    O17   1.299036 A    
C6    C21   1.421419 A    
Cu1   O7    1.948430 S    
C16   C17   1.385639 A    
C14   H4    1.079819 S    
C42   C46   1.436876 A    
C32   N5    1.435706 S    
C18   C19   1.412664 A    
N4    O12   1.296937 A    
C19   C22   1.404926 A    
C20   C21   1.399328 A    
O7    C4    1.322535 A    
C24   C34   1.425289 A    
N13   O30   1.301367 A    
C54   H20   1.109747 S    
C20   H6    1.084567 S    
C25   C26   1.387247 A    
C42   N2    1.410869 A    
Cu1   N1    2.058040 S    
C50   H16   1.104368 S    
O5    C3    1.309556 A    
N12   O27   1.298941 A    
C3    C24   1.503423 S    
C34   N7    1.434467 S    
C2    C5    1.496503 S    
C52   H26   1.112862 S    
C54   H21   1.110780 S    
N11   O25   1.301723 A    
C37   C48   1.400283 A    
C25   C36   1.402033 A    
C49   H19   1.111887 S    
C8    N13   1.440689 S    
C44   C45   1.389754 A    
N9    O22   1.301429 A    
N11   O26   1.301756 A    
O3    Cu1   1.959590 S    
N10   O24   1.295810 A    
N10   O23   1.302545 A    
C28   C30   1.422433 A    
N7    O18   1.301087 A    
C17   H2    1.084201 S    
C45   C46   1.392970 A    
N9    O21   1.300574 A    
N13   O29   1.301605 A    
C14   C15   1.402561 A    
O3    C2    1.318445 A    
N5    O14   1.297370 A    
N1    C48   1.370689 A    
C29   C36   1.426771 A    
C7    C11   1.402336 A    
N5    O13   1.298898 A    
C38   C39   1.400489 A    
O1    C1    1.321520 A    
C50   H17   1.105146 S    
C5    C9    1.420683 A    
C27   C28   1.410515 A    
C40   C41   1.395581 A    
C26   H9    1.083071 S    
C27   H8    1.074242 S    
C51   H14   1.111013 S    
C31   C32   1.416704 A    
C29   C33   1.406956 A    
Cu2   O8    1.959590 S    
C54   H22   1.108450 S    
C10   C11   1.412964 A    
C7    C8    1.401974 A    
C40   H12   1.064947 S    
C46   N12   1.426225 S    
N4    O11   1.302047 A    
C25   H7    1.076802 S    
N1    C47   1.382754 A    
C32   C33   1.399087 A    
C10   C12   1.420983 A    
N8    O19   1.300438 A    
N6    O16   1.301376 A    
C4    C6    1.482471 S    
C26   C27   1.389164 A    
C33   H10   1.078953 S    
C13   C19   1.419609 A    
C17   C18   1.390056 A    
C28   C29   1.413202 A    
C51   H15   1.110592 S    
C23   C31   1.415059 A    
C52   C53   1.529412 S    
Cu1   O5    1.946400 S    
C11   C15   1.412409 A    
C30   C31   1.407703 A    
Cu2   N2    2.046223 S    
N14   O32   1.295891 A    
O1    Cu1   1.962258 S    
O2    Cu2   1.946401 S    
C53   H23   1.110762 S    
C23   N6    1.439185 S    
O8    C4    1.308772 A    
O6    C3    1.329703 A    
O4    Cu2   1.948430 S    
C1    C36   1.486148 S    
C16   H5    1.079011 S    
C47   N9    1.432490 S    
C6    C22   1.402167 A    
C24   C35   1.421310 A    
C30   C34   1.405505 A    
C9    N14   1.435335 S    
N8    O20   1.301263 A    
C38   N2    1.388907 A    
C22   H1    1.080290 S    
C18   C20   1.394950 A    
O2    C1    1.310491 A    
C51   H13   1.106858 S    
O4    C2    1.318381 A    
C43   C47   1.437654 A    
C37   N8    1.435629 S    
C15   N3    1.447205 S    
C43   C44   1.407328 A    
C39   C40   1.379893 A    
C39   N11   1.443246 S    
N12   O28   1.301458 A    
C13   C14   1.409857 A    
C41   C42   1.438831 A    
H11   C45   1.083164 S    
C52   H25   1.091954 S    
C49   C50   1.529665 S    
Cu2   O6    1.962257 S    
N6    O15   1.301367 A    
C12   C16   1.412839 A    
C35   N4    1.429897 S    
C12   C13   1.419068 A    
C7    H3    1.082000 S    
C50   C51   1.526895 S    
C38   N10   1.448400 S    
C21   C52   1.515781 S    
C53   H24   1.110295 S    
