data_mof_unit_48162.cif
_audit_creation_date              2012-12-10T19:10:31-0500
_audit_creation_method            fapswitch 2.2
_symmetry_space_group_name_H-M    P1
_symmetry_Int_Tables_number       1
_space_group_crystal_system       triclinic
_cell_length_a                    10.651599
_cell_length_b                    9.763677
_cell_length_c                    15.739974
_cell_angle_alpha                 91.605051
_cell_angle_beta                  91.332181
_cell_angle_gamma                 88.967188
_cell_volume                      1635.60620435

loop_
_atom_site_label
_atom_site_type_symbol
_atom_type_description
_atom_site_fract_x
_atom_site_fract_y
_atom_site_fract_z
_atom_type_partial_charge
C1    C     C_R   0.257889 0.501358 0.499107 0.919715
C2    C     C_3   0.617278 0.456784 0.953354 -0.393988
C3    C     C_3   0.616720 0.459254 0.051109 -0.426137
C4    C     C_1   0.490154 0.506111 0.825945 -0.042244
C5    C     C_1   0.484963 0.490618 0.174094 -0.059438
C6    C     C_1   0.490704 0.493261 0.249417 -0.179832
C7    C     C_3   0.067891 0.653942 0.489101 0.294397
C8    C     C_3   0.075209 0.440113 0.582061 0.266847
C9    C     C_3   0.924403 0.650868 0.481708 -0.472392
C10   C     C_3   0.931909 0.459284 0.585542 -0.488445
C11   C     C_3   0.071562 0.416460 0.422307 -0.588336
C12   C     C_3   0.121498 0.504430 0.499266 0.095446
C13   C     C_3   0.878775 0.503171 0.497909 0.101066
C14   C     C_R   0.498193 0.498110 0.338292 0.882790
C15   C     C_3   0.928154 0.406881 0.425800 -0.443615
C16   C     C_3   0.371354 0.083286 0.480274 0.273808
C17   C     C_3   0.372537 0.919590 0.476874 0.240128
C18   C     C_3   0.580307 0.075815 0.430694 -0.302574
C19   C     C_3   0.587498 0.914689 0.435004 -0.276165
C20   C     C_3   0.543107 0.081562 0.582299 0.278744
C21   C     C_3   0.536101 0.918215 0.583916 0.273273
C22   C     C_R   0.742392 0.499976 0.498711 0.862923
C23   C     C_R   0.499622 0.501785 0.661752 0.935168
C24   C     C_3   0.442212 0.638725 0.054815 -0.477836
C25   C     C_3   0.390827 0.386539 0.043177 -0.427400
C26   C     C_3   0.389898 0.391867 0.944300 0.325779
C27   C     C_3   0.439804 0.642829 0.956475 0.311733
C28   C     C_1   0.494827 0.505742 0.750683 -0.184398
C29   C     C_3   0.483073 0.493354 0.082730 0.224777
C30   C     C_3   0.486064 0.501358 0.917327 0.147308
H1    H     H_    0.338451 0.651521 0.938022 0.095494
H2    H     H_    0.293368 0.426670 0.923824 0.008501
H3    H     H_    0.893152 0.682352 0.416978 0.142954
H4    H     H_    0.889719 0.363381 0.604707 0.168002
H5    H     H_    0.098376 0.462548 0.361557 0.185278
H6    H     H_    0.112437 0.311226 0.422976 0.211290
H7    H     H_    0.885301 0.435777 0.363500 0.172854
H8    H     H_    0.902563 0.299123 0.436860 0.177487
H9    H     H_    0.308455 0.118907 0.532511 0.018749
H10   H     H_    0.305637 0.885107 0.524982 0.109818
H11   H     H_    0.543046 0.104000 0.366822 0.227458
H12   H     H_    0.565264 0.869912 0.370871 0.214064
H13   H     H_    0.470491 0.115859 0.628303 0.061686
H14   H     H_    0.458680 0.892828 0.627389 0.013043
H15   H     H_    0.674933 0.119763 0.432436 0.121014
H16   H     H_    0.684898 0.879051 0.449368 0.154366
H17   H     H_    0.346474 0.663412 0.078566 0.154393
H18   H     H_    0.294383 0.407760 0.066565 0.131259
H19   H     H_    0.418778 0.282107 0.064101 0.212637
H20   H     H_    0.504328 0.717476 0.084611 0.194215
H21   H     H_    0.684488 0.536007 0.077032 0.162059
H22   H     H_    0.648941 0.357441 0.074233 0.184006
H23   H     H_    0.694357 0.519837 0.930782 0.138020
H24   H     H_    0.640917 0.350944 0.930087 0.225271
H25   H     H_    0.102462 0.694328 0.428684 0.115974
H26   H     H_    0.098232 0.327975 0.579534 0.098381
H27   H     H_    0.882918 0.727067 0.527396 0.213150
H28   H     H_    0.907039 0.538083 0.634880 0.192240
N1    N     N_3   0.499750 0.138610 0.498180 -0.100582
N2    N     N_3   0.499750 0.861390 0.498180 -0.090906
O1    O     O_R   0.314910 0.616040 0.499980 -0.571703
O2    O     O_R   0.314910 0.383960 0.499980 -0.620477
O3    O     O_R   0.500120 0.616090 0.377110 -0.593863
O4    O     O_R   0.500120 0.383910 0.377110 -0.589820
O5    O     O_R   0.685320 0.616040 0.499960 -0.595314
O6    O     O_R   0.685320 0.383960 0.499960 -0.626731
O7    O     O_R   0.500110 0.615990 0.622830 -0.593187
O8    O     O_R   0.500110 0.384010 0.622830 -0.586431
Zn1   Zn    Zn3+2 0.500150 0.654960 0.499960 1.009422
Zn2   Zn    Zn3+2 0.500150 0.345040 0.499960 0.987509
O9    O     O_3   0.322283 0.136499 0.404030 -0.701115
H29   H     H_    0.231310 0.116353 0.401907 0.307724
O10   O     O_3   0.332333 0.868122 0.396533 -0.704971
H30   H     H_    0.239307 0.875570 0.394363 0.317609
O11   O     O_3   0.653127 0.144254 0.618847 -0.577007
C31   C     C_3   0.770876 0.105325 0.584384 0.204727
H31   H     H_    0.798009 0.181245 0.538350 0.140202
H32   H     H_    0.774554 0.005395 0.550640 0.157823
C32   C     C_3   0.872295 0.106704 0.654654 -0.919225
H33   H     H_    0.869981 0.013535 0.692474 0.263997
H34   H     H_    0.966574 0.111115 0.626211 0.205742
H35   H     H_    0.859055 0.196393 0.698649 0.259118
O12   O     O_3   0.648380 0.851977 0.612064 -0.576835
C33   C     C_3   0.658607 0.849336 0.701739 0.155517
H36   H     H_    0.575419 0.802929 0.730348 0.165704
H37   H     H_    0.668350 0.954673 0.729062 0.162658
C34   C     C_3   0.774467 0.763606 0.725905 -0.888776
H38   H     H_    0.850299 0.776871 0.679883 0.259490
H39   H     H_    0.811441 0.796047 0.789605 0.207186
H40   H     H_    0.750366 0.653452 0.726160 0.234005
O13   O     O_3   0.422722 0.260024 0.909787 -0.594233
C35   C     C_3   0.330962 0.213720 0.849879 0.112745
H41   H     H_    0.317658 0.287589 0.797668 0.141209
H42   H     H_    0.239807 0.199360 0.881383 0.133019
C36   C     C_3   0.373442 0.076861 0.810965 -0.821767
H43   H     H_    0.380430 0.998683 0.860776 0.296398
H44   H     H_    0.304629 0.042538 0.761075 0.194338
H45   H     H_    0.466539 0.087293 0.781817 0.246606
O14   O     O_3   0.490613 0.763773 0.923301 -0.609133
C37   C     C_3   0.620966 0.778836 0.937750 0.112338
H46   H     H_    0.671017 0.730119 0.883928 0.151539
H47   H     H_    0.657200 0.734498 0.997606 0.137090
C38   C     C_3   0.651336 0.930560 0.941504 -0.841691
H48   H     H_    0.600684 0.982795 0.994487 0.270840
H49   H     H_    0.753917 0.943612 0.952055 0.199002
H50   H     H_    0.622916 0.978799 0.880959 0.260227
O15   O     O_3   0.108437 0.744350 0.555263 -0.770092
H51   H     H_    0.061928 0.725244 0.607303 0.375216
O16   O     O_3   0.134101 0.499205 0.654764 -0.788061
H52   H     H_    0.117027 0.438825 0.702737 0.318151

loop_
_geom_bond_atom_site_label_1
_geom_bond_atom_site_label_2
_ccdc_geom_bond_type
C17   O10   S    
C34   H38   S    
C26   H2    S    
O10   H30   S    
C36   H43   S    
C24   C27   S    
C7    H25   S    
C1    O2    A    
C8    H26   S    
C19   H16   S    
C22   O5    A    
C16   O9    S    
C27   O14   S    
O12   C33   S    
C35   H41   S    
C11   H6    S    
C10   H28   S    
C31   H32   S    
C5    C6    T    
O2    Zn2   S    
C25   C29   S    
C18   C19   S    
C23   O7    A    
C3    C29   S    
C9    C13   S    
C24   C29   S    
C15   H7    S    
C11   C15   S    
C22   O6    A    
C21   O12   S    
C16   C17   S    
O15   H51   S    
C31   C32   S    
O4    Zn2   S    
C19   H12   S    
C27   C30   S    
C9    H3    S    
C1    C12   S    
C35   H42   S    
C4    C28   T    
C5    C29   S    
C24   H20   S    
C7    C12   S    
C36   H45   S    
C27   H1    S    
O3    Zn1   S    
C33   H36   S    
C21   N2    S    
C38   H49   S    
C2    H24   S    
C18   H11   S    
O13   C35   S    
C32   H34   S    
C3    H21   S    
C17   N2    S    
N1    Zn2   S    
C26   O13   S    
C2    H23   S    
C35   C36   S    
C20   O11   S    
O7    Zn1   S    
C17   H10   S    
C23   O8    A    
O11   C31   S    
C15   H8    S    
C6    C14   S    
C21   H14   S    
O14   C37   S    
C8    C12   S    
C14   O4    A    
C37   H47   S    
C10   H4    S    
C23   C28   S    
C31   H31   S    
C20   N1    S    
C25   H18   S    
C8    C10   S    
C26   C30   S    
C13   C15   S    
C7    O15   S    
C18   H15   S    
C20   H13   S    
O1    Zn1   S    
C7    C9    S    
C24   H17   S    
C33   H37   S    
C10   C13   S    
C1    O1    A    
C32   H35   S    
C3    H22   S    
C36   H44   S    
C33   C34   S    
C19   N2    S    
C2    C30   S    
C11   H5    S    
C2    C3    S    
C25   C26   S    
O9    H29   S    
O16   H52   S    
O6    Zn2   S    
N2    Zn1   S    
O5    Zn1   S    
C14   O3    A    
C37   H46   S    
C13   C22   S    
C38   H50   S    
C9    H27   S    
C37   C38   S    
C25   H19   S    
C16   H9    S    
C32   H33   S    
C18   N1    S    
C20   C21   S    
O8    Zn2   S    
C34   H40   S    
C38   H48   S    
C34   H39   S    
C8    O16   S    
C16   N1    S    
C4    C30   S    
C11   C12   S    
