data_mof_unit_28537.cif
_audit_creation_date              2012-12-10T19:01:19-0500
_audit_creation_method            fapswitch 2.2
_symmetry_space_group_name_H-M    P1
_symmetry_Int_Tables_number       1
_space_group_crystal_system       triclinic
_cell_length_a                    9.528973
_cell_length_b                    10.829553
_cell_length_c                    15.541788
_cell_angle_alpha                 89.278457
_cell_angle_beta                  74.078056
_cell_angle_gamma                 90.249865
_cell_volume                      1542.12535773

loop_
_atom_site_label
_atom_site_type_symbol
_atom_type_description
_atom_site_fract_x
_atom_site_fract_y
_atom_site_fract_z
_atom_type_partial_charge
C1    C     C_R   0.999035 0.262275 0.501350 0.820702
C2    C     C_R   0.666472 0.533794 0.903266 0.092326
C3    C     C_R   0.764155 0.580207 0.949609 0.167622
C4    C     C_R   0.515654 0.520866 0.948321 0.062833
C5    C     C_R   0.469700 0.534371 0.042453 0.094243
C6    C     C_R   0.568217 0.584992 0.085962 -0.147721
C7    C     C_R   0.712977 0.607871 0.040073 -0.252635
C8    C     C_R   0.408490 0.500467 0.902390 -0.223903
C9    C     C_R   0.261277 0.492244 0.948400 -0.214393
C10   C     C_R   0.217180 0.495980 0.041610 0.120578
C11   C     C_R   0.322975 0.506448 0.089602 0.022992
C12   C     C_R   0.917718 0.503068 0.671873 0.779902
C13   C     C_R   0.068885 0.487437 0.087718 -0.202940
C14   C     C_R   0.025131 0.491431 0.180759 -0.250504
C15   C     C_R   0.278938 0.483625 0.182665 0.284125
C16   C     C_R   0.124851 0.063044 0.492718 0.152355
C17   C     C_R   0.995938 0.128716 0.504831 -0.133703
C18   C     C_R   0.862136 0.065430 0.528964 -0.240830
C19   C     C_R   0.856118 0.937657 0.544540 0.086838
C20   C     C_R   0.989465 0.870413 0.521522 -0.136257
C21   C     C_R   0.122342 0.935294 0.499971 0.101285
C22   C     C_3   0.229771 0.939350 0.555055 -0.485813
C23   C     C_R   0.995450 0.736875 0.509549 0.791593
C24   C     C_3   0.233941 0.077816 0.544629 -0.447443
C25   C     C_R   0.605812 0.550330 0.429309 0.233600
C26   C     C_R   0.544855 0.440160 0.565288 -0.087885
C27   C     C_R   0.395827 0.440632 0.565509 -0.093445
C28   C     C_R   0.458374 0.547427 0.428421 0.337154
C29   C     C_3   0.463979 0.675414 0.392240 -0.522709
C30   C     C_3   0.619757 0.683231 0.399454 -0.192942
C31   C     C_R   0.082616 0.495120 0.327854 0.841253
C32   C     C_R   0.870403 0.520998 0.768708 -0.041196
C33   C     C_R   0.129413 0.489936 0.229332 -0.122966
C34   C     C_R   0.911731 0.600135 0.904477 -0.219987
C35   C     C_R   0.964734 0.570661 0.814423 -0.208800
C36   C     C_R   0.723379 0.500762 0.813605 -0.247886
Cu1   Cu    Cu3+1 0.140670 0.499980 0.500000 0.966775
Cu2   Cu    Cu3+1 0.859330 0.500020 0.500000 0.929372
H1    H     H_    0.785605 0.645690 0.075858 0.138564
H2    H     H_    0.986672 0.479668 0.051933 0.157374
H3    H     H_    0.761157 0.116691 0.542477 0.165211
H4    H     H_    0.181712 0.907128 0.625305 0.197609
H5    H     H_    0.336763 0.898299 0.521976 0.188833
H6    H     H_    0.189867 0.126459 0.608939 0.191768
H7    H     H_    0.340153 0.114155 0.502322 0.207710
H8    H     H_    0.576305 0.393212 0.618866 0.136010
H9    H     H_    0.315586 0.394511 0.619364 0.136756
H10   H     H_    0.453424 0.676713 0.322741 0.207046
H11   H     H_    0.388270 0.737343 0.438101 0.198245
H12   H     H_    0.631006 0.744727 0.453758 0.173062
H13   H     H_    0.909618 0.490334 0.214666 0.177331
H14   H     H_    0.182009 0.480504 0.910786 0.147332
H15   H     H_    0.985677 0.640127 0.938604 0.137087
H16   H     H_    0.078188 0.589454 0.780145 0.150318
H17   H     H_    0.655335 0.457222 0.777435 0.139968
H18   H     H_    0.532757 0.612304 0.155186 0.170953
H19   H     H_    0.434177 0.498054 0.830387 0.134458
N1    N     N_R   0.648210 0.500930 0.499430 -0.200636
N2    N     N_R   0.352300 0.500890 0.499430 -0.188398
O1    O     O_R   0.118810 0.319640 0.500000 -0.565719
O2    O     O_R   0.881230 0.319680 0.499990 -0.583335
O3    O     O_R   0.055580 0.499970 0.629840 -0.595261
O4    O     O_R   0.818000 0.500010 0.629830 -0.596503
O5    O     O_R   0.118770 0.680320 0.500010 -0.580917
O6    O     O_R   0.881190 0.680360 0.500000 -0.601040
O7    O     O_R   0.182000 0.499990 0.370170 -0.521385
O8    O     O_R   0.944420 0.500030 0.370160 -0.599023
C37   C     C_3   0.707609 0.882369 0.592922 -0.411391
C38   C     C_3   0.650306 0.934319 0.687601 -0.351840
C39   C     C_3   0.505906 0.872971 0.737846 -0.842545
H20   H     H_    0.422435 0.888233 0.701084 0.251978
H21   H     H_    0.520772 0.772130 0.745739 0.255022
H22   H     H_    0.466212 0.913493 0.805391 0.248219
H23   H     H_    0.731705 0.917705 0.725775 0.227622
H24   H     H_    0.632740 0.035422 0.684396 0.216401
H25   H     H_    0.628983 0.904088 0.553764 0.182668
H26   H     H_    0.709191 0.781355 0.601723 0.235744
Cl1   Cl    Cl    0.403491 0.410315 0.233482 -0.656135
C40   C     C_3   0.735069 0.708635 0.310262 -0.343194
C41   C     C_3   0.732384 0.844576 0.281846 -0.355077
C42   C     C_3   0.860682 0.876167 0.201169 -0.827572
H27   H     H_    0.965651 0.859671 0.217372 0.251758
H28   H     H_    0.856452 0.819378 0.143074 0.246374
H29   H     H_    0.855787 0.975090 0.182637 0.255355
H30   H     H_    0.628732 0.864075 0.264725 0.230546
H31   H     H_    0.738611 0.905128 0.338003 0.226213
H32   H     H_    0.844100 0.689003 0.319444 0.228365
H33   H     H_    0.717213 0.647853 0.257015 0.196479

loop_
_geom_bond_atom_site_label_1
_geom_bond_atom_site_label_2
_ccdc_geom_bond_type
C8    C9    A    
C31   O7    A    
C16   C21   A    
C19   C20   A    
C4    C8    A    
C42   H29   S    
C14   C33   A    
C40   H32   S    
Cu1   O3    S    
C29   H11   S    
C25   C28   A    
C31   O8    A    
C26   C27   A    
C29   C30   S    
C24   H7    S    
C32   C36   A    
C28   C29   S    
Cu1   Cu2   S    
C5    C11   A    
C3    C7    A    
C5    C6    A    
C34   C35   A    
C15   Cl1   S    
C2    C36   A    
C25   C30   S    
C18   C19   A    
C13   H2    S    
C41   H31   S    
Cu2   N1    S    
C11   C15   A    
C22   H5    S    
C16   C17   A    
C20   C23   S    
C39   H20   S    
C9    C10   A    
Cu2   O2    S    
C30   H12   S    
C16   C24   S    
C21   C22   S    
C12   C32   S    
C35   H16   S    
C9    H14   S    
C40   H33   S    
C42   H28   S    
C42   H27   S    
C29   H10   S    
C32   C35   A    
C38   H23   S    
C18   H3    S    
C12   O4    A    
C37   C38   S    
C3    C34   A    
C2    C4    A    
C41   H30   S    
C8    H19   S    
C12   O3    A    
C14   H13   S    
Cu2   O6    S    
Cu1   O7    S    
C39   H22   S    
C31   C33   S    
C17   C18   A    
C19   C37   S    
C20   C21   A    
C26   N1    A    
Cu1   N2    S    
C30   C40   S    
C23   O5    A    
C24   H6    S    
C22   C24   S    
C1    O1    A    
C25   N1    A    
Cu1   O5    S    
Cu2   O4    S    
C28   N2    A    
C27   H9    S    
C37   H26   S    
C6    H18   S    
C41   C42   S    
C10   C13   A    
C1    O2    A    
C6    C7    A    
C37   H25   S    
C1    C17   S    
C23   O6    A    
C2    C3    A    
C36   H17   S    
C27   N2    A    
C22   H4    S    
C38   H24   S    
C38   C39   S    
Cu1   O1    S    
C10   C11   A    
C26   H8    S    
C40   C41   S    
C4    C5    A    
Cu2   O8    S    
C34   H15   S    
C7    H1    S    
C39   H21   S    
C13   C14   A    
C15   C33   A    
