data_mof_unit_9645.cif
_audit_creation_date              2012-12-10T17:18:30-0500
_audit_creation_method            fapswitch 2.2
_symmetry_space_group_name_H-M    P1
_symmetry_Int_Tables_number       1
_space_group_crystal_system       triclinic
_cell_length_a                    21.802407
_cell_length_b                    21.802385
_cell_length_c                    30.718384
_cell_angle_alpha                 90.000123
_cell_angle_beta                  89.998545
_cell_angle_gamma                 89.999788
_cell_volume                      14601.8139981

loop_
_atom_site_label
_atom_site_type_symbol
_atom_type_description
_atom_site_fract_x
_atom_site_fract_y
_atom_site_fract_z
_atom_type_partial_charge
C1    C     C_R   0.500000 0.120577 0.500000 0.878559
C2    C     C_R   0.289244 0.350873 0.555921 -0.160108
C3    C     C_R   0.999999 0.500000 0.413194 0.888447
C4    C     C_R   0.999999 0.500000 0.086806 0.888448
C5    C     C_R   0.500001 0.000000 0.086806 0.888451
C6    C     C_R   0.000001 0.500001 0.913194 0.888446
C7    C     C_R   0.500000 0.000000 0.913194 0.888448
C8    C     C_R   0.537026 0.042986 0.842005 0.042774
C9    C     C_R   0.043010 0.463002 0.842003 0.042792
C10   C     C_R   0.462970 0.957017 0.842006 0.042770
C11   C     C_R   0.957010 0.537022 0.842004 0.042783
C12   C     C_R   0.537034 0.957019 0.157994 0.042770
C13   C     C_R   0.350876 0.710759 0.555927 -0.160114
C14   C     C_R   0.042980 0.537031 0.157994 0.042770
C15   C     C_R   0.462984 0.042993 0.157995 0.042772
C16   C     C_R   0.957012 0.462975 0.157995 0.042772
C17   C     C_R   0.037023 0.542987 0.342005 0.042771
C18   C     C_R   0.542992 0.962978 0.342005 0.042779
C19   C     C_R   0.962970 0.457016 0.342006 0.042770
C20   C     C_R   0.457029 0.037041 0.342005 0.042775
C21   C     C_R   0.037052 0.457039 0.657992 0.042756
C22   C     C_R   0.542982 0.037029 0.657994 0.042774
C23   C     C_R   0.962957 0.542973 0.657993 0.042739
C24   C     C_R   0.710751 0.649130 0.555914 -0.160110
C25   C     C_R   0.457011 0.962977 0.657995 0.042772
C26   C     C_R   0.499999 0.000001 0.864973 -0.184472
C27   C     C_R   0.000006 0.500007 0.864972 -0.184495
C28   C     C_R   0.500005 0.000003 0.135027 -0.184476
C29   C     C_R   0.999997 0.500002 0.135027 -0.184471
C30   C     C_R   0.999998 0.500001 0.364973 -0.184473
C31   C     C_R   0.500006 0.000005 0.364972 -0.184471
C32   C     C_R   0.000002 0.500002 0.635026 -0.184446
C33   C     C_R   0.499998 0.000002 0.635027 -0.184474
C34   C     C_R   0.461561 0.958884 0.796113 0.107448
C35   C     C_R   0.649121 0.710758 0.444069 -0.160108
C36   C     C_R   0.958871 0.538427 0.796111 0.107445
C37   C     C_R   0.538431 0.041122 0.796111 0.107447
C38   C     C_R   0.041157 0.461607 0.796109 0.107437
C39   C     C_R   0.461589 0.041139 0.203888 0.107440
C40   C     C_R   0.958875 0.461570 0.203888 0.107446
C41   C     C_R   0.538444 0.958887 0.203887 0.107448
C42   C     C_R   0.041113 0.538439 0.203887 0.107449
C43   C     C_R   0.961561 0.458884 0.296112 0.107448
C44   C     C_R   0.458903 0.038456 0.296112 0.107450
C45   C     C_R   0.038427 0.541125 0.296111 0.107446
C46   C     C_R   0.289242 0.649127 0.444081 -0.160112
C47   C     C_R   0.541130 0.961574 0.296111 0.107446
C48   C     C_R   0.961554 0.541112 0.703886 0.107463
C49   C     C_R   0.458874 0.961572 0.703889 0.107445
C50   C     C_R   0.038471 0.458917 0.703885 0.107457
C51   C     C_R   0.541116 0.038438 0.703887 0.107448
C52   C     C_R   0.499996 0.000004 0.773170 0.004835
C53   C     C_R   0.000014 0.500016 0.773168 0.004824
C54   C     C_R   0.500017 0.000014 0.226830 0.004827
C55   C     C_R   0.999994 0.500005 0.226830 0.004834
C56   C     C_R   0.999994 0.500004 0.273169 0.004835
C57   C     C_R   0.350879 0.289243 0.444074 -0.160107
C58   C     C_R   0.500017 0.000015 0.273169 0.004837
C59   C     C_R   0.000013 0.500015 0.726828 0.004833
C60   C     C_R   0.499995 0.000004 0.726830 0.004834
C61   C     C_R   0.422494 0.920334 0.772295 -0.225665
C62   C     C_R   0.920292 0.577467 0.772293 -0.225670
C63   C     C_R   0.577494 0.079676 0.772293 -0.225675
C64   C     C_R   0.079746 0.422580 0.772289 -0.225679
C65   C     C_R   0.422542 0.079709 0.227707 -0.225634
C66   C     C_R   0.920321 0.422507 0.227707 -0.225669
C67   C     C_R   0.577504 0.920331 0.227705 -0.225667
C68   C     C_R   0.710761 0.350874 0.444077 -0.160106
C69   C     C_R   0.079664 0.577505 0.227705 -0.225668
C70   C     C_R   0.922496 0.420331 0.272295 -0.225667
C71   C     C_R   0.420365 0.077535 0.272295 -0.225675
C72   C     C_R   0.077488 0.579681 0.272292 -0.225672
C73   C     C_R   0.579680 0.922507 0.272292 -0.225673
C74   C     C_R   0.922470 0.579647 0.727706 -0.225654
C75   C     C_R   0.420319 0.922510 0.727708 -0.225669
C76   C     C_R   0.077571 0.420401 0.727702 -0.225659
C77   C     C_R   0.579669 0.077501 0.727705 -0.225665
C78   C     C_R   0.599569 0.192316 0.542985 -0.210149
C79   C     C_R   0.149123 0.789242 0.055922 -0.160108
C80   C     C_R   0.192317 0.400421 0.542979 -0.210167
C81   C     C_R   0.400430 0.807685 0.542988 -0.210148
C82   C     C_R   0.807679 0.599578 0.542978 -0.210154
C83   C     C_R   0.599569 0.807683 0.457011 -0.210153
C84   C     C_R   0.192317 0.599569 0.457014 -0.210137
C85   C     C_R   0.400430 0.192317 0.457015 -0.210157
C86   C     C_R   0.807686 0.400427 0.457016 -0.210149
C87   C     C_R   0.099570 0.692317 0.042984 -0.210151
C88   C     C_R   0.692315 0.900426 0.042983 -0.210155
C89   C     C_R   0.900428 0.307684 0.042986 -0.210151
C90   C     C_R   0.789241 0.850875 0.055924 -0.160108
C91   C     C_R   0.307680 0.099572 0.042984 -0.210139
C92   C     C_R   0.099564 0.307685 0.957007 -0.210136
C93   C     C_R   0.692318 0.099569 0.957014 -0.210142
C94   C     C_R   0.900432 0.692317 0.957014 -0.210145
C95   C     C_R   0.307686 0.900426 0.957016 -0.210153
C96   C     C_R   0.648955 0.226036 0.559956 0.150110
C97   C     C_R   0.226038 0.351036 0.559950 0.150110
C98   C     C_R   0.351043 0.773965 0.559959 0.150113
C99   C     C_R   0.773956 0.648966 0.559945 0.150112
C100  C     C_R   0.648954 0.773963 0.440037 0.150111
C101  C     C_R   0.850875 0.210758 0.055926 -0.160114
C102  C     C_R   0.226037 0.648957 0.440046 0.150110
C103  C     C_R   0.351046 0.226037 0.440042 0.150108
C104  C     C_R   0.773967 0.351040 0.440046 0.150108
C105  C     C_R   0.148956 0.726036 0.059955 0.150110
C106  C     C_R   0.726035 0.851040 0.059954 0.150110
C107  C     C_R   0.851041 0.273964 0.059957 0.150113
C108  C     C_R   0.273957 0.148961 0.059950 0.150109
C109  C     C_R   0.148950 0.273966 0.940034 0.150113
C110  C     C_R   0.726038 0.148956 0.940045 0.150111
C111  C     C_R   0.851046 0.726036 0.940043 0.150110
C112  C     C_R   0.120577 0.499999 0.500000 0.878557
C113  C     C_R   0.210753 0.149129 0.055914 -0.160118
C114  C     C_R   0.273966 0.851040 0.940045 0.150109
C115  C     C_3   0.574002 0.091215 0.866806 -0.371192
C116  C     C_3   0.535183 0.149225 0.875730 -0.272873
C117  C     C_3   0.544418 0.199063 0.841453 -0.916922
C118  C     C_3   0.091239 0.426025 0.866803 -0.371198
C119  C     C_3   0.149240 0.464849 0.875745 -0.272851
C120  C     C_3   0.199097 0.455635 0.841479 -0.917016
C121  C     C_3   0.425998 0.908785 0.866808 -0.371191
C122  C     C_3   0.464820 0.850777 0.875726 -0.272882
C123  C     C_3   0.455584 0.800940 0.841447 -0.916918
C124  C     C_R   0.149120 0.210761 0.944068 -0.160114
C125  C     C_3   0.908778 0.573994 0.866807 -0.371186
C126  C     C_3   0.850773 0.535171 0.875738 -0.272851
C127  C     C_3   0.800926 0.544398 0.841467 -0.916949
C128  C     C_3   0.574003 0.908784 0.133192 -0.371197
C129  C     C_3   0.535179 0.850777 0.124273 -0.272880
C130  C     C_3   0.544414 0.800940 0.158551 -0.916924
C131  C     C_3   0.091212 0.574003 0.133192 -0.371190
C132  C     C_3   0.149222 0.535182 0.124273 -0.272881
C133  C     C_3   0.199058 0.544420 0.158551 -0.916922
C134  C     C_3   0.425991 0.091208 0.133193 -0.371174
C135  C     C_R   0.789243 0.149125 0.944079 -0.160113
C136  C     C_3   0.464793 0.149225 0.124257 -0.272844
C137  C     C_3   0.455549 0.199076 0.158525 -0.917014
C138  C     C_3   0.908783 0.425999 0.133194 -0.371192
C139  C     C_3   0.850774 0.464818 0.124271 -0.272880
C140  C     C_3   0.800934 0.455583 0.158548 -0.916942
C141  C     C_3   0.074000 0.591215 0.366806 -0.371191
C142  C     C_3   0.035182 0.649225 0.375732 -0.272865
C143  C     C_3   0.044418 0.699068 0.341457 -0.916948
C144  C     C_3   0.591220 0.926002 0.366806 -0.371191
C145  C     C_3   0.649229 0.964821 0.375729 -0.272880
C146  C     C_R   0.850877 0.789242 0.944077 -0.160109
C147  C     C_3   0.699067 0.955590 0.341450 -0.916917
C148  C     C_3   0.925999 0.408783 0.366807 -0.371193
C149  C     C_3   0.964823 0.350775 0.375725 -0.272881
C150  C     C_3   0.955585 0.300938 0.341447 -0.916917
C151  C     C_3   0.408792 0.074009 0.366806 -0.371197
C152  C     C_3   0.350782 0.035185 0.375717 -0.272899
C153  C     C_3   0.300956 0.044425 0.341432 -0.916883
C154  C     C_3   0.074025 0.408807 0.633191 -0.371195
C155  C     C_3   0.035210 0.350789 0.624291 -0.272918
C156  C     C_3   0.044469 0.300971 0.658580 -0.916801
C157  C     C_R   0.210761 0.850874 0.944076 -0.160106
C158  C     C_3   0.591215 0.074001 0.633192 -0.371192
C159  C     C_3   0.649224 0.035179 0.624271 -0.272880
C160  C     C_3   0.699060 0.044414 0.658549 -0.916925
C161  C     C_3   0.925967 0.591190 0.633190 -0.371186
C162  C     C_3   0.964769 0.649214 0.624276 -0.272872
C163  C     C_3   0.955494 0.699052 0.658549 -0.916925
C164  C     C_3   0.408781 0.926003 0.633195 -0.371195
C165  C     C_3   0.350773 0.964825 0.624271 -0.272874
C166  C     C_3   0.300931 0.955592 0.658547 -0.916934
C167  C     C_3   0.298455 0.195107 0.416998 -0.457536
C168  C     C_R   0.600272 0.318458 0.536295 -0.199451
C169  C     C_3   0.240700 0.194922 0.445363 -0.337696
C170  C     C_3   0.187721 0.162535 0.422481 -0.888040
C171  C     C_3   0.195107 0.701551 0.417005 -0.457530
C172  C     C_3   0.194913 0.759299 0.445377 -0.337683
C173  C     C_3   0.162524 0.812281 0.422500 -0.888043
C174  C     C_3   0.701544 0.804894 0.416991 -0.457540
C175  C     C_3   0.759297 0.805082 0.445356 -0.337693
C176  C     C_3   0.812278 0.837467 0.422472 -0.888037
C177  C     C_3   0.804900 0.298446 0.417006 -0.457533
C178  C     C_3   0.805083 0.240696 0.445375 -0.337691
C179  C     C_R   0.318459 0.399727 0.536295 -0.199461
C180  C     C_3   0.837472 0.187712 0.422498 -0.888045
C181  C     C_3   0.298449 0.804897 0.583000 -0.457536
C182  C     C_3   0.240702 0.805088 0.554629 -0.337685
C183  C     C_3   0.187718 0.837476 0.577506 -0.888046
C184  C     C_3   0.195109 0.298440 0.582990 -0.457526
C185  C     C_3   0.194932 0.240689 0.554621 -0.337701
C186  C     C_3   0.162550 0.187702 0.577498 -0.888035
C187  C     C_3   0.701547 0.195105 0.582998 -0.457537
C188  C     C_3   0.759299 0.194917 0.554629 -0.337691
C189  C     C_3   0.812279 0.162528 0.577508 -0.888047
C190  C     C_R   0.399728 0.681543 0.536299 -0.199456
C191  C     C_3   0.804882 0.701565 0.582983 -0.457529
C192  C     C_3   0.805063 0.759312 0.554611 -0.337699
C193  C     C_3   0.837444 0.812301 0.577487 -0.888030
C194  C     C_3   0.798455 0.695105 0.917000 -0.457537
C195  C     C_3   0.740703 0.694913 0.945369 -0.337686
C196  C     C_3   0.687724 0.662525 0.922490 -0.888045
C197  C     C_3   0.695107 0.201549 0.917003 -0.457530
C198  C     C_3   0.694915 0.259299 0.945373 -0.337687
C199  C     C_3   0.662529 0.312281 0.922494 -0.888043
C200  C     C_3   0.201541 0.304899 0.916990 -0.457545
C201  C     C_R   0.681538 0.600275 0.536289 -0.199454
C202  C     C_3   0.259289 0.305100 0.945361 -0.337672
C203  C     C_3   0.312269 0.337491 0.922481 -0.888049
C204  C     C_3   0.304899 0.798446 0.917005 -0.457533
C205  C     C_3   0.305082 0.740696 0.945373 -0.337694
C206  C     C_3   0.337470 0.687712 0.922496 -0.888044
C207  C     C_3   0.798446 0.304895 0.082997 -0.457531
C208  C     C_3   0.740699 0.305082 0.054626 -0.337690
C209  C     C_3   0.687714 0.337469 0.077503 -0.888038
C210  C     C_3   0.695103 0.798446 0.082994 -0.457529
C211  C     C_3   0.694921 0.740696 0.054624 -0.337691
C212  C     C_R   0.600271 0.681542 0.463700 -0.199456
C213  C     C_3   0.662534 0.687711 0.077501 -0.888042
C214  C     C_3   0.201548 0.695105 0.082997 -0.457534
C215  C     C_3   0.259300 0.694918 0.054628 -0.337695
C216  C     C_3   0.312281 0.662531 0.077507 -0.888047
C217  C     C_3   0.304884 0.201558 0.082989 -0.457526
C218  C     C_3   0.305087 0.259300 0.054611 -0.337682
C219  C     C_3   0.337471 0.312287 0.077486 -0.888035
C220  C     C_R   0.500000 0.879423 0.500000 0.878561
C221  C     C_R   0.318458 0.600275 0.463708 -0.199449
C222  C     C_R   0.399728 0.318458 0.463704 -0.199452
C223  C     C_R   0.681544 0.399726 0.463704 -0.199461
C224  C     C_R   0.100273 0.818458 0.036294 -0.199452
C225  C     C_R   0.818457 0.899727 0.036297 -0.199459
C226  C     C_R   0.899727 0.181542 0.036298 -0.199456
C227  C     C_R   0.181539 0.100275 0.036289 -0.199447
C228  C     C_R   0.100271 0.181544 0.963699 -0.199454
C229  C     C_R   0.818458 0.100274 0.963707 -0.199448
C230  C     C_R   0.899727 0.818458 0.963705 -0.199450
C231  C     C_R   0.879423 0.500000 0.500000 0.878554
C232  C     C_R   0.181544 0.899726 0.963703 -0.199460
C233  C     C_R   0.549923 0.285170 0.518812 0.067504
C234  C     C_R   0.285170 0.450075 0.518812 0.067505
C235  C     C_R   0.450077 0.714830 0.518814 0.067506
C236  C     C_R   0.714828 0.549925 0.518808 0.067508
C237  C     C_R   0.549923 0.714830 0.481186 0.067502
C238  C     C_R   0.285170 0.549924 0.481190 0.067503
C239  C     C_R   0.450077 0.285170 0.481188 0.067502
C240  C     C_R   0.714831 0.450076 0.481187 0.067500
C241  C     C_R   0.049923 0.785170 0.018811 0.067504
C242  C     C_R   0.000000 0.620577 0.000000 0.878562
C243  C     C_R   0.785170 0.950076 0.018813 0.067504
C244  C     C_R   0.950077 0.214830 0.018813 0.067508
C245  C     C_R   0.214829 0.049924 0.018809 0.067508
C246  C     C_R   0.049922 0.214831 0.981185 0.067502
C247  C     C_R   0.785170 0.049924 0.981189 0.067504
C248  C     C_R   0.950077 0.785170 0.981188 0.067502
C249  C     C_R   0.214831 0.950076 0.981187 0.067500
C250  C     C_R   0.549784 0.220801 0.520401 0.059727
C251  C     C_R   0.220802 0.450211 0.520399 0.059732
C252  C     C_R   0.450215 0.779199 0.520403 0.059726
C253  C     C_R   0.620577 1.000000 0.000000 0.878560
C254  C     C_R   0.779196 0.549788 0.520397 0.059726
C255  C     C_R   0.549784 0.779198 0.479597 0.059728
C256  C     C_R   0.220802 0.549784 0.479599 0.059724
C257  C     C_R   0.450215 0.220802 0.479599 0.059729
C258  C     C_R   0.779199 0.450214 0.479599 0.059730
C259  C     C_R   0.049785 0.720801 0.020401 0.059727
C260  C     C_R   0.720801 0.950214 0.020401 0.059730
C261  C     C_R   0.950214 0.279199 0.020402 0.059727
C262  C     C_R   0.279197 0.049786 0.020400 0.059722
C263  C     C_R   0.049782 0.279199 0.979595 0.059724
C264  C     C_R   1.000000 0.379423 0.000000 0.878564
C265  C     C_R   0.720802 0.049784 0.979599 0.059725
C266  C     C_R   0.950216 0.720802 0.979599 0.059727
C267  C     C_R   0.279199 0.950214 0.979599 0.059731
C268  C     C_R   0.500000 0.315799 0.500000 -0.169781
C269  C     C_R   0.315799 0.500001 0.500001 -0.169779
C270  C     C_R   0.500000 0.684201 0.500000 -0.169783
C271  C     C_R   0.684201 0.500000 0.499998 -0.169777
C272  C     C_R   1.000000 0.815799 1.000000 -0.169780
C273  C     C_R   0.815799 0.000000 0.000002 -0.169782
C274  C     C_R   0.000000 0.184201 1.000000 -0.169784
C275  C     C_R   0.379423 1.000000 0.000000 0.878560
C276  C     C_R   0.184201 1.000000 0.999998 -0.169778
C277  C     C_R   0.500000 0.188013 0.500000 -0.206508
C278  C     C_R   0.188013 0.499998 0.499999 -0.206509
C279  C     C_R   0.500000 0.811987 0.500000 -0.206507
C280  C     C_R   0.811987 0.500001 0.499999 -0.206510
C281  C     C_R   0.000000 0.688013 1.000000 -0.206509
C282  C     C_R   0.688013 0.999999 1.000000 -0.206508
C283  C     C_R   0.999999 0.311987 0.999999 -0.206507
C284  C     C_R   0.311987 1.000000 1.000000 -0.206512
C285  C     C_R   0.381088 0.500001 0.500000 0.835636
C286  C     C_R   0.649122 0.289242 0.555923 -0.160110
C287  C     C_R   0.500000 0.618912 0.500000 0.835633
C288  C     C_R   0.618912 0.499998 0.499999 0.835637
C289  C     C_R   0.500000 0.381088 0.500000 0.835634
C290  C     C_R   0.881087 1.000000 0.000000 0.835635
C291  C     C_R   0.000001 0.118912 0.000000 0.835634
C292  C     C_R   0.118912 0.999999 0.999999 0.835635
C293  C     C_R   1.000000 0.881088 1.000000 0.835635
C294  C     C_R   0.499999 0.000000 0.586806 0.888445
C295  C     C_R   1.000000 0.500000 0.586805 0.888452
C296  C     C_R   0.500001 0.000001 0.413194 0.888441
H1    H     H_    0.392072 0.887403 0.786823 0.159380
H2    H     H_    0.387444 0.107968 0.286823 0.159367
H3    H     H_    0.210071 0.593859 0.162368 0.255556
H4    H     H_    0.184153 0.525200 0.190273 0.275373
H5    H     H_    0.241345 0.519992 0.148295 0.247628
H6    H     H_    0.137831 0.485501 0.122850 0.235819
H7    H     H_    0.168177 0.547299 0.091863 0.196048
H8    H     H_    0.070973 0.590483 0.102599 0.166991
H9    H     H_    0.102503 0.618982 0.147651 0.170941
H10   H     H_    0.406106 0.210034 0.162382 0.255555
H11   H     H_    0.474840 0.184220 0.190235 0.275355
H12   H     H_    0.479905 0.241383 0.148233 0.247637
H13   H     H_    0.107906 0.612615 0.286820 0.159389
H14   H     H_    0.514477 0.137849 0.122830 0.235824
H15   H     H_    0.452665 0.168160 0.091844 0.196041
H16   H     H_    0.409507 0.070955 0.102605 0.166974
H17   H     H_    0.381014 0.102487 0.147661 0.170933
H18   H     H_    0.789922 0.406144 0.162367 0.255559
H19   H     H_    0.815833 0.474806 0.190270 0.275373
H20   H     H_    0.758648 0.480008 0.148290 0.247633
H21   H     H_    0.862165 0.514499 0.122847 0.235823
H22   H     H_    0.831824 0.452698 0.091861 0.196048
H23   H     H_    0.929026 0.409516 0.102602 0.166988
H24   H     H_    0.612609 0.892083 0.286820 0.159383
H25   H     H_    0.897492 0.381021 0.147655 0.170946
H26   H     H_    0.093857 0.710079 0.337637 0.255559
H27   H     H_    0.025194 0.684170 0.309735 0.275371
H28   H     H_    0.019993 0.741354 0.351718 0.247632
H29   H     H_    0.985501 0.637835 0.377156 0.235822
H30   H     H_    0.047303 0.668173 0.408143 0.196050
H31   H     H_    0.090484 0.570971 0.397396 0.166984
H32   H     H_    0.118978 0.602505 0.352343 0.170942
H33   H     H_    0.710082 0.906152 0.337628 0.255556
H34   H     H_    0.684163 0.974814 0.309729 0.275375
H35   H     H_    0.892034 0.612569 0.713178 0.159381
H36   H     H_    0.741353 0.980017 0.351707 0.247627
H37   H     H_    0.637837 0.014502 0.377156 0.235822
H38   H     H_    0.668182 0.952699 0.408138 0.196045
H39   H     H_    0.570977 0.909519 0.397397 0.166988
H40   H     H_    0.602512 0.881024 0.352344 0.170938
H41   H     H_    0.906147 0.289923 0.337632 0.255555
H42   H     H_    0.974803 0.315843 0.309724 0.275372
H43   H     H_    0.980016 0.258652 0.351701 0.247629
H44   H     H_    0.014503 0.362168 0.377146 0.235817
H45   H     H_    0.952707 0.331820 0.408135 0.196047
H46   H     H_    0.387384 0.892092 0.713180 0.159385
H47   H     H_    0.909519 0.429022 0.397401 0.166994
H48   H     H_    0.881021 0.397491 0.352349 0.170945
H49   H     H_    0.289939 0.093863 0.337619 0.255554
H50   H     H_    0.315874 0.025215 0.309710 0.275377
H51   H     H_    0.258669 0.019990 0.351678 0.247624
H52   H     H_    0.362176 0.985505 0.377139 0.235816
H53   H     H_    0.331818 0.047299 0.408125 0.196046
H54   H     H_    0.429026 0.090483 0.397403 0.166997
H55   H     H_    0.397503 0.118990 0.352351 0.170942
H56   H     H_    0.093913 0.289965 0.662388 0.255538
H57   H     H_    0.108022 0.387497 0.713173 0.159353
H58   H     H_    0.025261 0.315891 0.690304 0.275373
H59   H     H_    0.020040 0.258676 0.648341 0.247615
H60   H     H_    0.985527 0.362173 0.622876 0.235805
H61   H     H_    0.047318 0.331822 0.591883 0.196032
H62   H     H_    0.090490 0.429038 0.602590 0.167003
H63   H     H_    0.119012 0.397527 0.647641 0.170948
H64   H     H_    0.710075 0.093853 0.662366 0.255557
H65   H     H_    0.684156 0.025195 0.690272 0.275374
H66   H     H_    0.741347 0.019985 0.648293 0.247628
H67   H     H_    0.637831 0.985499 0.622848 0.235821
H68   H     H_    0.612601 0.107923 0.713177 0.159382
H69   H     H_    0.668178 0.047296 0.591862 0.196049
H70   H     H_    0.570975 0.090482 0.602599 0.166991
H71   H     H_    0.602506 0.118980 0.647652 0.170941
H72   H     H_    0.906048 0.710036 0.662363 0.255548
H73   H     H_    0.974718 0.684166 0.690274 0.275364
H74   H     H_    0.979897 0.741352 0.648291 0.247631
H75   H     H_    0.014455 0.637842 0.622865 0.235806
H76   H     H_    0.952663 0.668157 0.591861 0.196037
H77   H     H_    0.909501 0.570946 0.602594 0.166986
H78   H     H_    0.880981 0.602460 0.647647 0.170956
H79   H     H_    0.602268 0.144228 0.548572 0.162693
H80   H     H_    0.289916 0.906154 0.662366 0.255557
H81   H     H_    0.315832 0.974814 0.690269 0.275371
H82   H     H_    0.258647 0.980021 0.648289 0.247630
H83   H     H_    0.362166 0.014505 0.622846 0.235821
H84   H     H_    0.331824 0.952705 0.591860 0.196052
H85   H     H_    0.429024 0.909518 0.602603 0.166988
H86   H     H_    0.397487 0.881026 0.647657 0.170944
H87   H     H_    0.176325 0.186361 0.391557 0.262808
H88   H     H_    0.200040 0.114108 0.415371 0.264198
H89   H     H_    0.146645 0.163029 0.443855 0.247447
H90   H     H_    0.144228 0.397717 0.548563 0.162704
H91   H     H_    0.250484 0.170733 0.476453 0.223477
H92   H     H_    0.226755 0.242821 0.452814 0.219928
H93   H     H_    0.289269 0.219105 0.385720 0.201398
H94   H     H_    0.310578 0.147349 0.408950 0.209146
H95   H     H_    0.186353 0.823687 0.391578 0.262807
H96   H     H_    0.114099 0.799960 0.415386 0.264199
H97   H     H_    0.163012 0.853352 0.443878 0.247448
H98   H     H_    0.170721 0.749506 0.476465 0.223475
H99   H     H_    0.242809 0.773247 0.452831 0.219924
H100  H     H_    0.219110 0.710746 0.385730 0.201396
H101  H     H_    0.397731 0.855773 0.548574 0.162693
H102  H     H_    0.147352 0.689426 0.408953 0.209150
H103  H     H_    0.823676 0.813637 0.391549 0.262808
H104  H     H_    0.799958 0.885893 0.415359 0.264201
H105  H     H_    0.853352 0.836976 0.443846 0.247448
H106  H     H_    0.749512 0.829274 0.476444 0.223476
H107  H     H_    0.773243 0.757184 0.452809 0.219927
H108  H     H_    0.710732 0.780893 0.385714 0.201399
H109  H     H_    0.689420 0.852650 0.408942 0.209151
H110  H     H_    0.813648 0.176311 0.391574 0.262809
H111  H     H_    0.885899 0.200030 0.415388 0.264198
H112  H     H_    0.887334 0.607863 0.786821 0.159404
H113  H     H_    0.855767 0.602279 0.548566 0.162696
H114  H     H_    0.836976 0.146641 0.443874 0.247448
H115  H     H_    0.829269 0.250485 0.476464 0.223475
H116  H     H_    0.757184 0.226751 0.452826 0.219927
H117  H     H_    0.780903 0.289254 0.385728 0.201398
H118  H     H_    0.852657 0.310567 0.408958 0.209147
H119  H     H_    0.176311 0.813647 0.608427 0.262809
H120  H     H_    0.200038 0.885901 0.584620 0.264200
H121  H     H_    0.146648 0.836986 0.556128 0.247449
H122  H     H_    0.250496 0.829278 0.523541 0.223473
H123  H     H_    0.226756 0.757190 0.547174 0.219927
H124  H     H_    0.602268 0.855772 0.451425 0.162693
H125  H     H_    0.289253 0.780896 0.614275 0.201398
H126  H     H_    0.310573 0.852653 0.591051 0.209149
H127  H     H_    0.186376 0.176303 0.608421 0.262809
H128  H     H_    0.114121 0.200015 0.584610 0.264192
H129  H     H_    0.163048 0.146630 0.556121 0.247446
H130  H     H_    0.170743 0.250476 0.523531 0.223474
H131  H     H_    0.242832 0.226750 0.547169 0.219932
H132  H     H_    0.219105 0.289250 0.614268 0.201397
H133  H     H_    0.147350 0.310557 0.591036 0.209146
H134  H     H_    0.823679 0.186354 0.608431 0.262809
H135  H     H_    0.144230 0.602264 0.451424 0.162688
H136  H     H_    0.799959 0.114101 0.584619 0.264200
H137  H     H_    0.853353 0.163021 0.556132 0.247448
H138  H     H_    0.749510 0.170729 0.523540 0.223476
H139  H     H_    0.773245 0.242815 0.547178 0.219927
H140  H     H_    0.710737 0.219105 0.614274 0.201397
H141  H     H_    0.689423 0.147348 0.591047 0.209150
H142  H     H_    0.813615 0.823703 0.608409 0.262808
H143  H     H_    0.885872 0.799987 0.584599 0.264194
H144  H     H_    0.836948 0.853371 0.556108 0.247444
H145  H     H_    0.829254 0.749522 0.523523 0.223474
H146  H     H_    0.397730 0.144229 0.451429 0.162696
H147  H     H_    0.757163 0.773252 0.547158 0.219930
H148  H     H_    0.780883 0.710757 0.614260 0.201397
H149  H     H_    0.852640 0.689447 0.591031 0.209169
H150  H     H_    0.676321 0.686353 0.891568 0.262809
H151  H     H_    0.700046 0.614099 0.915377 0.264201
H152  H     H_    0.646650 0.663014 0.943867 0.247447
H153  H     H_    0.750493 0.670723 0.976458 0.223475
H154  H     H_    0.726755 0.742811 0.952823 0.219925
H155  H     H_    0.789263 0.719107 0.885725 0.201396
H156  H     H_    0.810580 0.647350 0.908949 0.209153
H157  H     H_    0.855774 0.397727 0.451430 0.162696
H158  H     H_    0.686358 0.323684 0.891572 0.262808
H159  H     H_    0.614103 0.299961 0.915380 0.264199
H160  H     H_    0.663018 0.353353 0.943871 0.247448
H161  H     H_    0.670724 0.249508 0.976461 0.223475
H162  H     H_    0.742813 0.273246 0.952826 0.219925
H163  H     H_    0.719109 0.210742 0.885727 0.201397
H164  H     H_    0.647351 0.189425 0.908952 0.209148
H165  H     H_    0.323676 0.313661 0.891560 0.262808
H166  H     H_    0.299943 0.385915 0.915365 0.264205
H167  H     H_    0.353339 0.337008 0.943858 0.247448
H168  H     H_    0.102269 0.644228 0.048572 0.162694
H169  H     H_    0.249493 0.329293 0.976447 0.223472
H170  H     H_    0.273241 0.257205 0.952818 0.219925
H171  H     H_    0.210739 0.280893 0.885716 0.201396
H172  H     H_    0.189412 0.352652 0.908935 0.209155
H173  H     H_    0.313646 0.676311 0.891572 0.262810
H174  H     H_    0.385897 0.700030 0.915385 0.264198
H175  H     H_    0.336975 0.646640 0.943872 0.247448
H176  H     H_    0.329268 0.750484 0.976463 0.223476
H177  H     H_    0.257183 0.726751 0.952824 0.219928
H178  H     H_    0.280902 0.789255 0.885727 0.201398
H179  H     H_    0.644227 0.897725 0.048569 0.162698
H180  H     H_    0.352656 0.810567 0.908957 0.209149
H181  H     H_    0.676309 0.313642 0.108426 0.262811
H182  H     H_    0.700032 0.385896 0.084616 0.264198
H183  H     H_    0.646644 0.336977 0.056126 0.247447
H184  H     H_    0.750491 0.329272 0.023538 0.223473
H185  H     H_    0.726754 0.257184 0.047173 0.219928
H186  H     H_    0.789251 0.280895 0.114274 0.201397
H187  H     H_    0.810568 0.352652 0.091047 0.209149
H188  H     H_    0.686359 0.676309 0.108424 0.262808
H189  H     H_    0.614107 0.700028 0.084612 0.264198
H190  H     H_    0.897728 0.355772 0.048573 0.162693
H191  H     H_    0.663030 0.646639 0.056124 0.247447
H192  H     H_    0.670734 0.750485 0.023535 0.223473
H193  H     H_    0.742820 0.726752 0.047173 0.219929
H194  H     H_    0.719100 0.789254 0.114271 0.201397
H195  H     H_    0.647345 0.810566 0.091042 0.209146
H196  H     H_    0.323681 0.686357 0.108430 0.262809
H197  H     H_    0.299962 0.614104 0.084618 0.264200
H198  H     H_    0.353355 0.663024 0.056131 0.247448
H199  H     H_    0.249512 0.670730 0.023539 0.223476
H200  H     H_    0.273246 0.742817 0.047177 0.219928
H201  H     H_    0.355768 0.102269 0.048574 0.162689
H202  H     H_    0.210738 0.719104 0.114274 0.201397
H203  H     H_    0.189425 0.647349 0.091045 0.209150
H204  H     H_    0.313635 0.323700 0.108403 0.262811
H205  H     H_    0.385894 0.299965 0.084607 0.264197
H206  H     H_    0.336989 0.353353 0.056104 0.247443
H207  H     H_    0.329285 0.249498 0.023527 0.223470
H208  H     H_    0.257192 0.273248 0.047149 0.219925
H209  H     H_    0.280873 0.210762 0.114260 0.201396
H210  H     H_    0.352635 0.189433 0.091049 0.209177
H211  H     H_    0.102259 0.355773 0.951418 0.162685
H212  H     H_    0.607915 0.112609 0.786820 0.159386
H213  H     H_    0.644230 0.102265 0.951425 0.162689
H214  H     H_    0.897734 0.644228 0.951426 0.162691
H215  H     H_    0.355774 0.897726 0.951430 0.162697
H216  H     H_    0.686717 0.316245 0.568784 0.142966
H217  H     H_    0.316248 0.313279 0.568782 0.142967
H218  H     H_    0.313281 0.683757 0.568789 0.142967
H219  H     H_    0.683745 0.686725 0.568772 0.142969
H220  H     H_    0.686714 0.683754 0.431206 0.142967
H221  H     H_    0.316246 0.686723 0.431222 0.142967
H222  H     H_    0.313285 0.316246 0.431212 0.142967
H223  H     H_    0.112709 0.392192 0.786816 0.159420
H224  H     H_    0.683759 0.313279 0.431216 0.142966
H225  H     H_    0.186717 0.816245 0.068783 0.142966
H226  H     H_    0.816244 0.813281 0.068785 0.142966
H227  H     H_    0.813281 0.183755 0.068787 0.142968
H228  H     H_    0.183748 0.186726 0.068772 0.142969
H229  H     H_    0.186716 0.183758 0.931206 0.142967
H230  H     H_    0.816246 0.186721 0.931219 0.142967
H231  H     H_    0.813283 0.816245 0.931216 0.142967
H232  H     H_    0.183758 0.813280 0.931215 0.142967
H233  H     H_    0.603054 0.367821 0.535185 0.157980
H234  H     H_    0.392135 0.112653 0.213179 0.159417
H235  H     H_    0.367822 0.396947 0.535187 0.157985
H236  H     H_    0.396946 0.632180 0.535190 0.157982
H237  H     H_    0.632175 0.603055 0.535180 0.157981
H238  H     H_    0.603053 0.632179 0.464809 0.157987
H239  H     H_    0.367821 0.603057 0.464819 0.157975
H240  H     H_    0.396947 0.367821 0.464813 0.157984
H241  H     H_    0.632181 0.396945 0.464812 0.157979
H242  H     H_    0.103054 0.867821 0.035185 0.157980
H243  H     H_    0.867820 0.896947 0.035189 0.157983
H244  H     H_    0.896946 0.132179 0.035189 0.157984
H245  H     H_    0.887387 0.392087 0.213180 0.159386
H246  H     H_    0.132176 0.103057 0.035178 0.157975
H247  H     H_    0.103054 0.132181 0.964808 0.157983
H248  H     H_    0.867821 0.103056 0.964817 0.157979
H249  H     H_    0.896945 0.867821 0.964816 0.157980
H250  H     H_    0.132181 0.896945 0.964811 0.157980
H251  H     H_    0.593857 0.210078 0.837633 0.255553
H252  H     H_    0.525197 0.184160 0.809730 0.275370
H253  H     H_    0.519990 0.241349 0.851711 0.247629
H254  H     H_    0.485502 0.137834 0.877156 0.235821
H255  H     H_    0.547304 0.168177 0.908140 0.196045
H256  H     H_    0.607922 0.887395 0.213176 0.159386
H257  H     H_    0.590484 0.070972 0.897397 0.166987
H258  H     H_    0.618980 0.102505 0.852344 0.170943
H259  H     H_    0.210112 0.406199 0.837645 0.255566
H260  H     H_    0.184214 0.474881 0.809759 0.275363
H261  H     H_    0.241378 0.480054 0.851756 0.247638
H262  H     H_    0.137842 0.514527 0.877177 0.235834
H263  H     H_    0.168178 0.452717 0.908157 0.196066
H264  H     H_    0.070988 0.409525 0.897388 0.166981
H265  H     H_    0.102541 0.381055 0.852332 0.170938
H266  H     H_    0.406145 0.789925 0.837631 0.255555
H267  H     H_    0.112594 0.607928 0.213176 0.159383
H268  H     H_    0.474802 0.815845 0.809725 0.275373
H269  H     H_    0.480012 0.758654 0.851702 0.247629
H270  H     H_    0.514501 0.862169 0.877148 0.235818
H271  H     H_    0.452704 0.831822 0.908136 0.196047
H272  H     H_    0.409518 0.929025 0.897401 0.166993
H273  H     H_    0.381019 0.897493 0.852349 0.170945
H274  H     H_    0.789916 0.593837 0.837640 0.255555
H275  H     H_    0.815816 0.525161 0.809745 0.275354
H276  H     H_    0.758639 0.519979 0.851737 0.247628
H277  H     H_    0.862168 0.485491 0.877163 0.235822
H278  H     H_    0.892075 0.387399 0.286823 0.159382
H279  H     H_    0.831827 0.547293 0.908150 0.196051
H280  H     H_    0.929023 0.590482 0.897397 0.166985
H281  H     H_    0.897484 0.618971 0.852343 0.170937
H282  H     H_    0.593852 0.789924 0.162368 0.255555
H283  H     H_    0.525194 0.815845 0.190274 0.275372
H284  H     H_    0.519984 0.758655 0.148296 0.247629
H285  H     H_    0.485499 0.862172 0.122852 0.235820
H286  H     H_    0.547296 0.831823 0.091863 0.196048
H287  H     H_    0.590484 0.929024 0.102599 0.166994
H288  H     H_    0.618982 0.897491 0.147651 0.170948
O1    O     O_R   0.448270 0.091550 0.500010 -0.634915
O2    O     O_R   0.591550 0.051730 0.000010 -0.634912
O3    O     O_R   0.051730 0.408450 0.000010 -0.634908
O4    O     O_R   0.408450 0.948270 0.000010 -0.634916
O5    O     O_R   0.948270 0.408450 0.999990 -0.634915
O6    O     O_R   0.591550 0.948270 0.999990 -0.634917
O7    O     O_R   0.051730 0.591550 0.999990 -0.634916
O8    O     O_R   0.408450 0.051730 0.999990 -0.634911
O9    O     O_R   0.448260 0.999910 0.566090 -0.634797
O10   O     O_R   0.999910 0.551740 0.566090 -0.634791
O11   O     O_R   0.551740 0.000090 0.566090 -0.634795
O12   O     O_R   0.091550 0.551730 0.500010 -0.634908
O13   O     O_R   0.000090 0.448260 0.566090 -0.634792
O14   O     O_R   0.448260 0.000090 0.433910 -0.634792
O15   O     O_R   0.999910 0.448260 0.433910 -0.634795
O16   O     O_R   0.551740 0.999910 0.433910 -0.634795
O17   O     O_R   0.000090 0.551740 0.433910 -0.634796
O18   O     O_R   0.948260 0.499910 0.066090 -0.634796
O19   O     O_R   0.499910 0.051740 0.066090 -0.634795
O20   O     O_R   0.051740 0.500090 0.066090 -0.634796
O21   O     O_R   0.500090 0.948260 0.066090 -0.634799
O22   O     O_R   0.948260 0.500090 0.933910 -0.634797
O23   O     O_R   0.551730 0.908450 0.500010 -0.634913
O24   O     O_R   0.499910 0.948260 0.933910 -0.634796
O25   O     O_R   0.051740 0.499910 0.933910 -0.634800
O26   O     O_R   0.500090 0.051740 0.933910 -0.634796
O27   O     O_R   0.408410 0.499950 0.462690 -0.625668
O28   O     O_R   0.499950 0.591590 0.462690 -0.625671
O29   O     O_R   0.591590 0.500050 0.462690 -0.625673
O30   O     O_R   0.500050 0.408410 0.462690 -0.625672
O31   O     O_R   0.408410 0.500050 0.537310 -0.625675
O32   O     O_R   0.499950 0.408410 0.537310 -0.625672
O33   O     O_R   0.591590 0.499950 0.537310 -0.625671
O34   O     O_R   0.908450 0.448270 0.500010 -0.634914
O35   O     O_R   0.500050 0.591590 0.537310 -0.625672
O36   O     O_R   0.908410 0.999950 0.962690 -0.625668
O37   O     O_R   0.999950 0.091590 0.962690 -0.625670
O38   O     O_R   0.091590 0.000050 0.962690 -0.625674
O39   O     O_R   0.000050 0.908410 0.962690 -0.625671
O40   O     O_R   0.908410 0.000050 0.037310 -0.625674
O41   O     O_R   0.999950 0.908410 0.037310 -0.625672
O42   O     O_R   0.091590 0.999950 0.037310 -0.625669
O43   O     O_R   0.000050 0.091590 0.037310 -0.625671
O44   O     O_R   0.448270 0.908450 0.499990 -0.634913
O45   O     O_R   0.091550 0.448270 0.499990 -0.634920
O46   O     O_R   0.551730 0.091550 0.499990 -0.634914
O47   O     O_R   0.908450 0.551730 0.499990 -0.634918
O48   O     O_R   0.948270 0.591550 0.000010 -0.634912
Zn1   Zn    Zn3+2 0.430920 0.000000 0.500000 0.897660
Zn2   Zn    Zn3+2 0.500000 0.500000 0.549800 0.941960
Zn3   Zn    Zn3+2 0.000000 0.000000 0.950200 0.941964
Zn4   Zn    Zn3+2 0.000000 0.000000 0.049800 0.941963
Zn5   Zn    Zn3+2 0.000000 0.569080 0.500000 0.897659
Zn6   Zn    Zn3+2 0.569080 0.000000 0.500000 0.897657
Zn7   Zn    Zn3+2 0.000000 0.430920 0.500000 0.897663
Zn8   Zn    Zn3+2 0.930920 0.500000 0.000000 0.897651
Zn9   Zn    Zn3+2 0.500000 0.069080 0.000000 0.897653
Zn10  Zn    Zn3+2 0.069080 0.500000 0.000000 0.897650
Zn11  Zn    Zn3+2 0.500000 0.930920 0.000000 0.897654
Zn12  Zn    Zn3+2 0.500000 0.500000 0.450200 0.941962

loop_
_geom_bond_atom_site_label_1
_geom_bond_atom_site_label_2
_ccdc_geom_bond_type
C101  C107  A    
C120  H259  S    
C126  C127  S    
C186  H127  S    
C141  H32   S    
C195  H154  S    
C8    C26   A    
C253  O6    A    
C228  H247  S    
C151  H54   S    
C156  H56   S    
C18   C47   A    
C219  H206  S    
C79   C224  A    
C41   C67   A    
C31   C296  S    
C177  H117  S    
C49   C60   A    
C168  H233  S    
C97   C184  S    
C143  H28   S    
C206  H173  S    
C207  H187  S    
C163  H73   S    
C193  H142  S    
C117  H252  S    
C292  O38   A    
C216  H196  S    
O4    Zn11  S    
C175  H107  S    
C92   C109  A    
C166  H81   S    
C25   C164  S    
C222  H240  S    
C106  C210  S    
C94   C111  A    
C182  C183  S    
C147  H36   S    
C36   C53   A    
C191  H149  S    
C66   H245  S    
C45   C56   A    
C78   C96   A    
C80   C251  A    
C84   C256  A    
C107  C207  S    
C212  C237  A    
C85   C103  A    
O3    Zn10  S    
C125  H281  S    
C93   C110  A    
C176  H105  S    
C78   H79   S    
C182  H122  S    
C110  C197  S    
C17   C30   A    
C82   H113  S    
C36   C62   A    
C150  H42   S    
C181  H125  S    
C37   C63   A    
C237  C255  A    
C233  C250  A    
C38   C64   A    
C87   H168  S    
C202  C203  S    
C86   H157  S    
O39   Zn3   S    
C191  C192  S    
C148  H47   S    
C48   C74   A    
C246  C274  A    
C220  O23   A    
C185  H130  S    
C87   C259  A    
C215  H200  S    
C144  H40   S    
C165  H83   S    
O7    Zn10  S    
O34   Zn7   S    
C34   C61   A    
C231  O47   A    
O9    Zn1   S    
C130  H282  S    
C108  C113  A    
O20   Zn10  S    
C215  C216  S    
C160  H64   S    
C114  C157  A    
C1    C277  S    
C50   C76   A    
C42   C55   A    
C226  C244  A    
C175  C176  S    
C11   C27   A    
C40   C55   A    
O48   Zn8   S    
C189  H136  S    
C15   C39   A    
C154  C155  S    
C5    O19   A    
C137  H12   S    
C204  H180  S    
C108  C217  S    
C146  H231  S    
C231  O34   A    
C83   C100  A    
C158  C159  S    
C78   C250  A    
C89   C261  A    
C50   C59   A    
O11   Zn6   S    
C84   H135  S    
C219  H204  S    
C191  H148  S    
C32   C295  S    
O12   Zn5   S    
C201  H237  S    
C143  H26   S    
C239  C257  A    
C16   C138  S    
C144  C145  S    
C173  H96   S    
C193  H144  S    
C67   H256  S    
C172  H98   S    
C139  C140  S    
C20   C151  S    
C242  O7    A    
C291  O43   A    
C12   C128  S    
C89   H190  S    
C19   C148  S    
C291  O37   A    
C241  C272  A    
C98   C181  S    
C194  H155  S    
C251  C278  A    
C233  C268  A    
C66   C70   A    
O41   Zn4   S    
C267  C284  A    
C209  H183  S    
C156  H59   S    
C18   C144  S    
C239  C268  A    
C127  H276  S    
C1    O46   A    
C101  H227  S    
C203  H166  S    
C112  C278  S    
C57   H222  S    
C196  H152  S    
C111  C194  S    
C180  H114  S    
C195  C196  S    
O29   Zn12  S    
C215  H199  S    
C200  C202  S    
C155  C156  S    
C264  C283  S    
C18   C31   A    
C202  H169  S    
C85   C257  A    
O21   Zn11  S    
C19   C30   A    
C159  H67   S    
C174  H108  S    
C178  H116  S    
C168  C233  A    
C139  H21   S    
C218  H208  S    
C103  C167  S    
C194  H156  S    
C80   C97   A    
C169  H92   S    
C84   C102  A    
C179  H235  S    
O6    Zn11  S    
C86   C104  A    
C128  C129  S    
C198  H161  S    
O15   Zn7   S    
C185  C186  S    
C128  H287  S    
C118  H264  S    
C271  C288  S    
C167  C169  S    
C184  H132  S    
C7    O24   A    
C38   C53   A    
C7    C26   S    
C145  H38   S    
C252  C279  A    
C151  H55   S    
C112  O45   A    
C224  C241  A    
C113  C227  A    
C39   C54   A    
O32   Zn2   S    
C217  H210  S    
C295  O13   A    
C115  C116  S    
C95   H215  S    
C222  C239  A    
C209  H181  S    
C184  C185  S    
C92   H211  S    
C85   H146  S    
C174  C175  S    
C52   C60   A    
C35   H220  S    
C163  H72   S    
C104  C177  S    
C176  H103  S    
C6    O22   A    
C132  H7    S    
C126  H277  S    
C82   C254  A    
C49   C75   A    
C237  C270  A    
C247  C273  A    
C243  C260  A    
O42   Zn4   S    
C173  H97   S    
C113  H228  S    
C292  O42   A    
C244  C274  A    
C9    C118  S    
C220  O44   A    
C96   C187  S    
C153  H50   S    
C235  C252  A    
C158  H70   S    
C121  H272  S    
C183  H120  S    
C20   C44   A    
C72   H13   S    
C197  H163  S    
C210  H194  S    
C119  H262  S    
C64   C76   A    
C275  O8    A    
C24   C201  A    
C293  O39   A    
C61   H1    S    
C200  H171  S    
C6    O25   A    
C127  H274  S    
C2    C97   A    
C167  H93   S    
C111  C146  A    
C37   C52   A    
C285  O27   A    
C201  C236  A    
C217  C218  S    
C140  H19   S    
C13   C190  A    
C289  O30   A    
C69   C72   A    
C35   C212  A    
C116  H255  S    
C289  O32   A    
C95   C267  A    
C129  H286  S    
C87   C105  A    
C184  H133  S    
C166  H80   S    
C54   C58   A    
C64   H223  S    
C161  H78   S    
C176  H104  S    
O5    Zn8   S    
C115  H258  S    
C152  H52   S    
C168  C286  A    
C90   H226  S    
C94   H214  S    
O13   Zn7   S    
C100  C174  S    
C149  H45   S    
C155  H60   S    
C14   C29   A    
C35   C100  A    
C122  H270  S    
C285  O31   A    
C48   C59   A    
C129  C130  S    
C57   C222  A    
C120  H260  S    
C105  C214  S    
C141  H31   S    
C211  C213  S    
C162  H75   S    
C195  H153  S    
C133  H5    S    
C224  H242  S    
C164  H85   S    
C136  C137  S    
C234  C251  A    
C219  H205  S    
C189  H137  S    
C190  C235  A    
C196  H150  S    
C170  H89   S    
C272  C293  S    
C149  H44   S    
C143  H27   S    
C249  C267  A    
C81   H101  S    
C290  O36   A    
C199  H160  S    
C117  H251  S    
C258  C280  A    
C209  H182  S    
C166  H82   S    
C202  H170  S    
C9    C38   A    
C133  H4    S    
C114  C204  S    
C160  H65   S    
C197  C198  S    
C124  H229  S    
C80   H90   S    
C74   H35   S    
C229  C247  A    
C152  C153  S    
O2    Zn9   S    
C156  H58   S    
C132  H6    S    
C232  C249  A    
O46   Zn6   S    
C240  C258  A    
C268  C289  S    
C203  H167  S    
C147  H34   S    
C25   C33   A    
C123  H268  S    
C13   H218  S    
C7    O26   A    
C182  H123  S    
C39   C65   A    
C82   C99   A    
C75   H46   S    
C192  H145  S    
C270  C287  S    
C150  H43   S    
C161  C162  S    
C15   C134  S    
O17   Zn5   S    
C152  H53   S    
O8    Zn9   S    
C257  C277  A    
C165  C166  S    
O27   Zn12  S    
C12   C28   A    
C245  C276  A    
C148  H48   S    
C240  C271  A    
C164  C165  S    
C11   C125  S    
O30   Zn12  S    
O25   Zn10  S    
O40   Zn4   S    
C288  O33   A    
C63   C77   A    
C264  O5    A    
C208  H185  S    
C221  H239  S    
C93   C265  A    
C81   C98   A    
C95   C114  A    
C120  H261  S    
C213  H189  S    
C183  H121  S    
C17   C141  S    
C130  H283  S    
C86   C258  A    
C90   C225  A    
C79   H225  S    
C65   H234  S    
C261  C283  A    
C254  C280  A    
C262  C284  A    
C295  O10   A    
C44   C58   A    
C208  C209  S    
C96   C286  A    
C151  C152  S    
C61   C75   A    
C67   C73   A    
C243  C273  A    
C33   C294  S    
C137  H11   S    
C214  H202  S    
C216  H198  S    
C144  H39   S    
C194  C195  S    
C131  H9    S    
C68   C223  A    
C213  H188  S    
C40   C66   A    
C179  C234  A    
C145  C147  S    
C19   C43   A    
C265  C282  A    
C172  H99   S    
C14   C131  S    
C225  H243  S    
C57   C103  A    
C226  H244  S    
C177  H118  S    
O44   Zn1   S    
C207  C208  S    
C47   C73   A    
C163  H74   S    
C193  H143  S    
C288  O29   A    
C22   C158  S    
C119  H263  S    
C210  H195  S    
C3    O15   A    
C236  C271  A    
C154  H62   S    
C83   C255  A    
C101  C226  A    
C223  H241  S    
C212  H238  S    
C238  C269  A    
C127  H275  S    
C51   C77   A    
O10   Zn5   S    
C12   C41   A    
C294  O11   A    
C227  C245  A    
C159  C160  S    
C248  C272  A    
C259  C281  A    
C140  H18   S    
C89   C107  A    
C220  C279  S    
C249  C276  A    
C46   H221  S    
O45   Zn7   S    
C134  H17   S    
C205  H177  S    
C121  C122  S    
C62   H112  S    
C199  H158  S    
C180  H111  S    
O47   Zn5   S    
C136  H15   S    
C275  O4    A    
C125  H280  S    
O1    Zn1   S    
C125  C126  S    
C286  H216  S    
C192  H147  S    
C293  O41   A    
C8    C37   A    
C81   C252  A    
C131  C132  S    
C150  H41   S    
C181  H126  S    
C174  H109  S    
C253  C282  S    
C9    C27   A    
C234  C269  A    
C162  C163  S    
C296  O14   A    
C102  C171  S    
C171  H102  S    
O43   Zn4   S    
C91   C108  A    
C155  H61   S    
C68   C104  A    
C229  H248  S    
C17   C45   A    
C185  H131  S    
C142  H29   S    
C198  H162  S    
C178  C180  S    
C119  C120  S    
C128  H288  S    
O19   Zn9   S    
O22   Zn8   S    
C154  H63   S    
C225  C243  A    
C165  H84   S    
C34   C52   A    
C213  H191  S    
C221  C238  A    
C23   C32   A    
C145  H37   S    
C63   H212  S    
C159  H69   S    
C1    O1    A    
C187  C188  S    
C190  H236  S    
C149  C150  S    
C188  H139  S    
C99   C191  S    
C206  H174  S    
C15   C28   A    
C217  H209  S    
C170  H87   S    
C230  H249  S    
C112  O12   A    
O26   Zn9   S    
C187  H140  S    
C290  O40   A    
C21   C50   A    
C41   C54   A    
C25   C49   A    
C92   C263  A    
C211  H192  S    
C88   C260  A    
C90   C106  A    
C228  C246  A    
C70   H278  S    
C177  C178  S    
C135  C229  A    
C138  H25   S    
C142  C143  S    
C62   C74   A    
C109  C200  S    
O35   Zn2   S    
O31   Zn2   S    
C171  C172  S    
O28   Zn12  S    
C24   C99   A    
C186  H128  S    
C169  C170  S    
C207  H186  S    
C153  H49   S    
C138  C139  S    
C158  H71   S    
C10   C121  S    
C183  H119  S    
C53   C59   A    
C175  H106  S    
C123  H269  S    
C205  C206  S    
C69   H267  S    
C235  C270  A    
C46   C102  A    
C46   C221  A    
C231  C280  S    
C269  C285  S    
C11   C36   A    
C223  C240  A    
C294  O9    A    
O38   Zn3   S    
C173  H95   S    
C248  C266  A    
C140  H20   S    
C181  C182  S    
C68   H224  S    
C186  H129  S    
C263  C283  A    
C116  C117  S    
C79   C105  A    
C44   C71   A    
C13   C98   A    
C169  H91   S    
C118  C119  S    
O16   Zn6   S    
C196  H151  S    
C134  H16   S    
C287  O35   A    
C77   H68   S    
C129  H285  S    
C132  C133  S    
C21   C154  S    
C161  H77   S    
C198  C199  S    
C170  H88   S    
C208  H184  S    
C274  C291  S    
C242  C281  S    
C138  H23   S    
C8    C115  S    
C88   H179  S    
C178  H115  S    
C14   C42   A    
C139  H22   S    
C218  H207  S    
C10   C26   A    
C250  C277  A    
C171  H100  S    
C45   C72   A    
C110  C135  A    
O14   Zn1   S    
C245  C262  A    
C122  H271  S    
C124  C228  A    
C4    O18   A    
C94   C266  A    
C21   C32   A    
C162  H76   S    
C131  H8    S    
C2    H217  S    
C148  C149  S    
C91   H201  S    
C214  C215  S    
O37   Zn3   S    
C134  C136  S    
C16   C29   A    
C65   C71   A    
C142  H30   S    
C42   C69   A    
C189  H134  S    
C238  C256  A    
C188  C189  S    
C247  C265  A    
C206  H175  S    
C3    C30   S    
C83   H124  S    
C199  H159  S    
C5    C28   S    
C88   C106  A    
C256  C278  A    
C6    C27   S    
C24   H219  S    
C116  H254  S    
C55   C56   A    
C133  H3    S    
C10   C34   A    
C160  H66   S    
C204  C205  S    
C275  C284  S    
C91   C262  A    
C203  H165  S    
O24   Zn11  S    
C266  C281  A    
C205  H176  S    
C16   C40   A    
C43   C70   A    
C123  H266  S    
C232  H250  S    
C93   H213  S    
C153  H51   S    
C73   H24   S    
C2    C179  A    
C216  H197  S    
C121  H273  S    
C118  H265  S    
C5    O21   A    
C147  H33   S    
C230  C248  A    
C172  C173  S    
C197  H164  S    
C180  H110  S    
C146  C230  A    
C136  H14   S    
C22   C33   A    
O18   Zn8   S    
C23   C48   A    
C241  C259  A    
C255  C279  A    
C242  O48   A    
C167  H94   S    
C4    C29   S    
C260  C282  A    
C109  C124  A    
C51   C60   A    
C115  H257  S    
C3    O17   A    
C236  C254  A    
C192  C193  S    
C76   H57   S    
C71   H2    S    
C141  C142  S    
C47   C58   A    
O23   Zn6   S    
C296  O16   A    
C218  C219  S    
C126  H279  S    
O33   Zn2   S    
C130  H284  S    
C135  H230  S    
C253  O2    A    
C200  H172  S    
C137  H10   S    
C188  H138  S    
C276  C292  S    
C43   C56   A    
C210  C211  S    
C273  C290  S    
C227  H246  S    
C204  H178  S    
C187  H141  S    
C287  O28   A    
C214  H203  S    
C244  C261  A    
O36   Zn3   S    
C23   C161  S    
C122  C123  S    
C157  H232  S    
C264  O3    A    
C164  H86   S    
C246  C263  A    
C211  H193  S    
C157  C232  A    
C117  H253  S    
C22   C51   A    
C4    O20   A    
C20   C31   A    
