data_mof_unit_59005.cif
_audit_creation_date              2012-10-26T19:03:30-0400
_audit_creation_method            fapswitch 2.2
_symmetry_space_group_name_H-M    P1
_symmetry_Int_Tables_number       1
_space_group_crystal_system       triclinic
_cell_length_a                    10.792807
_cell_length_b                    12.99197
_cell_length_c                    11.754276
_cell_angle_alpha                 99.494559
_cell_angle_beta                  94.057595
_cell_angle_gamma                 92.28852
_cell_volume                      1619.29771026

loop_
_atom_site_label
_atom_site_type_symbol
_atom_type_description
_atom_site_fract_x
_atom_site_fract_y
_atom_site_fract_z
_atom_type_partial_charge
Br1   Br    Br    0.893780 0.890449 0.758828 -0.605217
C1    C     C_R   0.498646 0.299487 0.478785 0.545319
C2    C     C_R   0.419346 0.127534 0.372395 -0.158674
C3    C     C_R   0.548195 0.137301 0.551398 -0.141433
C4    C     C_R   0.262628 0.500691 0.500110 0.555190
C5    C     C_R   0.530932 0.029641 0.544953 0.012163
C6    C     C_R   0.455027 0.970032 0.451791 0.081337
C7    C     C_R   0.436272 0.861652 0.446922 0.129494
C8    C     C_R   0.570995 0.874235 0.625223 -0.142998
C9    C     C_R   0.586487 0.981501 0.631825 -0.126290
C10   C     C_R   0.375145 0.408682 0.022128 -0.131935
C11   C     C_R   0.392419 0.408803 0.142076 0.303014
C12   C     C_R   0.075612 0.594752 0.560396 -0.019380
C13   C     C_R   0.551663 0.543759 0.156999 0.005803
C14   C     C_R   0.542965 0.537546 0.034250 -0.032807
C15   C     C_R   0.453248 0.468462 0.966097 -0.013100
C16   C     C_R   0.498600 0.700444 0.520967 0.526211
C17   C     C_R   0.445561 0.458767 0.842832 0.291560
C18   C     C_R   0.609125 0.588530 0.855915 0.024993
C19   C     C_R   0.620829 0.598583 0.977730 -0.176041
C20   C     C_R   0.737338 0.504160 0.500497 0.536678
C21   C     C_R   0.149470 0.683483 0.616564 -0.145380
C22   C     C_R   0.095085 0.770166 0.675002 -0.081443
C23   C     C_R   0.128823 0.505418 0.501001 0.036698
C24   C     C_R   0.966463 0.771041 0.677750 0.173820
C25   C     C_R   0.891339 0.685333 0.620814 -0.078056
C26   C     C_R   0.944781 0.596171 0.561726 -0.015710
C27   C     C_3   0.138808 0.255577 0.462593 -0.310977
C28   C     C_3   0.383955 0.276613 0.763743 -0.280103
C29   C     C_3   0.245245 0.250270 0.118816 -0.343844
C30   C     C_3   0.385240 0.774457 0.246389 -0.279546
C31   C     C_R   0.053273 0.419959 0.441375 0.113693
C32   C     C_R   0.925074 0.423852 0.440026 -0.130392
C33   C     C_R   0.871153 0.509305 0.501157 -0.018910
C34   C     C_R   0.499261 0.813767 0.532187 -0.000413
C35   C     C_R   0.490822 0.186350 0.466258 -0.002767
C36   C     C_R   0.399143 0.020709 0.366250 -0.126229
Cu1   Cu    Cu3+1 0.509250 0.507730 0.615930 0.951646
Cu2   Cu    Cu3+1 0.490750 0.492270 0.384070 0.945196
H1    H     H_    0.643441 0.026647 0.704003 0.154473
H2    H     H_    0.791624 0.689900 0.622479 0.139712
H3    H     H_    0.866918 0.357559 0.394738 0.124769
H4    H     H_    0.617912 0.837881 0.691589 0.168309
H5    H     H_    0.339124 0.979061 0.294567 0.142380
H6    H     H_    0.053285 0.291328 0.312242 0.250279
H7    H     H_    0.177033 0.185531 0.412822 0.139131
H8    H     H_    0.055434 0.230153 0.503219 0.152409
H9    H     H_    0.210525 0.292465 0.531001 0.170244
H10   H     H_    0.265950 0.401135 0.785002 0.228452
H11   H     H_    0.351761 0.235153 0.675940 0.153847
H12   H     H_    0.374875 0.164811 0.306001 0.146787
H13   H     H_    0.332857 0.238863 0.825694 0.105753
H14   H     H_    0.485140 0.266400 0.779500 0.155701
H15   H     H_    0.301827 0.348309 0.272569 0.322862
H16   H     H_    0.210726 0.193418 0.171671 0.137803
H17   H     H_    0.295612 0.206353 0.048669 0.153773
H18   H     H_    0.163275 0.286596 0.082495 0.147333
H19   H     H_    0.293822 0.746025 0.390953 0.261740
H20   H     H_    0.380522 0.688220 0.221555 0.166994
H21   H     H_    0.481456 0.805003 0.238443 0.148967
H22   H     H_    0.320355 0.805920 0.184795 0.139910
H23   H     H_    0.605350 0.183144 0.623045 0.118126
H24   H     H_    0.669656 0.636311 0.813888 0.139024
H25   H     H_    0.300704 0.360706 0.972070 0.104522
H26   H     H_    0.690550 0.653610 0.027158 0.111515
H27   H     H_    0.618945 0.598584 0.210069 0.128044
H28   H     H_    0.249514 0.687481 0.615277 0.135126
H29   H     H_    0.153351 0.837083 0.717887 0.144816
N1    N     N_R   0.523180 0.519350 0.790130 -0.207868
N2    N     N_R   0.476820 0.480650 0.209890 -0.230111
N3    N     N_2   0.105597 0.327948 0.385709 -0.533576
N4    N     N_2   0.357617 0.386265 0.772691 -0.462953
N5    N     N_2   0.327927 0.329639 0.190657 -0.495279
N6    N     N_2   0.347025 0.803146 0.362733 -0.522101
O1    O     O_R   0.506570 0.354460 0.582000 -0.482094
O2    O     O_R   0.490940 0.341410 0.386200 -0.493629
O3    O     O_R   0.327470 0.506530 0.597920 -0.489408
O4    O     O_R   0.311840 0.493480 0.402120 -0.512524
O5    O     O_R   0.509060 0.658590 0.613800 -0.526728
O6    O     O_R   0.493430 0.645540 0.418000 -0.500565
O7    O     O_R   0.688160 0.506520 0.597880 -0.507757
O8    O     O_R   0.672530 0.493470 0.402080 -0.499372

loop_
_geom_bond_atom_site_label_1
_geom_bond_atom_site_label_2
_ccdc_geom_bond_type
C22   H29   S    
C3    C35   A    
C27   H8    S    
H6    N3    S    
C30   H22   S    
C18   C19   A    
C6    C7    A    
C27   H7    S    
C25   C26   A    
C32   H3    S    
Cu1   Cu2   S    
Cu1   O5    S    
C14   C15   A    
C29   H18   S    
C3    H23   S    
C16   O5    A    
C9    H1    S    
C30   H20   S    
C18   H24   S    
H10   N4    S    
C8    C9    A    
Cu1   O1    S    
C28   N4    S    
C17   N1    A    
Cu1   N1    S    
C11   N5    S    
Br1   C24   S    
C13   N2    A    
C31   N3    S    
C28   H11   S    
C26   C33   A    
C17   N4    S    
C14   C19   A    
C8    H4    S    
Cu2   O4    S    
C19   H26   S    
C3    C5    A    
C10   H25   S    
C29   N5    S    
C2    H12   S    
C30   N6    S    
C20   C33   S    
C24   C25   A    
C29   H17   S    
C16   O6    A    
C12   C23   A    
C6    C36   A    
C7    C34   A    
C30   H21   S    
C23   C31   A    
H15   N5    S    
C10   C15   A    
C7    N6    S    
C32   C33   A    
C13   H27   S    
Cu2   O2    S    
C20   O7    A    
Cu1   O7    S    
C18   N1    A    
C27   N3    S    
C4    O3    A    
C1    O2    A    
H19   N6    S    
C1    C35   S    
C11   N2    A    
C27   H9    S    
C21   C22   A    
Cu2   O8    S    
C5    C9    A    
C10   C11   A    
C5    C6    A    
Cu1   O3    S    
C29   H16   S    
Cu2   O6    S    
C36   H5    S    
C31   C32   A    
C4    C23   S    
C28   H14   S    
C2    C35   A    
Cu2   N2    S    
C12   C21   A    
C22   C24   A    
C21   H28   S    
C20   O8    A    
C2    C36   A    
C15   C17   A    
C8    C34   A    
C13   C14   A    
C12   C26   A    
C16   C34   S    
C4    O4    A    
C1    O1    A    
C25   H2    S    
C28   H13   S    
