data_mof_unit_27096.cif
_audit_creation_date              2013-03-05T16:33:41-0500
_audit_creation_method            fapswitch 2.2
_symmetry_space_group_name_H-M    P1
_symmetry_Int_Tables_number       1
_space_group_crystal_system       triclinic
_cell_length_a                    9.076892
_cell_length_b                    10.826386
_cell_length_c                    9.573314
_cell_angle_alpha                 89.869946
_cell_angle_beta                  90.26116
_cell_angle_gamma                 90.552704
_cell_volume                      940.713084207

loop_
_atom_site_label
_atom_site_type_symbol
_atom_site_description
_atom_site_fract_x
_atom_site_fract_y
_atom_site_fract_z
_atom_type_partial_charge
O1    O     O_R   0.500000 0.319640 0.618810 -0.588792
O2    O     O_R   0.500020 0.319680 0.381230 -0.548296
C1    C     C_R   0.501845 0.262518 0.500221 0.807571
O3    O     O_R   0.288380 0.499980 0.618770 -0.596196
O4    O     O_R   0.288400 0.500020 0.381190 -0.520294
C2    C     C_R   0.220761 0.499958 0.499775 0.849045
Cu1   Cu    Cu3+1 0.499990 0.499980 0.640670 0.962560
Cu2   Cu    Cu3+1 0.500010 0.500020 0.359330 1.045107
O5    O     O_R   0.499980 0.680320 0.618770 -0.584029
O6    O     O_R   0.500000 0.680360 0.381190 -0.588377
O7    O     O_R   0.711600 0.499980 0.618810 -0.583550
O8    O     O_R   0.711620 0.500020 0.381230 -0.543216
C3    C     C_R   0.501485 0.737691 0.499998 0.806166
C4    C     C_R   0.779240 0.500236 0.500198 0.846870
C5    C     C_1   0.065566 0.500131 0.499656 -0.105628
C6    C     C_1   0.934432 0.500237 0.500210 -0.105794
C7    C     C_R   0.495984 0.063638 0.625505 0.119017
C8    C     C_R   0.514142 0.129584 0.501276 -0.094104
C9    C     C_R   0.549983 0.065466 0.378947 -0.155722
H1    H     H_    0.572723 0.114084 0.282286 0.187818
C10   C     C_R   0.549169 0.936815 0.378920 -0.154647
C11   C     C_R   0.512855 0.871197 0.500980 -0.093197
C12   C     C_R   0.495179 0.936332 0.625432 0.106020
C13   C     C_3   0.372579 0.929704 0.729086 -0.440101
C14   C     C_3   0.374193 0.069853 0.729498 -0.431750
H2    H     H_    0.407843 0.889450 0.830524 0.200114
H3    H     H_    0.272117 0.110906 0.685459 0.203211
H4    H     H_    0.411796 0.109955 0.830517 0.214695
C15   C     C_R   0.616530 0.548426 0.073891 0.167120
N1    N     N_R   0.500920 0.500930 0.147930 -0.278706
C16   C     C_R   0.393466 0.438524 0.072720 0.405733
C17   C     C_R   0.393557 0.439839 0.924284 -0.120828
H5    H     H_    0.306737 0.392290 0.867528 0.172785
N2    N     N_R   0.500930 0.500890 0.852020 -0.211089
C18   C     C_R   0.616776 0.548046 0.926694 0.216580
C19   C     C_3   0.676210 0.676607 0.918234 -0.526643
C20   C     C_3   0.672487 0.678456 0.077132 0.120416
H6    H     H_    0.788569 0.679773 0.872559 0.230369
H7    H     H_    0.597248 0.741747 0.869975 0.186014
N3    N     N_R   0.818646 0.688671 0.141397 0.160540
O9    O     O_R   0.842956 0.770904 0.237794 -0.368983
O10   O     O_R   0.924046 0.614379 0.106174 -0.307101
H8    H     H_    0.591316 0.744173 0.119568 0.104296
H9    H     H_    0.571344 0.889668 0.282411 0.175498
H10   H     H_    0.269712 0.889083 0.684427 0.207823
N4    N     N_R   0.278978 0.371237 0.141642 0.139743
O11   O     O_R   0.143626 0.407728 0.127467 -0.316422
O12   O     O_R   0.302810 0.257915 0.180121 -0.371647

loop_
_geom_bond_atom_site_label_1
_geom_bond_atom_site_label_2
_geom_bond_distance
_ccdc_geom_bond_type
C20   H8    1.108256 S    
O4    Cu2   1.933076 S    
C12   C13   1.495464 S    
C15   N1    1.364819 A    
C14   H3    1.112330 S    
C10   H9    1.077255 S    
C15   C18   1.409183 A    
C16   C17   1.421062 A    
C18   C19   1.490045 S    
N1    C16   1.381770 A    
Cu2   O8    1.931220 S    
C7    C14   1.493160 S    
C17   H5    1.082026 S    
C19   H6    1.111685 S    
C7    C8    1.395330 A    
Cu2   N1    2.023855 S    
Cu1   Cu2   2.693355 S    
O1    Cu1   1.964087 S    
C10   C11   1.404978 A    
C14   H4    1.111887 S    
Cu1   O7    1.933077 S    
C7    C12   1.378209 A    
O3    Cu1   1.931219 S    
C13   H10   1.112338 S    
N3    O10   1.301895 A    
N3    O9    1.300390 A    
C9    C10   1.392771 A    
C13   H2    1.110565 S    
C3    C11   1.448128 S    
O2    C1    1.295273 A    
C20   N3    1.463154 S    
N4    O12   1.300014 A    
C19   H7    1.108935 S    
O4    C2    1.293083 A    
Cu1   N2    2.023346 S    
C4    C6    1.408661 S    
C5    C6    1.190335 T    
C8    C9    1.403807 A    
C13   C14   1.517252 S    
C1    C8    1.444603 S    
O3    C2    1.291535 A    
N2    C18   1.364496 A    
C15   C20   1.492307 S    
O7    C4    1.293309 A    
Cu1   O5    1.963183 S    
O5    C3    1.294454 A    
N4    O11   1.300571 A    
C19   C20   1.521896 S    
C2    C5    1.408705 S    
C11   C12   1.396510 A    
O6    C3    1.296913 A    
Cu2   O6    1.964087 S    
O2    Cu2   1.963181 S    
C9    H1    1.083233 S    
O8    C4    1.291310 A    
O1    C1    1.294280 A    
C16   N4    1.426678 S    
C17   N2    1.362714 A    
