data_mof_unit_21978.cif
_audit_creation_date              2012-12-10T20:27:55-0500
_audit_creation_method            fapswitch 2.2
_symmetry_space_group_name_H-M    P1
_symmetry_Int_Tables_number       1
_space_group_crystal_system       triclinic
_cell_length_a                    12.767502
_cell_length_b                    10.773705
_cell_length_c                    9.924082
_cell_angle_alpha                 91.139366
_cell_angle_beta                  97.022785
_cell_angle_gamma                 89.194981
_cell_volume                      1354.48806048

loop_
_atom_site_label
_atom_site_type_symbol
_atom_type_description
_atom_site_fract_x
_atom_site_fract_y
_atom_site_fract_z
_atom_type_partial_charge
C1    C     C_R   0.501759 0.260521 0.498684 0.923382
C2    C     C_R   0.506903 0.932225 0.377034 -0.287045
C3    C     C_R   0.485681 0.871881 0.495561 -0.193362
C4    C     C_R   0.298611 0.498838 0.472951 0.953741
C5    C     C_R   0.451488 0.942990 0.601083 -0.038230
C6    C     C_3   0.459869 0.939712 0.753624 0.195609
C7    C     C_3   0.484278 0.079685 0.754175 0.936039
C8    C     C_R   0.414256 0.539858 0.059206 -0.112444
C9    C     C_R   0.587359 0.464331 0.085011 0.564729
C10   C     C_R   0.589337 0.469682 0.941747 0.437945
C11   C     C_R   0.412838 0.536335 0.917399 -0.116718
C12   C     C_R   0.024069 0.434178 0.525367 -0.015145
C13   C     C_3   0.303660 0.483115 0.898312 0.316759
C14   C     C_3   0.305978 0.490534 0.052593 0.383752
C15   C     C_R   0.496397 0.739847 0.500180 0.887463
C16   C     C_R   0.701416 0.497597 0.526292 0.859059
C17   C     C_R   0.812989 0.484148 0.539497 -0.051328
C18   C     C_R   0.186462 0.499324 0.453180 -0.202763
C19   C     C_R   0.026743 0.605261 0.366347 0.624474
C20   C     C_R   0.134376 0.589394 0.369830 -0.363451
C21   C     C_R   0.131862 0.415327 0.523478 0.456964
C22   C     C_3   0.417164 0.159485 0.946258 -0.012695
C23   C     C_R   0.972125 0.531672 0.448228 -0.031886
C24   C     C_3   0.671606 0.068054 0.744014 -0.317349
C25   C     C_3   0.755931 0.528096 0.917353 -0.212955
C26   C     C_3   0.126288 0.531093 0.842435 -0.277886
C27   C     C_3   0.198542 0.219412 0.517113 -0.244896
C28   C     C_3   0.352118 0.806893 0.851439 -0.191064
C29   C     C_R   0.866716 0.555344 0.456112 -0.145012
C30   C     C_R   0.862465 0.387394 0.615200 -0.217220
C31   C     C_R   0.968033 0.361415 0.607185 -0.169219
C32   C     C_R   0.465262 0.067561 0.602608 -0.123668
C33   C     C_R   0.494904 0.129276 0.492876 -0.286305
C34   C     C_R   0.510073 0.060703 0.374699 0.636653
F1    F     F_    0.672298 0.417674 0.163872 -0.614270
F2    F     F_    0.304363 0.374802 0.110175 -0.677482
F3    F     F_    0.977291 0.696536 0.289203 -0.673974
F4    F     F_    0.536398 0.115550 0.261677 -0.646719
H1    H     H_    0.825305 0.628308 0.396395 0.191043
H2    H     H_    0.445489 0.069923 0.992634 0.173653
H3    H     H_    0.339035 0.179722 0.979879 0.201403
H4    H     H_    0.680314 0.126783 0.655630 0.174690
H5    H     H_    0.662848 0.969104 0.712044 0.123174
H6    H     H_    0.746262 0.075103 0.813568 0.221133
H7    H     H_    0.725373 0.619989 0.879497 0.132371
H8    H     H_    0.783837 0.534768 0.027729 0.203797
H9    H     H_    0.825777 0.504241 0.865380 0.176402
H10   H     H_    0.102786 0.563620 0.941314 0.162294
H11   H     H_    0.115139 0.429053 0.830829 0.191847
H12   H     H_    0.525622 0.880663 0.802996 0.064556
H13   H     H_    0.072138 0.577400 0.762491 0.197077
H14   H     H_    0.250640 0.240290 0.438600 0.163365
H15   H     H_    0.121185 0.184179 0.468326 0.163803
H16   H     H_    0.236933 0.144038 0.580548 0.233846
H17   H     H_    0.412937 0.795062 0.940782 0.126866
H18   H     H_    0.358583 0.733834 0.772545 0.235357
H19   H     H_    0.273738 0.799577 0.887786 0.218961
H20   H     H_    0.301732 0.387889 0.852596 0.184875
H21   H     H_    0.251433 0.559264 0.092594 0.099934
H22   H     H_    0.818484 0.329426 0.675822 0.179073
H23   H     H_    0.005551 0.285677 0.665766 0.186507
H24   H     H_    0.177954 0.651603 0.313294 0.187567
H25   H     H_    0.526899 0.880861 0.288552 0.193619
H26   H     H_    0.471893 0.234737 0.985014 0.192069
N1    N     N_R   0.499290 0.499140 0.142710 -0.139532
N2    N     N_R   0.499290 0.499180 0.857070 -0.171881
O1    O     O_R   0.500010 0.316790 0.614690 -0.567060
O2    O     O_3   0.588303 0.113433 0.813877 -0.616353
O3    O     O_3   0.679797 0.434384 0.887238 -0.540905
O4    O     O_3   0.230499 0.566872 0.829574 -0.629154
O5    O     O_3   0.185478 0.323901 0.601474 -0.614386
O6    O     O_3   0.358628 0.923516 0.794463 -0.598713
O7    O     O_R   0.500000 0.316760 0.385350 -0.517248
O8    O     O_R   0.346360 0.499990 0.595720 -0.564515
O9    O     O_R   0.346350 0.499960 0.366370 -0.601510
O10   O     O_R   0.500000 0.683240 0.614650 -0.649147
O11   O     O_R   0.499990 0.683210 0.385310 -0.637636
O12   O     O_R   0.653650 0.500040 0.633630 -0.589130
O13   O     O_R   0.653640 0.500010 0.404280 -0.550940
O14   O     O_3   0.405271 0.156177 0.802747 -0.621369
Zn1   Zn    Zn3+2 0.500010 0.500020 0.653130 1.017738
Zn2   Zn    Zn3+2 0.499990 0.499980 0.346870 1.058976

loop_
_geom_bond_atom_site_label_1
_geom_bond_atom_site_label_2
_ccdc_geom_bond_type
C18   C21   A    
C24   H4    S    
C31   H23   S    
C19   C20   A    
C28   H18   S    
C27   H16   S    
C1    C33   S    
C15   O11   A    
C28   H19   S    
C2    H25   S    
C6    O6    S    
C14   H21   S    
C12   C23   A    
C21   O5    S    
C23   C29   A    
C14   F2    S    
C5    C6    S    
C22   H3    S    
C13   O4    S    
C17   C29   A    
C4    O9    A    
C19   F3    S    
C7    O2    S    
C16   C17   S    
C30   H22   S    
C9    C10   A    
C25   H9    S    
C4    O8    A    
C11   N2    A    
C26   H10   S    
C5    C32   A    
C4    C18   S    
C2    C34   A    
C15   O10   A    
C8    N1    A    
C13   C14   S    
C17   C30   A    
C28   O6    S    
C28   H17   S    
C10   N2    A    
C26   H11   S    
C13   H20   S    
C12   C21   A    
C27   O5    S    
C19   C23   A    
C22   H2    S    
C29   H1    S    
C33   C34   A    
C6    H12   S    
O1    Zn1   S    
C12   C31   A    
C26   O4    S    
C25   O3    S    
O8    Zn1   S    
C25   H7    S    
O7    Zn2   S    
C3    C15   S    
C27   H14   S    
C16   O12   A    
C8    C14   S    
C7    C32   S    
C34   F4    S    
C3    C5    A    
O10   Zn1   S    
O13   Zn2   S    
C27   H15   S    
O9    Zn2   S    
C6    C7    S    
C16   O13   A    
C1    O7    A    
C32   C33   A    
C2    C3    A    
C22   O14   S    
C26   H13   S    
N2    Zn1   S    
C11   C13   S    
O12   Zn1   S    
N1    Zn2   S    
C30   C31   A    
O11   Zn2   S    
C8    C11   A    
C24   H6    S    
C1    O1    A    
C18   C20   A    
C20   H24   S    
C9    N1    A    
C24   O2    S    
C22   H26   S    
C10   O3    S    
C9    F1    S    
C24   H5    S    
C25   H8    S    
C7    O14   S    
