data_mof_unit_12039.cif
_audit_creation_date              2013-03-05T16:41:01-0500
_audit_creation_method            fapswitch 2.2
_symmetry_space_group_name_H-M    P1
_symmetry_Int_Tables_number       1
_space_group_crystal_system       triclinic
_cell_length_a                    18.873988
_cell_length_b                    18.493379
_cell_length_c                    19.066852
_cell_angle_alpha                 109.132126
_cell_angle_beta                  109.949079
_cell_angle_gamma                 108.408016
_cell_volume                      5180.06797665

loop_
_atom_site_label
_atom_site_type_symbol
_atom_site_description
_atom_site_fract_x
_atom_site_fract_y
_atom_site_fract_z
_atom_type_partial_charge
O1    O     O_R   0.408360 0.551710 0.460090 -0.612800
O2    O     O_R   0.408400 0.448280 0.356670 -0.569840
C1    C     C_R   0.382338 0.503717 0.381295 0.877274
O3    O     O_R   0.591600 0.643340 0.551710 -0.668442
O4    O     O_R   0.591630 0.539900 0.448290 -0.518617
C2    C     C_R   0.620763 0.621242 0.501684 0.953261
Zn1   Zn    Zn3+2 0.499980 0.569060 0.569060 1.065059
Zn2   Zn    Zn3+2 0.500020 0.430940 0.430940 1.234688
O5    O     O_R   0.591600 0.551720 0.643330 -0.670528
O6    O     O_R   0.591640 0.448290 0.539910 -0.539502
O7    O     O_R   0.408370 0.460100 0.551710 -0.608865
O8    O     O_R   0.408400 0.356660 0.448290 -0.576512
C3    C     C_R   0.616450 0.495873 0.619356 0.946255
C4    C     C_R   0.377932 0.380334 0.497824 0.934759
C5    C     C_R   0.721192 0.889710 0.762225 0.365284
C6    C     C_R   0.718127 0.857788 0.682232 -0.101485
C7    C     C_R   0.746047 0.795495 0.659280 -0.051081
C8    C     C_R   0.783436 0.772145 0.719296 0.451458
C9    C     C_R   0.788885 0.805865 0.799073 -0.208946
H1    H     H_    0.819695 0.788028 0.844771 0.214261
C10   C     C_R   0.756110 0.862890 0.820622 -0.125444
C11   C     C_R   0.817263 0.827413 0.576842 -0.069571
C12   C     C_R   0.811086 0.813241 0.497243 -0.223866
C13   C     C_R   0.734948 0.744640 0.419270 -0.050468
C14   C     C_R   0.671349 0.684168 0.422677 0.386153
C15   C     C_R   0.683425 0.691195 0.501610 -0.193058
C16   C     C_R   0.750839 0.768062 0.578770 0.017296
C17   C     C_R   0.695510 0.788243 0.304208 -0.047795
C18   C     C_R   0.684286 0.778102 0.224377 -0.069318
H2    H     H_    0.668785 0.821326 0.202861 0.226581
C19   C     C_R   0.689998 0.711140 0.169994 0.291989
C20   C     C_R   0.703815 0.649765 0.192983 -0.161841
C21   C     C_R   0.718179 0.661159 0.274873 0.394713
C22   C     C_R   0.719374 0.733545 0.332839 -0.056596
C23   C     C_R   0.449271 0.789707 0.542205 -0.202952
C24   C     C_R   0.390235 0.702964 0.476126 0.462606
C25   C     C_R   0.389343 0.672212 0.397630 -0.223414
C26   C     C_R   0.442448 0.730743 0.382883 0.306763
C27   C     C_R   0.486275 0.820240 0.440610 0.372039
C28   C     C_R   0.491074 0.851073 0.521383 -0.282338
C29   C     C_R   0.252417 0.582224 0.259119 -0.039841
C30   C     C_R   0.182568 0.500719 0.191640 -0.184701
C31   C     C_R   0.171604 0.423238 0.197078 0.096363
C32   C     C_R   0.239725 0.427388 0.259989 -0.078699
H3    H     H_    0.232934 0.369454 0.265799 0.197698
C33   C     C_R   0.314677 0.506028 0.319110 -0.049269
C34   C     C_R   0.318944 0.585239 0.324060 0.103648
C35   C     C_R   0.024373 0.356138 0.172936 -0.232788
H4    H     H_    0.040087 0.421006 0.216542 0.171340
C36   C     C_R   0.942162 0.287974 0.135735 0.327463
C37   C     C_R   0.919153 0.204354 0.076594 0.377684
C38   C     C_R   0.980048 0.188857 0.056703 0.241724
C39   C     C_R   0.065238 0.257677 0.096617 -0.167681
C40   C     C_R   0.085823 0.343888 0.152294 0.036615
C41   C     C_R   0.255414 0.538463 0.616672 0.333786
C42   C     C_R   0.271570 0.467528 0.596262 0.384743
C43   C     C_R   0.232244 0.402605 0.510603 -0.067096
C44   C     C_R   0.172174 0.406773 0.445599 0.296963
C45   C     C_R   0.147145 0.471924 0.466923 -0.112099
C46   C     C_R   0.193048 0.541405 0.552540 -0.106380
C47   C     C_R   0.172438 0.251068 0.485541 0.446427
C48   C     C_R   0.186485 0.184368 0.496887 -0.213034
C49   C     C_R   0.266650 0.186142 0.514150 0.036304
C50   C     C_R   0.328250 0.250032 0.511911 0.401545
C51   C     C_R   0.312725 0.315023 0.499004 -0.196934
C52   C     C_R   0.238077 0.320285 0.493290 0.001572
C53   C     C_R   0.317632 0.142827 0.626968 -0.196294
C54   C     C_R   0.343661 0.087772 0.652052 0.309574
C55   C     C_R   0.351357 0.023119 0.596070 0.437821
C56   C     C_R   0.328131 0.008847 0.511995 -0.212644
C57   C     C_R   0.296558 0.060021 0.484812 0.316036
C58   C     C_R   0.291658 0.127173 0.541826 0.021750
C59   C     C_R   0.536214 0.557501 0.840862 -0.050203
H5    H     H_    0.528052 0.613650 0.868301 0.217818
C60   C     C_R   0.590842 0.562472 0.805697 0.054577
C61   C     C_R   0.598291 0.487658 0.766591 0.003700
C62   C     C_R   0.552880 0.411318 0.766979 -0.096661
H6    H     H_    0.563578 0.356387 0.742161 0.205290
C63   C     C_R   0.511446 0.412177 0.815839 0.037574
C64   C     C_R   0.497384 0.483830 0.847733 -0.028222
C65   C     C_R   0.742040 0.498290 0.821317 -0.020163
C66   C     C_R   0.815557 0.504028 0.815164 -0.117825
C67   C     C_R   0.827805 0.517737 0.750199 0.094063
C68   C     C_R   0.757618 0.504745 0.681052 0.408154
C69   C     C_R   0.682372 0.495180 0.685119 -0.204443
C70   C     C_R   0.675485 0.495707 0.756987 -0.080905
C71   C     C_R   0.972074 0.652418 0.820167 -0.114382
C72   C     C_R   0.055658 0.691791 0.832043 0.217017
C73   C     C_R   0.079642 0.645048 0.779344 0.275880
C74   C     C_R   0.020410 0.559295 0.713960 0.310380
C75   C     C_R   0.941023 0.515616 0.708234 0.379633
C76   C     C_R   0.915787 0.561479 0.761416 -0.062847
O9    O     O_R   0.051730 0.908360 0.460060 -0.597605
O10   O     O_R   0.948280 0.908380 0.356650 -0.580980
C77   C     C_R   0.996874 0.874997 0.381542 0.895976
O11   O     O_R   0.960110 0.908350 0.551690 -0.609156
O12   O     O_R   0.856660 0.908370 0.448270 -0.663027
C78   C     C_R   0.879724 0.876602 0.496565 0.808876
Zn3   Zn    Zn3+2 0.069070 0.999960 0.569030 1.094698
Zn4   Zn    Zn3+2 0.930930 0.999990 0.430930 1.074998
O13   O     O_R   0.051720 0.091580 0.643310 -0.616914
O14   O     O_R   0.948270 0.091600 0.539890 -0.627701
O15   O     O_R   0.143340 0.091590 0.551680 -0.633420
O16   O     O_R   0.039890 0.091610 0.448270 -0.537815
C79   C     C_R   0.001120 0.122685 0.618942 0.893317
C80   C     C_R   0.120105 0.118210 0.497780 1.020935
O17   O     O_R   0.051730 0.460050 0.908360 -0.584532
O18   O     O_R   0.948290 0.356630 0.908390 -0.600818
C81   C     C_R   0.003362 0.379987 0.883157 0.924512
O19   O     O_R   0.143340 0.551690 0.091580 -0.562609
O20   O     O_R   0.039900 0.448270 0.091610 -0.648157
C82   C     C_R   0.119205 0.498804 0.120145 0.825766
Zn5   Zn    Zn3+2 0.069070 0.569030 0.999960 1.097419
Zn6   Zn    Zn3+2 0.930930 0.430930 0.000000 1.059285
O21   O     O_R   0.051710 0.643320 0.091560 -0.595889
O22   O     O_R   0.948270 0.539900 0.091590 -0.634540
O23   O     O_R   0.960100 0.551680 0.908340 -0.621656
O24   O     O_R   0.856660 0.448270 0.908370 -0.619155
C83   C     C_R   0.001143 0.621202 0.120232 0.825949
C84   C     C_R   0.880717 0.500994 0.880096 0.958389
C85   C     C_R   0.071792 0.763834 0.549838 -0.230932
C86   C     C_R   0.076495 0.774762 0.481631 0.586114
C87   C     C_R   0.006705 0.721068 0.397740 -0.140669
C88   C     C_R   0.941046 0.641858 0.378645 -0.211321
C89   C     C_R   0.937928 0.627074 0.446312 0.554975
C90   C     C_R   0.999989 0.691269 0.532482 -0.245294
C91   C     C_R   0.022381 0.682505 0.266496 -0.031545
C92   C     C_R   0.011469 0.690732 0.193123 -0.187028
C93   C     C_R   0.020148 0.770240 0.194638 -0.059868
C94   C     C_R   0.018203 0.830998 0.259364 0.356353
C95   C     C_R   0.005155 0.811617 0.320225 -0.196952
C96   C     C_R   0.011898 0.739321 0.327794 0.004539
C97   C     C_R   0.121262 0.840541 0.149582 0.079337
C98   C     C_R   0.138797 0.890935 0.110413 -0.232885
H7    H     H_    0.204067 0.925559 0.123566 0.167388
C99   C     C_R   0.074498 0.901239 0.058107 -0.023021
C100  C     C_R   0.989996 0.856062 0.040145 -0.016694
H8    H     H_    0.940162 0.863317 0.998700 0.229960
C101  C     C_R   0.969112 0.801405 0.074644 -0.072729
C102  C     C_R   0.035514 0.796241 0.132950 0.044992
C103  C     C_R   0.294059 0.533715 0.969844 0.237246
C104  C     C_R   0.209144 0.471717 0.905057 0.399164
C105  C     C_R   0.168171 0.391139 0.901711 -0.251944
C106  C     C_R   0.214866 0.371819 0.962028 -0.275934
C107  C     C_R   0.300190 0.435113 0.027660 0.390670
C108  C     C_R   0.339749 0.515138 0.030465 0.268875
C109  C     C_R   0.083282 0.258619 0.758086 -0.051647
C110  C     C_R   0.004929 0.196360 0.682328 -0.086731
C111  C     C_R   0.932665 0.209770 0.664676 -0.064857
C112  C     C_R   0.928401 0.262802 0.733520 -0.055932
C113  C     C_R   0.003755 0.316282 0.814584 -0.085983
C114  C     C_R   0.083302 0.320401 0.824543 0.017554
C115  C     C_R   0.920693 0.254236 0.552138 0.443224
C116  C     C_R   0.872424 0.253293 0.476844 0.428877
C117  C     C_R   0.782574 0.198756 0.428339 -0.212759
C118  C     C_R   0.742353 0.140721 0.453008 -0.123045
C119  C     C_R   0.792756 0.136650 0.525110 -0.123179
C120  C     C_R   0.880943 0.197754 0.577943 -0.094938
C121  C     C_2   0.760284 0.895666 0.904938 0.727059
H9    H     H_    0.722927 0.927089 0.917278 0.149842
O25   O     O_2   0.805671 0.887960 0.962209 -0.491696
Cl1   Cl    Cl    0.671961 0.702585 0.069861 -0.555324
C122  C     C_2   0.701545 0.574464 0.129973 0.464579
H10   H     H_    0.717257 0.580145 0.081739 0.126627
O26   O     O_2   0.679741 0.504411 0.129003 -0.436480
Cl2   Cl    Cl    0.728533 0.582370 0.304348 -0.441459
C123  C     C_2   0.536891 0.946395 0.582299 0.680792
H11   H     H_    0.572047 0.971148 0.650408 0.107859
O27   O     O_2   0.533501 0.998751 0.557322 -0.462175
C124  C     C_2   0.463879 0.815787 0.630763 0.602443
H12   H     H_    0.489573 0.883089 0.676686 0.122430
O28   O     O_2   0.450576 0.762064 0.655142 -0.483592
Cl3   Cl    Cl    0.307140 0.637249 0.485682 -0.542032
Cl4   Cl    Cl    0.444804 0.693181 0.286107 -0.388911
Cl5   Cl    Cl    0.530377 0.891754 0.407123 -0.473548
C125  C     C_2   0.250096 0.664504 0.269196 0.473304
H13   H     H_    0.231142 0.694932 0.313353 0.134769
O29   O     O_2   0.272632 0.700052 0.231067 -0.453460
Cl6   Cl    Cl    0.683596 0.965115 0.790581 -0.538384
Cl7   Cl    Cl    0.868614 0.310226 0.163576 -0.384649
Cl8   Cl    Cl    0.813708 0.118926 0.028009 -0.391567
Cl9   Cl    Cl    0.947297 0.082159 0.980351 -0.499432
C126  C     C_2   0.129662 0.236427 0.079640 0.471011
H14   H     H_    0.111243 0.170622 0.035472 0.165732
O30   O     O_2   0.204741 0.291075 0.114771 -0.515354
C127  C     C_2   0.179940 0.619354 0.576056 0.660331
H15   H     H_    0.188994 0.654471 0.638975 0.116546
O31   O     O_2   0.162785 0.647775 0.526750 -0.487542
Cl10  Cl    Cl    0.314082 0.623495 0.724036 -0.361250
Cl11  Cl    Cl    0.337193 0.457056 0.679673 -0.466587
Cl12  Cl    Cl    0.121304 0.322979 0.338633 -0.617511
C128  C     C_2   0.068146 0.461183 0.400964 0.734491
H16   H     H_    0.044783 0.421441 0.334164 0.079664
O32   O     O_2   0.024610 0.491546 0.420345 -0.457285
C129  C     C_2   0.693195 0.894177 0.625029 0.373892
H17   H     H_    0.658228 0.852566 0.556173 0.050763
O33   O     O_2   0.716667 0.972158 0.654235 -0.514226
Cl13  Cl    Cl    0.075638 0.254240 0.470069 -0.444507
Cl14  Cl    Cl    0.430677 0.255978 0.537803 -0.549893
C130  C     C_2   0.315785 0.214708 0.689881 0.589008
H18   H     H_    0.309250 0.210653 0.742969 0.108332
O34   O     O_2   0.323249 0.280396 0.684598 -0.508539
Cl15  Cl    Cl    0.368766 0.100058 0.755131 -0.400217
Cl16  Cl    Cl    0.390837 0.961025 0.633812 -0.457893
C131  C     C_2   0.336355 0.941283 0.451580 0.705833
H19   H     H_    0.349675 0.950702 0.403311 0.115681
O35   O     O_2   0.326165 0.873397 0.453071 -0.501680
Cl17  Cl    Cl    0.262438 0.040458 0.378422 -0.554605
C132  C     C_2   0.444638 0.486387 0.890142 0.508708
H20   H     H_    0.455224 0.548903 0.933676 0.143138
O36   O     O_2   0.386184 0.419750 0.873856 -0.575469
C133  C     C_2   0.645705 0.648286 0.818291 0.586686
H21   H     H_    0.698854 0.657643 0.805881 0.082895
O37   O     O_2   0.632047 0.709613 0.842697 -0.546937
Cl18  Cl    Cl    0.834410 0.710088 0.699688 -0.548278
C134  C     C_2   0.496870 0.345476 0.844097 0.447876
H22   H     H_    0.472970 0.348540 0.888563 0.149994
O38   O     O_2   0.514698 0.287256 0.820278 -0.522429
C135  C     C_2   0.737431 0.502741 0.899165 0.376428
H23   H     H_    0.732119 0.449564 0.913089 0.128546
O39   O     O_2   0.736506 0.565068 0.946528 -0.580004
Cl19  Cl    Cl    0.766568 0.506765 0.591679 -0.373901
C136  C     C_2   0.943996 0.709887 0.864842 0.523336
H24   H     H_    0.975445 0.778687 0.884686 0.136891
O40   O     O_2   0.884494 0.682346 0.877498 -0.627171
Cl20  Cl    Cl    0.131526 0.801147 0.912133 -0.548485
Cl21  Cl    Cl    0.183652 0.695696 0.793419 -0.388380
Cl22  Cl    Cl    0.043586 0.510410 0.634913 -0.386285
Cl23  Cl    Cl    0.871770 0.404501 0.631333 -0.457122
C137  C     C_2   0.990497 0.683454 0.604569 0.559509
H25   H     H_    0.045547 0.716288 0.667727 0.036359
O41   O     O_2   0.920102 0.643029 0.595485 -0.422436
C138  C     C_2   0.142984 0.827938 0.638871 0.565719
H26   H     H_    0.165864 0.806362 0.684242 0.089398
O42   O     O_2   0.176531 0.906055 0.662601 -0.478552
Cl24  Cl    Cl    0.175278 0.846405 0.498139 -0.454702
C139  C     C_2   0.880018 0.573430 0.287549 0.634676
H27   H     H_    0.860791 0.592225 0.238887 0.006989
O43   O     O_2   0.853375 0.495858 0.265137 -0.391588
Cl25  Cl    Cl    0.858198 0.526779 0.423395 -0.233385
C140  C     C_2   0.051470 0.619418 0.281275 0.427908
H28   H     H_    0.043309 0.564878 0.229268 0.059537
O44   O     O_2   0.089674 0.630207 0.353027 -0.487870
Cl26  Cl    Cl    0.037869 0.935104 0.266992 -0.515581
C141  C     C_2   0.196241 0.841674 0.211213 0.549668
H29   H     H_    0.258824 0.872874 0.217024 0.093639
O45   O     O_2   0.190453 0.809694 0.256976 -0.554188
C142  C     C_2   0.096725 0.959229 0.022183 0.519568
H30   H     H_    0.163280 0.996826 0.040068 0.114168
O46   O     O_2   0.041209 0.965112 0.971636 -0.498910
C143  C     C_2   0.888653 0.909400 0.657098 0.532458
H31   H     H_    0.911237 0.970903 0.656657 0.031389
O47   O     O_2   0.923862 0.908669 0.723553 -0.482087
C144  C     C_2   0.878752 0.755020 0.054743 0.603107
H32   H     H_    0.862153 0.715776 0.083967 0.056267
O48   O     O_2   0.821303 0.759354 0.004830 -0.454455
Cl27  Cl    Cl    0.449198 0.590094 0.106550 -0.375820
Cl28  Cl    Cl    0.344613 0.634108 0.973228 -0.341057
Cl29  Cl    Cl    0.157061 0.492778 0.823711 -0.377180
C145  C     C_2   0.176078 0.282176 0.949720 0.545658
H33   H     H_    0.107210 0.245548 0.923706 0.029951
O49   O     O_2   0.219523 0.246376 0.963630 -0.461056
Cl30  Cl    Cl    0.358883 0.415718 0.107417 -0.310713
C146  C     C_2   0.166351 0.268448 0.762413 0.539463
H34   H     H_    0.220319 0.285206 0.820762 0.094366
O50   O     O_2   0.176007 0.261658 0.700895 -0.489176
C147  C     C_2   0.847106 0.266829 0.717613 0.512490
H35   H     H_    0.785684 0.208427 0.674761 0.129074
O51   O     O_2   0.847510 0.335673 0.750658 -0.555185
Cl31  Cl    Cl    0.031667 0.329511 0.616646 -0.361838
Cl32  Cl    Cl    0.925726 0.320955 0.443753 -0.316391
Cl33  Cl    Cl    0.571573 0.604011 0.327749 -0.419712
C148  C     C_2   0.730577 0.198640 0.349352 0.664385
H36   H     H_    0.675208 0.138358 0.294958 0.069594
O52   O     O_2   0.747016 0.265869 0.345007 -0.389535
C149  C     C_2   0.647602 0.085413 0.404167 0.570165
H37   H     H_    0.619474 0.017227 0.385812 0.189588
O53   O     O_2   0.600358 0.116417 0.385446 -0.505897
C150  C     C_2   0.755325 0.070537 0.547807 0.429206
H38   H     H_    0.791676 0.040456 0.571493 0.073324
O54   O     O_2   0.686539 0.053432 0.545617 -0.474982
C151  C     C_2   0.680334 0.855053 0.356112 0.592923
H39   H     H_    0.681098 0.859285 0.414493 0.059961
O55   O     O_2   0.667461 0.906933 0.334453 -0.596162

loop_
_geom_bond_atom_site_label_1
_geom_bond_atom_site_label_2
_geom_bond_distance
_ccdc_geom_bond_type
C86   Cl24  1.759746 S    
C41   C42   1.401535 A    
O11   Zn3   2.043827 S    
C60   C61   1.417085 A    
C119  C120  1.408508 A    
C5    Cl6   1.770023 S    
C87   C96   1.505174 S    
Zn5   O21   2.036457 S    
C10   C121  1.484185 S    
C29   C30   1.407726 A    
Zn3   O15   2.032136 S    
C8    Cl18  1.744713 S    
C91   C140  1.502152 S    
C66   C84   1.448631 S    
C43   C52   1.496650 S    
C117  C148  1.489722 S    
C92   C93   1.416504 A    
C68   C69   1.407031 A    
O24   C84   1.295943 A    
O16   C80   1.294319 A    
O12   C78   1.274840 A    
C74   C75   1.405565 A    
C87   C88   1.417811 A    
C123  O27   1.220224 D    
C2    C15   1.452025 S    
C131  H19   1.084383 S    
C42   C43   1.408727 A    
C56   C131  1.487704 S    
C17   C151  1.484391 S    
C67   C76   1.501167 S    
C100  C101  1.403868 A    
C17   C18   1.401668 A    
C15   C16   1.419007 A    
C25   C26   1.400699 A    
C75   Cl23  1.761208 S    
C67   C68   1.396569 A    
C41   Cl10  1.770018 S    
C74   Cl22  1.756902 S    
C24   C25   1.408029 A    
C90   C137  1.491321 S    
C134  O38   1.221186 D    
C8    C9    1.394333 A    
O2    C1    1.293862 A    
C126  O30   1.217433 D    
O4    C2    1.301319 A    
Zn2   O6    2.042313 S    
O7    C4    1.276808 A    
C143  O47   1.220513 D    
C119  C150  1.480282 S    
C124  H12   1.079653 S    
C72   C73   1.396392 A    
C105  C106  1.415499 A    
C65   C135  1.493361 S    
C20   C122  1.488275 S    
Zn4   O16   2.043915 S    
O18   C81   1.300909 A    
C99   C142  1.479424 S    
O14   C79   1.281114 A    
C140  H28   1.079995 S    
C59   H5    1.084266 S    
O18   Zn6   2.036672 S    
C115  C120  1.410621 A    
O5    C3    1.279977 A    
C91   C96   1.411836 A    
O17   Zn5   2.026178 S    
C28   C123  1.488003 S    
C144  O48   1.220061 D    
C109  C110  1.405685 A    
C148  O52   1.220796 D    
C94   Cl26  1.787143 S    
C47   C52   1.394550 A    
C59   C64   1.400837 A    
C72   Cl20  1.768305 S    
C122  H10   1.083769 S    
C142  O46   1.220749 D    
C146  H34   1.082889 S    
C115  Cl31  1.765225 S    
O11   C78   1.302336 A    
C107  Cl30  1.768432 S    
C12   C13   1.428022 A    
C121  O25   1.219578 D    
C13   C14   1.395993 A    
C56   C57   1.409367 A    
C25   C34   1.489864 S    
C18   H2    1.083346 S    
C111  C120  1.502548 S    
O9    Zn3   2.042638 S    
C44   Cl12  1.770660 S    
C65   C70   1.398929 A    
C75   C76   1.412597 A    
C62   H6    1.084562 S    
C104  Cl29  1.766643 S    
C83   C92   1.452032 S    
C47   C48   1.407456 A    
C39   C126  1.491545 S    
C125  O29   1.220382 D    
C19   Cl1   1.763667 S    
C17   C22   1.416351 A    
C45   C46   1.422466 A    
O9    C77   1.275660 A    
C63   C134  1.486623 S    
C41   C46   1.409130 A    
C54   Cl15  1.772781 S    
C77   C95   1.451636 S    
O17   C81   1.279520 A    
C45   C128  1.487928 S    
O10   C77   1.303920 A    
C103  C104  1.403299 A    
C57   Cl17  1.772246 S    
C73   Cl21  1.765647 S    
O3    Zn1   2.043205 S    
C109  C114  1.400519 A    
C32   C33   1.387394 A    
C107  C108  1.404831 A    
C24   Cl3   1.762434 S    
C62   C63   1.405343 A    
O13   C79   1.295455 A    
C42   Cl11  1.763556 S    
C60   C133  1.480246 S    
C88   C89   1.419740 A    
C104  C105  1.413821 A    
C49   C50   1.396050 A    
C53   C54   1.407649 A    
C7    C16   1.495058 S    
O8    C4    1.293422 A    
C53   C58   1.420824 A    
C101  C144  1.486444 S    
C61   C62   1.405264 A    
C136  H24   1.081007 S    
C132  H20   1.085111 S    
C53   C130  1.489906 S    
O23   C84   1.282590 A    
C123  H11   1.080173 S    
C141  H29   1.085715 S    
C151  H39   1.084724 S    
C54   C55   1.403191 A    
C30   C82   1.455653 S    
C129  H17   1.084957 S    
C65   C66   1.405913 A    
C36   C37   1.396494 A    
C14   C15   1.397466 A    
C69   C70   1.417143 A    
C79   C110  1.456608 S    
O6    C3    1.292354 A    
C13   C22   1.501340 S    
C37   C38   1.407542 A    
C85   C90   1.414655 A    
C140  O44   1.220037 D    
C23   C24   1.410898 A    
C71   C136  1.485353 S    
O15   C80   1.285021 A    
C35   C40   1.403692 A    
Zn1   O7    2.032669 S    
C126  H14   1.082714 S    
C55   Cl16  1.762924 S    
C144  H32   1.084413 S    
C85   C138  1.486927 S    
C135  O39   1.218838 D    
C97   C98   1.402125 A    
C31   C40   1.496186 S    
Zn6   O22   2.025963 S    
C121  H9    1.082826 S    
O10   Zn4   2.019249 S    
Zn2   O8    2.043208 S    
C134  H22   1.082181 S    
C12   C78   1.453992 S    
C48   C49   1.421422 A    
Zn4   O14   2.042592 S    
C7    C8    1.399723 A    
C29   C34   1.400898 A    
C38   C39   1.421949 A    
C149  H37   1.074968 S    
C137  O41   1.218598 D    
C138  O42   1.221072 D    
O19   Zn5   2.024750 S    
C116  C117  1.409454 A    
C85   C86   1.407030 A    
Zn6   O24   2.024878 S    
C89   Cl25  1.775662 S    
C103  C108  1.401750 A    
C97   C102  1.425871 A    
Zn5   O23   2.036857 S    
C145  O49   1.220911 D    
C125  H13   1.084248 S    
Zn3   O13   2.019373 S    
C29   C125  1.486745 S    
C149  O53   1.221118 D    
C95   C96   1.430383 A    
C66   C67   1.419952 A    
C116  Cl32  1.769607 S    
O21   C83   1.277937 A    
C11   C16   1.402373 A    
C141  O45   1.218826 D    
C31   C32   1.386632 A    
C89   C90   1.418030 A    
O3    C2    1.274581 A    
C127  H15   1.081437 S    
C30   C31   1.425315 A    
C59   C60   1.404758 A    
C127  O31   1.220068 D    
C91   C92   1.409058 A    
C73   C74   1.397245 A    
C61   C70   1.497109 S    
C135  H23   1.083828 S    
O12   Zn4   2.031884 S    
C71   C76   1.427046 A    
C142  H30   1.085512 S    
C21   Cl2   1.766001 S    
C93   C94   1.391028 A    
C138  H26   1.083615 S    
Zn1   O5    2.018748 S    
C33   C34   1.410995 A    
C118  C119  1.421716 A    
C46   C127  1.489142 S    
O20   C82   1.279599 A    
C9    C10   1.401801 A    
O1    Zn1   2.042309 S    
C19   C20   1.408375 A    
O2    Zn2   2.018746 S    
C32   H3    1.085050 S    
C38   Cl9   1.768523 S    
C145  H33   1.085422 S    
C37   Cl8   1.764016 S    
C27   Cl5   1.752305 S    
C47   Cl13  1.771920 S    
O4    Zn2   2.032665 S    
C98   C99   1.395858 A    
C101  C102  1.417796 A    
C136  O40   1.217817 D    
C39   C40   1.427494 A    
C98   H7    1.084541 S    
C48   C80   1.458412 S    
C103  Cl28  1.766991 S    
C143  H31   1.085340 S    
C148  H36   1.085028 S    
C100  H8    1.081271 S    
C1    C33   1.439772 S    
C151  O55   1.220074 D    
C112  C113  1.414022 A    
O22   C83   1.302701 A    
C106  C107  1.415515 A    
C147  H35   1.078177 S    
C128  H16   1.074854 S    
C9    H1    1.081656 S    
C139  O43   1.220413 D    
C23   C28   1.418316 A    
C44   C45   1.417599 A    
C150  H38   1.085552 S    
C137  H25   1.080219 S    
C18   C19   1.392562 A    
C6    C129  1.481478 S    
C68   Cl19  1.779867 S    
C111  C112  1.403357 A    
C20   C21   1.419593 A    
C88   C139  1.489455 S    
C147  O51   1.217689 D    
C43   C44   1.409421 A    
C26   C27   1.398222 A    
C93   C102  1.488017 S    
C124  O28   1.221067 D    
C130  H18   1.083764 S    
C35   H4    1.082398 S    
C112  C147  1.490368 S    
C50   C51   1.399322 A    
C35   C36   1.388294 A    
C49   C58   1.490934 S    
C132  O36   1.220240 D    
C4    C51   1.439406 S    
C21   C22   1.417091 A    
C109  C146  1.489920 S    
C94   C95   1.395561 A    
O20   Zn6   2.036852 S    
C110  C111  1.410724 A    
C150  O54   1.217499 D    
C55   C56   1.414804 A    
C106  C145  1.483445 S    
O19   C82   1.302981 A    
C118  C149  1.481735 S    
C14   Cl33  1.781052 S    
C26   Cl4   1.767647 S    
C133  O37   1.220590 D    
C63   C64   1.414271 A    
C27   C28   1.414828 A    
C36   Cl7   1.760246 S    
C5    C10   1.409898 A    
C81   C113  1.449122 S    
C57   C58   1.410229 A    
C133  H21   1.082314 S    
C71   C72   1.411688 A    
C146  O50   1.220078 D    
C51   C52   1.412490 A    
C108  Cl27  1.766852 S    
C50   Cl14  1.781006 S    
C3    C69   1.441022 S    
C117  C118  1.417520 A    
C86   C87   1.405240 A    
C23   C124  1.491403 S    
C11   C12   1.408869 A    
C99   C100  1.398988 A    
C122  O26   1.220831 D    
C11   C143  1.495985 S    
O1    C1    1.277966 A    
C115  C116  1.404406 A    
C139  H27   1.083821 S    
C131  O35   1.220062 D    
C113  C114  1.421171 A    
C130  O34   1.219644 D    
C105  C114  1.499557 S    
C5    C6    1.416373 A    
C6    C7    1.416561 A    
C97   C141  1.488064 S    
C64   C132  1.483619 S    
C129  O33   1.219793 D    
C128  O32   1.220501 D    
