data_mof_unit_14438.cif
_audit_creation_date              2012-12-11T14:36:23-0500
_audit_creation_method            fapswitch 2.2
_symmetry_space_group_name_H-M    P1
_symmetry_Int_Tables_number       1
_space_group_crystal_system       triclinic
_cell_length_a                    13.460067
_cell_length_b                    13.48646
_cell_length_c                    27.528779
_cell_angle_alpha                 90.56592
_cell_angle_beta                  89.664502
_cell_angle_gamma                 60.166124
_cell_volume                      4334.43686251

loop_
_atom_site_label
_atom_site_type_symbol
_atom_type_description
_atom_site_fract_x
_atom_site_fract_y
_atom_site_fract_z
_atom_type_partial_charge
C1    C     C_R   0.619887 0.101266 0.570330 0.543856
C2    C     C_1   0.648020 0.706112 0.658633 -0.059161
C3    C     C_3   0.073996 0.987958 0.136314 0.006533
C4    C     C_3   0.073959 0.910341 0.095883 -0.340014
C5    C     C_3   0.346443 0.838749 0.288387 -0.247064
C6    C     C_3   0.279125 0.787267 0.312229 -0.288401
C7    C     C_3   0.235597 0.734468 0.274542 -0.444745
C8    C     C_3   0.586557 0.116576 0.109495 -0.253770
C9    C     C_3   0.666858 0.986828 0.104484 -0.301075
C10   C     C_3   0.623445 0.934295 0.066745 -0.444664
C11   C     C_3   0.090079 0.134203 0.738671 -0.102100
C12   C     C_R   0.599233 0.779861 0.568883 0.545455
C13   C     C_3   0.181906 0.060525 0.776406 -0.100192
C14   C     C_1   0.097359 0.201533 0.901823 -0.016200
C15   C     C_1   0.229496 0.137814 0.617697 -0.017022
C16   C     C_3   0.055480 0.242569 0.770240 -0.101547
C17   C     C_3   0.147737 0.168718 0.807122 0.052820
C18   C     C_3   0.144811 0.262717 0.743115 -0.099016
C19   C     C_3   0.179016 0.154639 0.712315 0.052688
C20   C     C_1   0.629860 0.733091 0.616610 -0.016876
C21   C     C_3   0.236598 0.189131 0.780700 -0.101984
C22   C     C_3   0.271305 0.080743 0.749173 -0.102879
C23   C     C_1   0.125185 0.182237 0.859590 -0.059219
C24   C     C_R   0.277591 0.121797 0.569732 0.544597
C25   C     C_1   0.201586 0.146764 0.659888 -0.059229
C26   C     C_3   0.628380 0.276981 0.739996 -0.101702
C27   C     C_3   0.555044 0.257967 0.778472 -0.100035
C28   C     C_1   0.692211 0.207752 0.902856 -0.017972
C29   C     C_1   0.634524 0.133417 0.618539 -0.016904
C30   C     C_3   0.736952 0.205060 0.770496 -0.101375
C31   C     C_3   0.698820 0.561707 0.767836 -0.101380
C32   C     C_3   0.663460 0.185785 0.808160 0.052924
C33   C     C_3   0.758684 0.095087 0.743108 -0.099307
C34   C     C_3   0.650354 0.167157 0.713358 0.052636
C35   C     C_3   0.685428 0.076023 0.781473 -0.102235
C36   C     C_R   0.622678 0.100488 0.431994 0.535848
C37   C     C_3   0.576832 0.147878 0.750999 -0.103019
C38   C     C_1   0.675451 0.196612 0.860649 -0.059213
C39   C     C_1   0.642869 0.152246 0.660835 -0.059100
C40   C     C_R   0.738004 0.714154 0.361290 -0.145552
C41   C     C_R   0.757851 0.684410 0.311978 0.013276
C42   C     C_3   0.679716 0.654842 0.805508 0.052831
C43   C     C_R   0.764134 0.655822 0.210571 -0.005989
C44   C     C_R   0.832299 0.694353 0.232447 -0.139694
C45   C     C_R   0.832461 0.706514 0.283083 -0.004549
C46   C     C_R   0.764342 0.644067 0.160048 -0.150830
C47   C     C_R   0.695758 0.605061 0.138849 0.001125
C48   C     C_R   0.604154 0.773776 0.431215 0.540494
C49   C     C_R   0.601969 0.645937 0.367012 -0.148878
C50   C     C_R   0.622340 0.612491 0.318454 0.002578
C51   C     C_R   0.693986 0.639101 0.290103 0.044172
C52   C     C_R   0.563649 0.562713 0.296822 -0.133921
C53   C     C_3   0.589207 0.649413 0.741436 -0.099246
C54   C     C_R   0.566348 0.549776 0.246694 -0.141251
C55   C     C_R   0.629522 0.584535 0.218083 -0.005608
C56   C     C_R   0.696870 0.625505 0.239631 0.052186
C57   C     C_R   0.627326 0.577348 0.168109 -0.133491
C58   C     C_R   0.652310 0.705205 0.387089 -0.013108
C59   C     C_R   0.251890 0.042784 0.354381 -0.149846
C60   C     C_R   0.278271 0.120102 0.431243 0.540260
C61   C     C_R   0.227821 0.055798 0.304749 0.008516
C62   C     C_R   0.175229 0.089604 0.205339 -0.005176
C63   C     C_R   0.240636 0.978861 0.223255 -0.123503
C64   C     C_3   0.662353 0.684458 0.710922 0.052700
C65   C     C_R   0.268493 0.960457 0.272451 -0.009969
C66   C     C_R   0.141512 0.107904 0.156400 0.236267
C67   C     C_R   0.090333 0.219751 0.138226 0.006741
C68   C     C_R   0.159911 0.248378 0.366442 -0.134047
C69   C     C_R   0.131623 0.264190 0.317616 0.016282
C70   C     C_R   0.166626 0.167927 0.286456 0.049263
C71   C     C_R   0.074329 0.374794 0.299031 -0.128252
C72   C     C_3   0.771843 0.597141 0.736552 -0.101623
C73   C     C_R   0.053386 0.390487 0.249618 -0.124922
C74   C     C_R   0.087103 0.296124 0.218532 -0.008513
C75   C     C_3   0.570313 0.742098 0.779819 -0.101999
C76   C     C_R   0.142855 0.184391 0.236777 0.011971
C77   C     C_R   0.065094 0.312438 0.169387 -0.184943
C78   C     C_R   0.222892 0.138035 0.384435 -0.010256
C79   C     C_R   0.577305 0.097259 0.347461 -0.125021
C80   C     C_R   0.584736 0.118534 0.298768 -0.000442
C81   C     C_R   0.608796 0.152669 0.199631 0.020969
C82   C     C_R   0.546631 0.099167 0.214595 -0.135707
C83   C     C_R   0.534480 0.082858 0.263580 -0.136670
C84   C     C_3   0.752979 0.689868 0.775063 -0.100512
C85   C     C_R   0.626321 0.166433 0.149812 -0.024573
C86   C     C_3   0.643260 0.777609 0.748583 -0.103005
C87   C     C_R   0.686517 0.224077 0.138190 0.013221
C88   C     C_R   0.690930 0.185017 0.369826 -0.157639
C89   C     C_R   0.697991 0.208483 0.320980 0.007398
C90   C     C_R   0.645811 0.173735 0.285163 0.054013
C91   C     C_R   0.758843 0.263014 0.307206 -0.131257
C92   C     C_R   0.768984 0.282228 0.258327 -0.123492
C93   C     C_R   0.718283 0.247194 0.222738 -0.005197
C94   C     C_R   0.656801 0.191976 0.235774 0.039858
C95   C     C_R   0.730340 0.264769 0.174191 -0.150381
C96   C     C_1   0.698098 0.607738 0.900060 -0.018389
C97   C     C_1   0.689110 0.633702 0.857874 -0.059620
C98   C     C_R   0.632334 0.127951 0.382464 0.011047
C99   C     C_R   0.049482 0.236252 0.949767 0.550584
C100  C     C_R   0.711896 0.562900 0.948126 0.546589
C101  C     C_R   0.722510 0.225506 0.950823 0.541640
C102  C     C_R   0.045233 0.246907 0.089131 0.571416
C103  C     C_R   0.709528 0.569624 0.088053 0.537096
C104  C     C_R   0.718218 0.234467 0.089078 0.528148
C105  C     C_3   0.914348 0.741365 0.304320 -0.267743
C106  C     C_3   0.856944 0.871365 0.310779 -0.286651
C107  C     C_3   0.942706 0.907026 0.327372 -0.447741
Cr1   Cr    Cr6+3 0.417550 0.169090 0.500530 1.024880
Cr2   Cr    Cr6+3 0.669180 0.913420 0.499920 1.015737
Cr3   Cr    Cr6+3 0.413260 0.917540 0.499520 1.015373
Cr4   Cr    Cr6+3 0.909170 0.177380 0.020380 1.011016
Cr5   Cr    Cr6+3 0.912710 0.429210 0.018220 1.014509
Cr6   Cr    Cr6+3 0.657170 0.432570 0.019030 1.018503
H1    H     H_    0.819974 0.706928 0.789470 0.103396
H2    H     H_    0.803213 0.228566 0.779033 0.099102
H3    H     H_    0.819178 0.662572 0.137417 0.108431
H4    H     H_    0.854468 0.537299 0.718317 0.103009
H5    H     H_    0.779850 0.755585 0.378521 0.136790
H6    H     H_    0.886368 0.714304 0.210002 0.099983
H7    H     H_    0.576630 0.543385 0.152237 0.141666
H8    H     H_    0.517293 0.514717 0.230236 0.115608
H9    H     H_    0.511392 0.538892 0.318380 0.116205
H10   H     H_    0.539352 0.635154 0.387794 0.121040
H11   H     H_    0.299810 0.958478 0.369588 0.138685
H12   H     H_    0.297051 0.211297 0.798404 0.102590
H13   H     H_    0.271958 0.905820 0.198728 0.149249
H14   H     H_    0.620306 0.866795 0.740087 0.100609
H15   H     H_    0.021358 0.399181 0.155947 0.142565
H16   H     H_    0.011420 0.476289 0.235591 0.120184
H17   H     H_    0.047975 0.448945 0.322512 0.108309
H18   H     H_    0.138218 0.321625 0.389923 0.123334
H19   H     H_    0.531103 0.053913 0.358278 0.115553
H20   H     H_    0.507389 0.068270 0.189023 0.122488
H21   H     H_    0.487175 0.040468 0.273910 0.122532
H22   H     H_    0.778441 0.306618 0.163985 0.111703
H23   H     H_    0.129091 0.345994 0.728901 0.104089
H24   H     H_    0.487628 0.801942 0.798018 0.103227
H25   H     H_    0.816940 0.324124 0.248295 0.129331
H26   H     H_    0.799255 0.289974 0.334151 0.119405
H27   H     H_    0.731602 0.209454 0.397682 0.100163
H28   H     H_    0.522167 0.632330 0.727095 0.103967
H29   H     H_    0.721689 0.472543 0.776324 0.098807
H30   H     H_    0.197585 0.977333 0.790695 0.104015
H31   H     H_    0.029616 0.112115 0.720929 0.102533
H32   H     H_    0.360464 0.013895 0.739900 0.100727
H33   H     H_    0.005024 0.891335 0.297731 0.150848
H34   H     H_    0.966337 0.309505 0.779482 0.099454
H35   H     H_    0.897737 0.999514 0.336398 0.163365
H36   H     H_    0.988726 0.859112 0.360121 0.153645
H37   H     H_    0.819323 0.913753 0.275842 0.174873
H38   H     H_    0.787249 0.900963 0.338300 0.179648
H39   H     H_    0.948549 0.698028 0.339388 0.131596
H40   H     H_    0.990142 0.711463 0.279746 0.134016
H41   H     H_    0.986639 0.064531 0.138874 0.160104
H42   H     H_    0.091587 0.941094 0.171029 0.107071
H43   H     H_    0.007063 0.887039 0.103468 0.082269
H44   H     H_    0.055561 0.954932 0.060585 0.178303
H45   H     H_    0.471178 0.324627 0.793552 0.103970
H46   H     H_    0.158763 0.831086 0.093514 0.143522
H47   H     H_    0.187310 0.698572 0.293112 0.135475
H48   H     H_    0.178295 0.799990 0.248455 0.148574
H49   H     H_    0.308473 0.664152 0.254223 0.149604
H50   H     H_    0.335995 0.719401 0.337573 0.146666
H51   H     H_    0.205630 0.853015 0.334055 0.163633
H52   H     H_    0.397243 0.784503 0.256936 0.157228
H53   H     H_    0.411804 0.835847 0.313607 0.133529
H54   H     H_    0.537655 0.948599 0.077669 0.165134
H55   H     H_    0.617820 0.972671 0.030633 0.157572
H56   H     H_    0.605376 0.359415 0.722537 0.102412
H57   H     H_    0.683524 0.840764 0.063860 0.145037
H58   H     H_    0.753699 0.969372 0.093325 0.171221
H59   H     H_    0.674603 0.944416 0.139763 0.164612
H60   H     H_    0.496740 0.137635 0.116321 0.140025
H61   H     H_    0.584221 0.156035 0.074001 0.142777
H62   H     H_    0.510659 0.124271 0.742428 0.100057
H63   H     H_    0.708494 0.993535 0.798899 0.102450
H64   H     H_    0.842615 0.028396 0.728086 0.103865
O1    O     O_R   0.301710 0.195650 0.554160 -0.507874
O2    O     O_R   0.635520 0.542770 0.964420 -0.503788
O3    O     O_R   0.665950 0.325030 0.970100 -0.494206
O4    O     O_R   0.522390 0.158990 0.550460 -0.495101
O5    O     O_R   0.816620 0.158530 0.074540 -0.535163
O6    O     O_R   0.004460 0.188870 0.069750 -0.474611
O7    O     O_R   0.025800 0.341780 0.072300 -0.531416
O8    O     O_R   0.807650 0.528950 0.067500 -0.506353
O9    O     O_R   0.633420 0.550490 0.071810 -0.519898
O10   O     O_R   0.664000 0.332180 0.069640 -0.502919
O11   O     O_3   0.826350 0.346390 0.019210 -0.249684
O12   O     O_R   0.658900 0.818120 0.449760 -0.507919
O13   O     O_R   0.694390 0.003530 0.554040 -0.507377
O14   O     O_R   0.657700 0.819660 0.549320 -0.494096
O15   O     O_R   0.501930 0.803280 0.552920 -0.507689
O16   O     O_R   0.318170 0.023580 0.549580 -0.493792
O17   O     O_R   0.303010 0.193990 0.446760 -0.514007
O18   O     O_R   0.523600 0.157450 0.450900 -0.493813
O19   O     O_R   0.695690 0.001860 0.446640 -0.519242
O20   O     O_3   0.159129 0.017710 0.126118 -0.561448
O21   O     O_R   0.503220 0.801620 0.445520 -0.522752
O22   O     O_R   0.319370 0.022040 0.450020 -0.507653
O23   O     O_3   0.499990 0.000010 0.499990 -0.246046
O24   O     O_R   0.818720 0.150820 0.967160 -0.511865
O25   O     O_R   0.006410 0.181720 0.970200 -0.493301
O26   O     O_R   0.027890 0.334070 0.964920 -0.506324
O27   O     O_R   0.809600 0.521790 0.967960 -0.494927

loop_
_geom_bond_atom_site_label_1
_geom_bond_atom_site_label_2
_ccdc_geom_bond_type
C61   C70   A    
C8    C9    S    
C105  H40   S    
C55   C56   A    
C63   C65   A    
Cr1   O23   S    
C93   C94   A    
C106  H37   S    
C31   C42   S    
Cr3   O21   S    
C34   C37   S    
C11   C13   S    
C73   C74   A    
C79   C98   A    
C40   H5    S    
C67   C77   A    
C92   H25   S    
Cr4   O24   S    
C95   H22   S    
C81   C82   A    
C60   O17   A    
C14   C99   S    
Cr5   O7    S    
C27   H45   S    
C7    H48   S    
C11   C19   S    
Cr4   O11   S    
C17   C23   S    
C74   C76   A    
Cr1   O4    S    
C16   H34   S    
C35   H63   S    
C35   C37   S    
C84   C86   S    
C18   C19   S    
C5    C6    S    
C53   C64   S    
C8    H61   S    
C15   C25   T    
C4    H46   S    
C47   C57   A    
C106  C107  S    
C79   H19   S    
C18   C21   S    
Cr4   O25   S    
Cr2   O19   S    
C8    C85   S    
C69   C71   A    
C88   H27   S    
C83   H21   S    
C60   O22   A    
C3    O20   S    
C54   C55   A    
C52   H9    S    
C28   C101  S    
C26   C34   S    
Cr2   O14   S    
C26   H56   S    
Cr2   O12   S    
C16   C17   S    
C74   C77   A    
C103  O8    A    
C72   H4    S    
C13   C22   S    
C50   C52   A    
C18   H23   S    
C32   C38   S    
C89   C91   A    
C9    C10   S    
C1    O13   A    
C52   C54   A    
C13   H30   S    
C66   C67   A    
C86   H14   S    
C24   O1    A    
C93   C95   A    
C42   C75   S    
C21   C22   S    
C12   C20   S    
C62   C76   A    
C53   C75   S    
C103  O9    A    
C80   C83   A    
C59   C78   A    
C64   C86   S    
C45   C105  S    
C90   C94   A    
C30   H2    S    
C85   C87   A    
C68   C78   A    
C12   O15   A    
C7    H49   S    
C73   H16   S    
C59   C61   A    
C47   C103  S    
C62   C66   A    
C2    C20   T    
C34   C39   S    
C66   O20   S    
C32   C35   S    
C19   C22   S    
C40   C58   A    
C2    C64   S    
C5    C65   S    
C75   H24   S    
C42   C97   S    
Cr5   O8    S    
C71   C73   A    
C107  H33   S    
C1    O4    A    
C8    H60   S    
C68   C69   A    
C7    H47   S    
C44   H6    S    
C50   C51   A    
C3    H41   S    
Cr6   O11   S    
Cr3   O23   S    
C82   C83   A    
Cr4   O5    S    
C17   C21   S    
C49   C58   A    
C79   C80   A    
C87   C95   A    
C14   C23   T    
C10   H54   S    
C68   H18   S    
C43   C44   A    
C36   O19   A    
C62   C63   A    
C37   H62   S    
C11   C16   S    
C75   C86   S    
C4    H44   S    
C22   H32   S    
C28   C38   T    
Cr2   O13   S    
C60   C78   S    
C96   C97   T    
C29   C39   T    
Cr3   O16   S    
Cr4   O6    S    
C33   C34   S    
C26   C27   S    
Cr1   O1    S    
C15   C24   S    
C5    H53   S    
C6    H50   S    
Cr1   O18   S    
C48   O12   A    
C72   C84   S    
C77   H15   S    
C57   H7    S    
C91   H26   S    
C16   C18   S    
C40   C41   A    
C4    H43   S    
C54   H8    S    
C6    H51   S    
C26   C30   S    
C5    H52   S    
C55   C57   A    
C99   O25   A    
C70   C76   A    
C31   C53   S    
Cr6   O2    S    
C3    H42   S    
C102  O6    A    
Cr1   O17   S    
C3    C4    S    
C33   H64   S    
C91   C92   A    
C44   C45   A    
Cr6   O10   S    
C11   H31   S    
C59   H11   S    
C12   O14   A    
C104  O10   A    
C46   C47   A    
C31   C72   S    
C84   H1    S    
C106  H38   S    
C30   C33   S    
C99   O26   A    
Cr3   O22   S    
C51   C56   A    
C107  H35   S    
Cr2   O23   S    
Cr5   O11   S    
C48   C58   S    
C6    C7    S    
C42   C84   S    
C13   C17   S    
C10   H57   S    
C105  C106  S    
C46   H3    S    
C102  O7    A    
C82   H20   S    
C36   O18   A    
C101  O3    A    
C101  O24   A    
C71   H17   S    
C30   C32   S    
C81   C94   A    
C100  O27   A    
C1    C29   S    
C24   O16   A    
C27   C37   S    
Cr6   O9    S    
C96   C100  S    
Cr3   O15   S    
C92   C93   A    
C33   C35   S    
C104  O5    A    
C53   H28   S    
C64   C72   S    
C31   H29   S    
C80   C90   A    
C69   C70   A    
C19   C25   S    
C43   C46   A    
C81   C85   A    
C63   H13   S    
C9    H58   S    
C27   C32   S    
C87   C104  S    
C107  H36   S    
C61   C65   A    
C43   C56   A    
Cr6   O3    S    
C88   C89   A    
C10   H55   S    
C49   C50   A    
C48   O21   A    
C41   C45   A    
C9    H59   S    
C36   C98   S    
C105  H39   S    
Cr5   O26   S    
C89   C90   A    
C100  O2    A    
C21   H12   S    
C41   C51   A    
C88   C98   A    
C67   C102  S    
Cr5   O27   S    
C49   H10   S    
