data_mof_unit_29310.cif
_audit_creation_date              2013-03-05T16:13:08-0500
_audit_creation_method            fapswitch 2.2
_symmetry_space_group_name_H-M    P1
_symmetry_Int_Tables_number       1
_space_group_crystal_system       triclinic
_cell_length_a                    8.309253
_cell_length_b                    16.360758
_cell_length_c                    19.002326
_cell_angle_alpha                 113.089815
_cell_angle_beta                  91.334291
_cell_angle_gamma                 84.316441
_cell_volume                      2364.31698693

loop_
_atom_site_label
_atom_site_type_symbol
_atom_site_description
_atom_site_fract_x
_atom_site_fract_y
_atom_site_fract_z
_atom_type_partial_charge
P1    P     P_3+3 0.582960 0.413890 0.320860 0.556844
O1    O     O_2   0.402610 0.439360 0.314250 -0.292491
O2    O     O_3   0.648560 0.446300 0.404730 -0.377392
O3    O     O_3   0.108870 0.604000 0.387500 -0.370830
O4    O     O_2   0.235529 0.535960 0.248700 -0.381743
O5    O     O_3   0.601043 0.296911 0.279141 -0.525028
O6    O     O_3   0.116225 0.702437 0.294597 -0.543682
H1    H     H_    0.084486 0.768522 0.412079 0.125714
C1    C     C_3   0.045979 0.859774 0.356365 -0.812870
H2    H     H_    0.174595 0.873780 0.360543 0.271338
H3    H     H_    0.996551 0.862310 0.302429 0.293745
P2    P     P_3+3 0.071690 0.707860 0.593450 0.523130
P3    P     P_3+3 0.502384 0.765706 0.451196 0.521898
O7    O     O_2   0.241370 0.719440 0.573960 -0.263214
O8    O     O_3   0.507090 0.652150 0.432150 -0.350089
O9    O     O_2   0.354598 0.811661 0.505218 -0.331173
O10   O     O_3   0.073279 0.745888 0.693260 -0.552657
O11   O     O_3   0.454769 0.784145 0.368104 -0.536581
C2    C     C_3   0.522149 0.710850 0.304577 0.249731
H4    H     H_    0.464881 0.649761 0.297959 0.118840
H5    H     H_    0.654700 0.699218 0.310635 0.021702
C3    C     C_3   0.489477 0.728946 0.232325 -0.066252
H6    H     H_    0.357557 0.745833 0.228374 0.166968
C4    C     C_3   0.677900 0.745017 0.688898 0.749077
H7    H     H_    0.786805 0.701203 0.660262 0.019135
C5    C     C_3   0.731769 0.831539 0.749549 -0.718528
H8    H     H_    0.824492 0.817070 0.786823 0.253445
H9    H     H_    0.786019 0.870648 0.721445 0.202274
H10   H     H_    0.627174 0.872968 0.785804 0.297605
Ba1   Ba    Ba6+2 0.333520 0.539550 0.472180 1.692451
C6    C     C_3   0.554039 0.262117 0.330922 0.206872
H11   H     H_    0.433436 0.293764 0.355211 0.112298
H12   H     H_    0.643414 0.273192 0.377358 0.112112
C7    C     C_3   0.541893 0.162019 0.288162 -0.043625
H13   H     H_    0.449695 0.151520 0.242849 0.191229
H14   H     H_    0.502643 0.133477 0.327949 0.035249
C8    C     C_3   0.163379 0.683946 0.715861 0.229904
H15   H     H_    0.283825 0.664811 0.687325 0.110763
H16   H     H_    0.096512 0.624067 0.701729 0.072546
C9    C     C_3   0.185026 0.726078 0.802644 -0.117949
H17   H     H_    0.240787 0.674798 0.822819 0.070112
H18   H     H_    0.065548 0.751038 0.831562 0.163315
P4    P     P_3+3 0.606720 0.586180 0.679160 0.550810
O12   O     O_2   0.787080 0.560670 0.685800 -0.363150
O13   O     O_3   0.541120 0.553770 0.595290 -0.319804
O14   O     O_3   0.080800 0.396070 0.612520 -0.271093
O15   O     O_3   0.583555 0.704011 0.722959 -0.548596
P5    P     P_3+3 0.701461 0.232153 0.544730 0.589302
O16   O     O_3   0.164600 0.390590 0.443970 -0.308727
O17   O     O_3   0.682580 0.347920 0.567870 -0.296057
O18   O     O_2   0.849523 0.190400 0.490537 -0.304698
O19   O     O_3   0.757414 0.216727 0.628262 -0.450732
Ba2   Ba    Ba6+2 0.856270 0.460520 0.527840 1.736889
P6    P     P_3+3 0.087804 0.597696 0.294374 0.461534
C10   C     C_3   0.031668 0.768442 0.357810 0.422733
H19   H     H_    0.901349 0.757911 0.356132 0.036321
H20   H     H_    0.977316 0.912104 0.405518 0.202979
O20   O     O_3   0.025080 0.609480 0.556050 -0.405398
C11   C     C_3   0.017620 0.262910 0.268411 0.693023
H21   H     H_    0.900176 0.272283 0.298125 0.083620
C12   C     C_3   0.005058 0.196351 0.186217 -0.706951
H22   H     H_    0.987589 0.129638 0.185221 0.273417
H23   H     H_    0.901924 0.218678 0.157970 0.257829
H24   H     H_    0.117778 0.189813 0.153379 0.271639
P7    P     P_3+3 0.129291 0.276512 0.402452 0.520915
O21   O     O_2   0.948320 0.280590 0.426090 -0.354727
O22   O     O_3   0.145580 0.230886 0.302276 -0.608800
H25   H     H_    0.526806 0.668085 0.180998 0.054532
C13   C     C_3   0.628878 0.253918 0.681173 0.387600
H26   H     H_    0.593827 0.324985 0.690911 0.099810
H27   H     H_    0.525265 0.213792 0.659727 0.095223
C14   C     C_3   0.678578 0.251306 0.757884 -0.779279
H28   H     H_    0.774281 0.296468 0.783333 0.265218
H29   H     H_    0.572618 0.274180 0.797822 0.215583
H30   H     H_    0.724356 0.182263 0.750495 0.287100
P8    P     P_3+3 0.094626 0.414108 0.710725 0.521558
C15   C     C_3   0.161244 0.249263 0.702801 0.689466
H31   H     H_    0.281263 0.271742 0.699784 -0.100980
O23   O     O_2   0.953116 0.483761 0.750931 -0.396271
O24   O     O_3   0.038054 0.320923 0.725531 -0.569815
H32   H     H_    0.229100 0.252319 0.815166 0.123435
C16   C     C_3   0.171846 0.207334 0.763037 -0.189910
H33   H     H_    0.047722 0.200056 0.778969 0.186561
C17   C     C_R   0.513456 0.458544 0.040658 -0.019506
C18   C     C_R   0.434472 0.413360 0.077466 -0.077222
C19   C     C_R   0.288406 0.378493 0.047112 -0.128792
C20   C     C_R   0.221915 0.387394 0.981856 0.266762
C21   C     C_R   0.306066 0.427289 0.941750 0.027218
C22   C     C_R   0.453421 0.462093 0.970758 0.034257
C23   C     C_R   0.246957 0.432547 0.873423 -0.259391
C24   C     C_R   0.335746 0.466286 0.830114 -0.040663
C25   C     C_R   0.482931 0.503171 0.859402 -0.017578
C26   C     C_R   0.540404 0.500780 0.930290 0.018802
C27   C     C_R   0.279440 0.465916 0.759047 0.180622
C28   C     C_R   0.364140 0.506560 0.721015 -0.421569
C29   C     C_R   0.510108 0.542437 0.746186 0.249848
C30   C     C_R   0.568666 0.545475 0.819972 -0.122866
C31   C     C_R   0.655975 0.496877 0.071981 0.020959
C32   C     C_R   0.709909 0.499094 0.144489 -0.021497
C33   C     C_R   0.628728 0.454940 0.182949 -0.192098
C34   C     C_R   0.505593 0.401237 0.142092 0.385427
H34   H     H_    0.220269 0.346923 0.075341 0.218840
H35   H     H_    0.315094 0.509343 0.668729 0.176571
H36   H     H_    0.130102 0.410504 0.854191 0.204703
C35   C     C_R   0.704345 0.590107 0.858417 0.359289
C36   C     C_R   0.772455 0.576342 0.922237 0.024583
C37   C     C_R   0.686285 0.535885 0.960556 -0.017685
C38   C     C_R   0.742963 0.534821 0.031484 0.090663
C39   C     C_R   0.922761 0.607223 0.951397 -0.074710
C40   C     C_R   0.978880 0.605389 0.020330 -0.161042
C41   C     C_R   0.887628 0.571827 0.061865 0.144090
C42   C     C_R   0.849585 0.542496 0.176648 0.006788
C43   C     C_R   0.939560 0.575474 0.133419 -0.171535
C44   C     C_R   0.895408 0.552128 0.251209 0.220962
C45   C     C_R   0.799038 0.521333 0.293634 -0.449759
C46   C     C_R   0.676015 0.466189 0.259832 0.236494
H37   H     H_    0.998736 0.633241 0.921188 0.156709
H38   H     H_    0.093291 0.631368 0.041609 0.137637
H39   H     H_    0.049861 0.605718 0.155127 0.170467
H40   H     H_    0.832297 0.532256 0.351814 0.176728
C47   C     C_2   0.398385 0.235573 0.482181 0.014467
C48   C     C_R   0.811961 0.749479 0.510291 -0.490357
C49   C     C_2   0.247342 0.111819 0.402063 -0.251268
C50   C     C_2   0.259743 0.200330 0.434161 0.184423
C51   C     C_2   0.516726 0.181863 0.496153 0.002420
C52   C     C_3   0.479971 0.088369 0.482556 -0.029438
C53   C     C_3   0.377244 0.045750 0.411770 0.165760
C54   C     C_2   0.618695 0.026069 0.488571 -0.139149
C55   C     C_2   0.589691 0.965942 0.516960 -0.045543
C56   C     C_R   0.855837 0.930585 0.565323 0.208309
C57   C     C_R   0.716615 0.900393 0.524067 -0.125161
C58   C     C_R   0.968101 0.871627 0.582135 -0.272242
C59   C     C_R   0.943509 0.781222 0.557005 0.213920
C60   C     C_R   0.692643 0.809197 0.497374 0.250911
H41   H     H_    0.151170 0.086109 0.362200 0.199164
H42   H     H_    0.070804 0.897167 0.617075 0.231762
H43   H     H_    0.795570 0.679165 0.489402 0.186135
H44   H     H_    0.738323 0.027232 0.467363 0.172655
H45   H     H_    0.466741 0.963417 0.533683 0.196581
N1    N     N_R   0.697048 0.115011 0.254345 0.272268
O25   O     O_R   0.709569 0.068621 0.180968 -0.297743
O26   O     O_R   0.815797 0.108329 0.298233 -0.406174
N2    N     N_R   0.284797 0.800552 0.824458 0.295983
O27   O     O_R   0.407732 0.803324 0.868655 -0.303445
O28   O     O_R   0.238417 0.870180 0.809350 -0.264424
Br1   Br    Br    0.071039 0.372109 0.266138 -0.456518
N3    N     N_R   0.122707 0.184266 0.627425 0.250098
O29   O     O_R   0.128610 0.206386 0.569294 -0.372038
O30   O     O_R   0.058474 0.111609 0.618962 -0.370023
N4    N     N_R   0.267071 0.120319 0.735799 0.283192
O31   O     O_R   0.419682 0.113184 0.718610 -0.402438
O32   O     O_R   0.202695 0.050492 0.734661 -0.280711
Br2   Br    Br    0.015836 0.341661 0.950595 -0.573340
N5    N     N_R   0.494544 0.317512 0.148273 0.256393
O33   O     O_R   0.614585 0.255753 0.122607 -0.348038
O34   O     O_R   0.357729 0.295662 0.163547 -0.364628
Br3   Br    Br    0.764599 0.695353 0.849406 -0.505453
N6    N     N_R   0.390343 0.328637 0.525055 0.246385
O35   O     O_R   0.444989 0.380287 0.495808 -0.362132
O36   O     O_R   0.383898 0.354019 0.598470 -0.476284
N7    N     N_R   0.578208 0.801875 0.233163 0.283129
O37   O     O_R   0.500601 0.876625 0.237008 -0.336707
O38   O     O_R   0.734922 0.790555 0.225313 -0.392448
N8    N     N_R   0.579495 0.765052 0.633180 0.183060
O39   O     O_R   0.546342 0.697509 0.572841 -0.358352
O40   O     O_R   0.488169 0.840185 0.652189 -0.341771

loop_
_geom_bond_atom_site_label_1
_geom_bond_atom_site_label_2
_geom_bond_distance
_ccdc_geom_bond_type
C10   H19   1.110996 S    
C52   C53   1.533898 S    
C12   H24   1.110455 S    
P3    C60   1.855816 S    
Ba1   O13   2.822607 S    
C28   C29   1.392194 A    
C33   C46   1.448916 A    
P8    O23   1.535736 D    
O6    C10   1.405089 S    
C20   C21   1.414608 A    
C57   C60   1.408439 A    
C54   C55   1.336432 D    
C40   H38   1.084091 S    
O14   P8    1.774123 S    
H32   C16   1.106711 S    
C39   H37   1.082131 S    
C49   C50   1.346675 D    
C15   H31   1.106753 S    
C5    H8    1.105121 S    
O16   P7    1.770512 S    
P3    O11   1.749719 S    
C34   N5    1.431855 S    
C25   C26   1.432412 A    
N8    O39   1.289763 A    
C2    H5    1.110092 S    
N1    O26   1.301109 A    
C7    H13   1.112259 S    
C8    C9    1.531701 S    
C36   C37   1.406129 A    
N2    O27   1.300076 A    
Ba1   O20   2.932012 S    
C47   N6    1.412771 S    
C31   C38   1.410502 A    
C13   H27   1.106375 S    
P1    O1    1.530930 D    
P7    C50   1.839172 S    
C7    N1    1.456393 S    
C12   H23   1.107380 S    
C54   H44   1.085931 S    
C40   C41   1.396286 A    
C48   C60   1.408070 A    
C47   C50   1.470433 S    
O19   C13   1.401170 S    
C11   O22   1.393317 S    
P5    C51   1.863798 S    
C43   H39   1.080335 S    
O12   Ba2   2.839216 S    
P4    Ba2   3.404570 S    
P5    O18   1.543213 D    
C35   Br3   1.910745 S    
N3    O29   1.293518 A    
C58   C59   1.399589 A    
P7    O22   1.754024 S    
P2    O10   1.749099 S    
C37   C38   1.423323 A    
C20   Br2   1.924245 S    
C1    C10   1.521593 S    
P1    C46   1.904194 S    
C1    H2    1.109602 S    
C15   N3    1.461612 S    
N5    O34   1.296792 A    
C12   H22   1.108057 S    
P2    O20   1.568192 S    
P5    O17   1.759681 S    
O5    C6    1.395018 S    
O13   Ba2   2.942620 S    
C11   H21   1.105788 S    
N6    O36   1.290802 A    
C4    N8    1.440772 S    
O7    Ba1   2.854272 S    
C14   H30   1.110574 S    
H1    C10   1.110873 S    
C42   C44   1.410274 A    
C42   C43   1.407481 A    
N7    O38   1.300708 A    
C28   H35   1.080857 S    
C25   C30   1.441234 A    
N7    O37   1.301044 A    
N1    O25   1.300805 A    
Ba1   Ba2   4.560698 S    
C11   C12   1.522194 S    
O17   Ba2   2.780678 S    
P1    O5    1.752842 S    
O4    P6    1.548112 D    
C2    C3    1.527069 S    
C17   C18   1.410491 A    
C14   H29   1.110986 S    
C24   C25   1.421506 A    
C3    N7    1.458181 S    
C19   C20   1.399244 A    
O11   C2    1.404205 S    
C18   C19   1.406284 A    
P2    Ba1   3.419950 S    
C49   H41   1.085251 S    
P1    O2    1.572325 S    
O2    Ba1   2.941844 S    
C56   C58   1.397238 A    
P4    O12   1.531240 D    
C48   C59   1.399335 A    
C47   C51   1.345094 D    
C8    H15   1.106228 S    
P4    O13   1.572325 S    
C49   C53   1.511138 S    
C32   C33   1.429874 A    
C55   H45   1.086366 S    
C58   H42   1.081812 S    
C23   H36   1.075120 S    
C29   C30   1.457223 A    
C6    H12   1.110702 S    
P4    C29   1.911839 S    
C6    C7    1.528929 S    
C27   C28   1.397547 A    
C41   C43   1.397381 A    
O10   C8    1.395738 S    
C4    H7    1.103322 S    
Ba2   O21   2.854448 S    
C1    H3    1.109600 S    
C3    H25   1.109127 S    
N5    O33   1.300088 A    
C16   N4    1.462440 S    
C9    H17   1.110192 S    
Ba1   O16   2.795479 S    
P2    O7    1.514325 D    
C31   C32   1.426814 A    
P2    C59   1.849071 S    
P3    O8    1.744426 S    
N6    O35   1.298180 A    
N4    O32   1.301103 A    
C9    N2    1.460026 S    
C17   C22   1.428415 A    
C19   H34   1.079094 S    
C13   C14   1.521357 S    
C18   C34   1.425018 A    
O8    Ba1   2.780087 S    
C15   O24   1.412298 S    
N2    O28   1.301171 A    
C52   C54   1.494394 S    
O3    P6    1.737471 S    
N4    O31   1.299390 A    
C4    O15   1.397112 S    
C6    H11   1.103038 S    
P8    O24   1.763238 S    
C48   H43   1.081608 S    
C21   C23   1.408520 A    
C14   H28   1.109238 S    
Ba2   O20   2.794945 S    
C45   H40   1.082195 S    
C44   C45   1.404824 A    
P8    C27   1.871239 S    
N3    O30   1.302123 A    
C35   C36   1.413762 A    
C5    H9    1.110942 S    
C38   C41   1.408005 A    
O1    Ba1   2.838690 S    
C17   C31   1.404098 A    
C2    H4    1.110859 S    
N8    O40   1.302728 A    
C56   C57   1.401457 A    
C30   C35   1.429755 A    
C8    H16   1.111339 S    
C39   C40   1.390594 A    
C26   C37   1.405819 A    
C24   C27   1.416818 A    
O2    Ba2   2.823154 S    
C4    C5    1.534385 S    
C23   C24   1.411223 A    
C51   C52   1.509526 S    
C15   C16   1.545225 S    
O16   Ba2   2.931236 S    
C32   C42   1.419331 A    
P6    C44   1.865388 S    
O14   Ba2   2.825463 S    
C9    H18   1.106093 S    
P1    Ba1   3.404048 S    
C7    H14   1.102089 S    
C1    H20   1.109853 S    
P7    O21   1.567007 D    
C22   C26   1.418662 A    
C13   H26   1.112490 S    
C11   Br1   1.899805 S    
P5    O19   1.748139 S    
C21   C22   1.409877 A    
C5    H10   1.111003 S    
C16   H33   1.112084 S    
P3    O9    1.548384 D    
C3    H6    1.111747 S    
C33   C34   1.423940 A    
O6    P6    1.751219 S    
P4    O15   1.766830 S    
O3    Ba1   2.826069 S    
C45   C46   1.403230 A    
C55   C57   1.470912 S    
C36   C39   1.412549 A    
