data_mof_unit_56164.cif
_audit_creation_date              2012-12-10T18:57:50-0500
_audit_creation_method            fapswitch 2.2
_symmetry_space_group_name_H-M    P1
_symmetry_Int_Tables_number       1
_space_group_crystal_system       triclinic
_cell_length_a                    10.726211
_cell_length_b                    9.957101
_cell_length_c                    8.895969
_cell_angle_alpha                 90.058394
_cell_angle_beta                  91.570371
_cell_angle_gamma                 89.913187
_cell_volume                      949.748595826

loop_
_atom_site_label
_atom_site_type_symbol
_atom_type_description
_atom_site_fract_x
_atom_site_fract_y
_atom_site_fract_z
_atom_type_partial_charge
C1    C     C_R   0.260215 0.500076 0.500718 0.878395
C2    C     C_R   0.063443 0.622230 0.492564 -0.150087
C3    C     C_R   0.872423 0.499848 0.498392 -0.034531
C4    C     C_R   0.127577 0.500152 0.501609 -0.034531
C5    C     C_R   0.561705 0.071744 0.611461 -0.037158
C6    C     C_R   0.438295 0.928256 0.388539 -0.037157
C7    C     C_R   0.438291 0.071734 0.388535 -0.045250
C8    C     C_R   0.561709 0.928266 0.611465 -0.045255
C9    C     C_2   0.629286 0.143541 0.733367 0.966451
C10   C     C_2   0.370715 0.856459 0.266632 0.966449
C11   C     C_2   0.368880 0.143530 0.268086 0.976848
C12   C     C_R   0.739785 0.499924 0.499283 0.878395
C13   C     C_2   0.631118 0.856471 0.731917 0.976853
C14   C     C_R   0.499688 0.499957 0.219010 0.919119
C15   C     C_R   0.500312 0.500043 0.780990 0.919118
C16   C     C_1   0.499886 0.499933 0.065485 -0.127352
C17   C     C_1   0.500114 0.500067 0.934515 -0.127356
C18   C     C_R   0.064251 0.377980 0.510140 -0.162896
C19   C     C_R   0.935749 0.622020 0.489861 -0.162895
C20   C     C_R   0.936557 0.377770 0.507437 -0.150087
H1    H     H_    0.112743 0.282759 0.519159 0.212408
H2    H     H_    0.887257 0.717240 0.480843 0.212407
H3    H     H_    0.888765 0.282313 0.512637 0.211519
H4    H     H_    0.111235 0.717687 0.487363 0.211518
H5    H     H_    0.635071 0.197696 0.951875 0.352678
H6    H     H_    0.364929 0.802311 0.048122 0.352678
H7    H     H_    0.211051 0.239318 0.202490 0.339127
H8    H     H_    0.788940 0.760673 0.797515 0.339126
N1    N     N_R   0.500000 0.857200 0.500000 -0.160933
N2    N     N_R   0.500000 0.142800 0.500000 -0.160935
O1    O     O_R   0.316770 0.614620 0.499990 -0.604113
O2    O     O_R   0.579705 0.147264 0.876911 -0.714407
O3    O     O_2   0.269492 0.805726 0.289526 -0.642800
O4    O     O_R   0.420294 0.852743 0.123087 -0.714412
O5    O     O_2   0.413252 0.152747 0.143440 -0.558191
O6    O     O_R   0.249766 0.193370 0.294122 -0.810285
O7    O     O_2   0.586749 0.847264 0.856564 -0.558196
O8    O     O_R   0.750226 0.806619 0.705881 -0.810281
O9    O     O_R   0.683230 0.385380 0.500010 -0.604116
O10   O     O_R   0.683230 0.614620 0.500010 -0.603801
O11   O     O_R   0.316770 0.385380 0.499990 -0.603808
O12   O     O_R   0.500010 0.614640 0.285340 -0.605208
O13   O     O_R   0.499990 0.385360 0.714660 -0.605206
O14   O     O_R   0.499990 0.614640 0.714660 -0.611632
O15   O     O_R   0.500010 0.385360 0.285340 -0.611627
O16   O     O_2   0.730511 0.194270 0.710473 -0.642805
Zn1   Zn    Zn3+2 0.500000 0.653120 0.500000 1.012109
Zn2   Zn    Zn3+2 0.500000 0.346880 0.500000 1.012109

loop_
_geom_bond_atom_site_label_1
_geom_bond_atom_site_label_2
_ccdc_geom_bond_type
C6    C10   S    
O10   Zn1   S    
C2    C4    A    
C20   H3    S    
C5    C9    S    
C8    C13   S    
H7    O6    S    
C10   O3    D    
C18   H1    S    
O13   Zn2   S    
C13   O7    D    
O14   Zn1   S    
H8    O8    S    
C14   O12   A    
C1    C4    S    
C4    C18   A    
C19   H2    S    
H5    O2    S    
C11   O5    D    
C15   O13   A    
C9    O16   D    
C10   O4    S    
C7    N2    A    
O1    Zn1   S    
C3    C19   A    
C3    C20   A    
C13   O8    S    
C6    C7    A    
N1    Zn1   S    
C8    N1    A    
C1    O11   A    
C11   O6    S    
O11   Zn2   S    
C15   O14   A    
C7    C11   S    
C14   O15   A    
C18   C20   A    
O12   Zn1   S    
C2    H4    S    
C14   C16   S    
C5    C8    A    
C1    O1    A    
C6    N1    A    
C5    N2    A    
O15   Zn2   S    
N2    Zn2   S    
C15   C17   S    
C16   C17   T    
C3    C12   S    
C9    O2    S    
C2    C19   A    
H6    O4    S    
C12   O9    A    
O9    Zn2   S    
C12   O10   A    
