data_mof_unit_7367.cif
_audit_creation_date              2012-12-10T16:37:23-0500
_audit_creation_method            fapswitch 2.2
_symmetry_space_group_name_H-M    P1
_symmetry_Int_Tables_number       1
_space_group_crystal_system       triclinic
_cell_length_a                    16.850606
_cell_length_b                    16.850627
_cell_length_c                    16.850623
_cell_angle_alpha                 66.116012
_cell_angle_beta                  66.115971
_cell_angle_gamma                 66.11589
_cell_volume                      3830.53285132

loop_
_atom_site_label
_atom_site_type_symbol
_atom_type_description
_atom_site_fract_x
_atom_site_fract_y
_atom_site_fract_z
_atom_type_partial_charge
C1    C     C_R   0.402663 0.051279 0.661046 0.433461
C2    C     C_R   0.402664 0.661047 0.051277 0.433461
C3    C     C_R   0.948723 0.597336 0.338953 0.433461
C4    C     C_R   0.051278 0.402664 0.661046 0.433461
C5    C     C_R   0.964729 0.179093 0.436956 0.887566
C6    C     C_R   0.035270 0.820907 0.563045 0.887565
C7    C     C_R   0.179093 0.436956 0.964728 0.887567
C8    C     C_R   0.820907 0.563044 0.035271 0.887564
C9    C     C_R   0.436956 0.964729 0.179093 0.887566
C10   C     C_R   0.563044 0.035271 0.820907 0.887566
C11   C     C_R   0.563044 0.820907 0.035271 0.887567
C12   C     C_R   0.597337 0.948720 0.338954 0.433461
C13   C     C_R   0.436956 0.179093 0.964729 0.887566
C14   C     C_R   0.035270 0.563045 0.820907 0.887565
C15   C     C_R   0.964729 0.436955 0.179093 0.887565
C16   C     C_R   0.820907 0.035271 0.563044 0.887565
C17   C     C_R   0.179093 0.964729 0.436956 0.887566
C18   C     C_R   0.447552 0.065922 0.705390 -0.213242
C19   C     C_R   0.552448 0.934077 0.294610 -0.213242
C20   C     C_R   0.065920 0.705390 0.447553 -0.213244
C21   C     C_R   0.934077 0.294611 0.552447 -0.213242
C22   C     C_R   0.705390 0.447552 0.065921 -0.213241
C23   C     C_R   0.051280 0.661045 0.402663 0.433464
C24   C     C_R   0.294611 0.552448 0.934076 -0.213241
C25   C     C_R   0.294611 0.934077 0.552448 -0.213241
C26   C     C_R   0.705389 0.065923 0.447552 -0.213242
C27   C     C_R   0.552448 0.294610 0.934076 -0.213242
C28   C     C_R   0.447552 0.705390 0.065920 -0.213241
C29   C     C_R   0.934079 0.552447 0.294610 -0.213243
C30   C     C_R   0.065920 0.447553 0.705390 -0.213244
C31   C     C_R   0.541892 0.022939 0.541892 -0.071911
C32   C     C_R   0.458108 0.977060 0.458107 -0.071911
C33   C     C_R   0.022939 0.541892 0.541892 -0.071912
C34   C     C_R   0.948720 0.338955 0.597336 0.433461
C35   C     C_R   0.977062 0.458107 0.458107 -0.071912
C36   C     C_R   0.541893 0.541893 0.022937 -0.071911
C37   C     C_R   0.458108 0.458108 0.977059 -0.071912
C38   C     C_R   0.586107 0.015687 0.452542 -0.005048
C39   C     C_R   0.413893 0.984313 0.547458 -0.005049
C40   C     C_R   0.015686 0.452542 0.586106 -0.005047
C41   C     C_R   0.984315 0.547458 0.413892 -0.005047
C42   C     C_R   0.452542 0.586107 0.015684 -0.005048
C43   C     C_R   0.547459 0.413894 0.984311 -0.005048
C44   C     C_R   0.547459 0.984313 0.413893 -0.005048
C45   C     C_R   0.661047 0.402664 0.051278 0.433461
C46   C     C_R   0.452542 0.015687 0.586106 -0.005048
C47   C     C_R   0.413894 0.547459 0.984311 -0.005048
C48   C     C_R   0.586107 0.452542 0.015685 -0.005048
C49   C     C_R   0.984313 0.413894 0.547457 -0.005049
C50   C     C_R   0.015687 0.586106 0.452541 -0.005048
C51   C     C_R   0.542089 0.051307 0.673759 0.019154
C52   C     C_R   0.457911 0.948693 0.326241 0.019155
C53   C     C_R   0.051304 0.673759 0.542090 0.019155
C54   C     C_R   0.948694 0.326241 0.457910 0.019155
C55   C     C_R   0.673759 0.542089 0.051306 0.019154
C56   C     C_R   0.338954 0.597337 0.948718 0.433462
C57   C     C_R   0.326241 0.457911 0.948692 0.019154
C58   C     C_R   0.326241 0.948693 0.457911 0.019154
C59   C     C_R   0.673759 0.051307 0.542089 0.019154
C60   C     C_R   0.457911 0.326241 0.948692 0.019154
C61   C     C_R   0.542089 0.673759 0.051305 0.019155
C62   C     C_R   0.948694 0.457910 0.326240 0.019153
C63   C     C_R   0.051304 0.542090 0.673759 0.019154
C64   C     C_R   0.593264 0.052965 0.722958 -0.097999
C65   C     C_R   0.406736 0.947034 0.277042 -0.098000
C66   C     C_R   0.052962 0.722958 0.593266 -0.097997
C67   C     C_R   0.338954 0.948721 0.597336 0.433462
C68   C     C_R   0.947035 0.277042 0.406735 -0.098000
C69   C     C_R   0.722958 0.593264 0.052966 -0.097999
C70   C     C_R   0.277042 0.406736 0.947034 -0.098000
C71   C     C_R   0.277042 0.947034 0.406735 -0.097999
C72   C     C_R   0.722958 0.052966 0.593264 -0.097999
C73   C     C_R   0.406736 0.277042 0.947034 -0.098000
C74   C     C_R   0.593264 0.722958 0.052965 -0.097999
C75   C     C_R   0.947035 0.406735 0.277042 -0.097999
C76   C     C_R   0.052962 0.593266 0.722958 -0.097997
C77   C     C_R   0.681110 0.056630 0.681110 -0.284253
C78   C     C_R   0.661046 0.051279 0.402664 0.433461
C79   C     C_R   0.318890 0.943369 0.318890 -0.284253
C80   C     C_R   0.056625 0.681111 0.681111 -0.284257
C81   C     C_R   0.943370 0.318890 0.318890 -0.284253
C82   C     C_R   0.681110 0.681110 0.056631 -0.284254
C83   C     C_R   0.318890 0.318890 0.943369 -0.284253
C84   C     C_R   0.586096 0.041323 0.586096 0.062579
C85   C     C_R   0.413904 0.958677 0.413904 0.062579
C86   C     C_R   0.041321 0.586096 0.586097 0.062579
C87   C     C_R   0.958678 0.413903 0.413903 0.062580
C88   C     C_R   0.586097 0.586097 0.041321 0.062578
C89   C     C_R   0.597337 0.338954 0.948719 0.433463
C90   C     C_R   0.413904 0.413904 0.958676 0.062579
Cl1   Cl    Cl    0.284173 0.100419 0.687780 -0.457066
Cl2   Cl    Cl    0.284173 0.687781 0.100415 -0.457060
Cl3   Cl    Cl    0.899586 0.715826 0.312217 -0.457066
Cl4   Cl    Cl    0.100416 0.284173 0.687782 -0.457065
Cl5   Cl    Cl    0.715828 0.899579 0.312221 -0.457067
Cl6   Cl    Cl    0.100425 0.687774 0.284174 -0.457068
Cl7   Cl    Cl    0.899577 0.312224 0.715826 -0.457064
Cl8   Cl    Cl    0.687780 0.284174 0.100417 -0.457066
Cl9   Cl    Cl    0.312221 0.715827 0.899578 -0.457065
Cl10  Cl    Cl    0.312220 0.899582 0.715827 -0.457064
Cl11  Cl    Cl    0.687781 0.100417 0.284173 -0.457065
Cl12  Cl    Cl    0.715827 0.312219 0.899580 -0.457062
H1    H     H_    0.719502 0.056683 0.719502 0.200564
H2    H     H_    0.903944 0.239840 0.593777 0.200931
H3    H     H_    0.760161 0.406222 0.096054 0.200932
H4    H     H_    0.239839 0.593778 0.903944 0.200932
H5    H     H_    0.239839 0.903945 0.593778 0.200932
H6    H     H_    0.760161 0.096055 0.406222 0.200932
H7    H     H_    0.593778 0.239838 0.903945 0.200932
H8    H     H_    0.406222 0.760162 0.096052 0.200933
H9    H     H_    0.903948 0.593777 0.239838 0.200934
H10   H     H_    0.096051 0.406224 0.760161 0.200934
H11   H     H_    0.280498 0.943316 0.280498 0.200564
H12   H     H_    0.056677 0.719503 0.719504 0.200566
H13   H     H_    0.943315 0.280498 0.280499 0.200564
H14   H     H_    0.719501 0.719501 0.056686 0.200564
H15   H     H_    0.280498 0.280498 0.943316 0.200564
H16   H     H_    0.406222 0.096054 0.760162 0.200932
H17   H     H_    0.593779 0.903945 0.239839 0.200932
H18   H     H_    0.096050 0.760163 0.406223 0.200934
O1    O     O_R   0.982940 0.138950 0.510160 -0.623270
O2    O     O_R   0.982940 0.510160 0.138950 -0.623272
O3    O     O_R   0.861050 0.017060 0.489840 -0.623271
O4    O     O_R   0.138950 0.982940 0.510160 -0.623270
O5    O     O_R   0.867700 0.025880 0.612340 -0.622978
O6    O     O_R   0.132300 0.974120 0.387660 -0.622977
O7    O     O_R   0.025880 0.612340 0.867700 -0.622978
O8    O     O_R   0.974120 0.387660 0.132300 -0.622977
O9    O     O_R   0.612340 0.867700 0.025880 -0.622977
O10   O     O_R   0.387660 0.132300 0.974120 -0.622978
O11   O     O_R   0.387660 0.974120 0.132300 -0.622977
O12   O     O_R   0.017060 0.861050 0.489840 -0.623274
O13   O     O_R   0.612340 0.025880 0.867700 -0.622978
O14   O     O_R   0.132300 0.387660 0.974120 -0.622977
O15   O     O_R   0.867700 0.612340 0.025880 -0.622977
O16   O     O_R   0.974120 0.132300 0.387660 -0.622978
O17   O     O_R   0.025880 0.867700 0.612340 -0.622978
O18   O     O_R   0.138950 0.510160 0.982940 -0.623270
O19   O     O_R   0.861050 0.489840 0.017060 -0.623271
O20   O     O_R   0.510160 0.982940 0.138950 -0.623271
O21   O     O_R   0.489840 0.017060 0.861050 -0.623272
O22   O     O_R   0.489840 0.861050 0.017060 -0.623273
O23   O     O_R   0.510160 0.138950 0.982940 -0.623271
O24   O     O_R   0.017060 0.489840 0.861050 -0.623272
Zn1   Zn    Zn3+2 0.004880 0.004880 0.583590 1.050001
Zn2   Zn    Zn3+2 0.995120 0.995120 0.416410 1.049999
Zn3   Zn    Zn3+2 0.004880 0.583590 0.004880 1.050001
Zn4   Zn    Zn3+2 0.995120 0.416410 0.995120 1.050001
Zn5   Zn    Zn3+2 0.583590 0.004880 0.004880 1.050001
Zn6   Zn    Zn3+2 0.416410 0.995120 0.995120 1.050000

loop_
_geom_bond_atom_site_label_1
_geom_bond_atom_site_label_2
_ccdc_geom_bond_type
C5    O16   A    
C15   C75   S    
C65   C79   A    
C15   O2    A    
C89   Cl12  S    
C64   C77   A    
C36   C42   A    
C16   C72   S    
C10   O13   A    
O24   Zn4   S    
C7    C70   S    
C71   C79   A    
O6    Zn2   S    
C36   C88   A    
C38   C44   A    
C1    C18   A    
C43   C89   A    
C37   C90   A    
C8    O19   A    
C68   C81   A    
O17   Zn1   S    
C52   C85   A    
C16   O3    A    
C27   C60   A    
C54   C87   A    
C9    O20   A    
C17   O6    A    
C54   C68   A    
C63   C76   A    
C40   C49   A    
C5    O1    A    
C60   C73   A    
C34   Cl7   S    
C23   Cl6   S    
C32   C39   A    
C55   C88   A    
C3    C29   A    
C69   C82   A    
C21   H2    S    
C35   C87   A    
C19   C52   A    
O10   Zn6   S    
C4    C40   A    
C24   C57   A    
C31   C46   A    
C25   C67   A    
C35   C49   A    
C13   O10   A    
O3    Zn2   S    
C12   Cl5   S    
C36   C48   A    
C53   C86   A    
C57   C70   A    
C37   C47   A    
C43   C48   A    
C18   H16   S    
C59   C72   A    
C28   C61   A    
C19   H17   S    
C1    Cl1   S    
C30   C63   A    
C78   Cl11  S    
C74   C82   A    
C5    C68   S    
C35   C41   A    
C11   O9    A    
O21   Zn6   S    
C9    O11   A    
C32   C44   A    
C14   O24   A    
O19   Zn4   S    
C33   C40   A    
C57   C90   A    
O13   Zn5   S    
C59   C84   A    
C7    O14   A    
C6    O12   A    
O4    Zn1   S    
C26   H6    S    
O8    Zn4   S    
C23   C50   A    
C21   C34   A    
C38   C78   A    
C28   H8    S    
C33   C50   A    
C4    C30   A    
C14   O7    A    
C30   H10   S    
C10   O21   A    
C14   C76   S    
C37   C43   A    
C33   C86   A    
O9    Zn5   S    
C72   C77   A    
C70   C83   A    
C61   C88   A    
C17   O4    A    
C20   C23   A    
O23   Zn5   S    
O18   Zn3   S    
C81   H13   S    
C8    C69   S    
C3    Cl3   S    
C26   C78   A    
O2    Zn3   S    
C2    Cl2   S    
C53   C66   A    
C55   C69   A    
C67   Cl10  S    
C39   C46   A    
C4    Cl4   S    
C16   O5    A    
C80   H12   S    
C17   C71   S    
O15   Zn3   S    
C15   O8    A    
C79   H11   S    
C63   C86   A    
C61   C74   A    
O1    Zn1   S    
C62   C75   A    
C77   H1    S    
C24   H4    S    
C25   C58   A    
C58   C85   A    
C41   C50   A    
C20   H18   S    
C66   C80   A    
C25   H5    S    
C26   C59   A    
C45   C48   A    
C29   C62   A    
C3    C41   A    
C34   C49   A    
C39   C67   A    
C29   H9    S    
C75   C81   A    
C51   C64   A    
C76   C80   A    
C13   C73   S    
C20   C53   A    
C11   C74   S    
C7    O18   A    
C22   C55   A    
C60   C90   A    
C18   C51   A    
C24   C56   A    
C22   H3    S    
O14   Zn4   S    
C62   C87   A    
C10   C64   S    
C31   C38   A    
C45   Cl8   S    
O12   Zn2   S    
C83   H15   S    
C6    O17   A    
C82   H14   S    
C12   C44   A    
O5    Zn1   S    
O22   Zn6   S    
C21   C54   A    
C2    C42   A    
C32   C85   A    
O20   Zn5   S    
C12   C19   A    
C27   C89   A    
C42   C47   A    
C13   O23   A    
C1    C46   A    
C11   O22   A    
C9    C65   S    
C58   C71   A    
C31   C84   A    
C6    C66   S    
C22   C45   A    
C27   H7    S    
O11   Zn6   S    
C2    C28   A    
C56   Cl9   S    
C51   C84   A    
C73   C83   A    
O16   Zn2   S    
C52   C65   A    
O7    Zn3   S    
C47   C56   A    
C8    O15   A    
