data_mof_unit_29781.cif
_audit_creation_date              2012-12-10T17:22:12-0500
_audit_creation_method            fapswitch 2.2
_symmetry_space_group_name_H-M    P1
_symmetry_Int_Tables_number       1
_space_group_crystal_system       triclinic
_cell_length_a                    15.873502
_cell_length_b                    10.776583
_cell_length_c                    9.604186
_cell_angle_alpha                 90.154598
_cell_angle_beta                  89.860421
_cell_angle_gamma                 92.714864
_cell_volume                      1641.05801275

loop_
_atom_site_label
_atom_site_type_symbol
_atom_type_description
_atom_site_fract_x
_atom_site_fract_y
_atom_site_fract_z
_atom_type_partial_charge
C1    C     C_R   0.497379 0.262663 0.499900 0.834168
C2    C     C_3   0.949273 0.425019 0.629268 -0.119814
C3    C     C_3   0.916677 0.496297 0.498769 0.207222
C4    C     C_3   0.953815 0.632444 0.507275 -0.567059
C5    C     C_3   0.051955 0.633731 0.513602 -0.117194
C6    C     C_1   0.824470 0.498157 0.498622 -0.045775
C7    C     C_1   0.175103 0.497549 0.499934 -0.066309
C8    C     C_1   0.250667 0.498115 0.500269 -0.180457
C9    C     C_R   0.365802 0.121150 0.650791 -0.163418
C10   C     C_R   0.305762 0.052995 0.728700 -0.151061
C11   C     C_R   0.307070 0.924258 0.732814 -0.159133
C12   C     C_R   0.340338 0.499171 0.500166 0.797933
C13   C     C_R   0.367530 0.862792 0.657137 -0.150119
C14   C     C_R   0.430501 0.930137 0.580022 0.097374
C15   C     C_R   0.430159 0.061227 0.577947 0.027156
C16   C     C_R   0.492813 0.128421 0.499826 -0.216654
C17   C     C_R   0.553264 0.066972 0.422083 0.485172
C18   C     C_R   0.551192 0.938439 0.420765 -0.291635
C19   C     C_R   0.492249 0.870403 0.501153 -0.162330
C20   C     C_R   0.612121 0.665569 0.143981 -0.136399
C21   C     C_R   0.666596 0.746980 0.071871 -0.206978
C22   C     C_R   0.666468 0.747200 0.928408 -0.209070
C23   C     C_R   0.497316 0.737017 0.500296 0.790998
C24   C     C_R   0.611862 0.666049 0.856121 -0.134709
C25   C     C_R   0.554944 0.581623 0.925236 0.206574
C26   C     C_R   0.555006 0.581474 0.074783 0.212277
C27   C     C_R   0.447736 0.422328 0.073842 -0.040597
C28   C     C_R   0.447758 0.422348 0.925998 -0.056468
C29   C     C_R   0.659570 0.500074 0.499755 0.807634
C30   C     C_3   0.047441 0.422403 0.625766 -0.467787
C31   C     C_3   0.046949 0.433776 0.365843 -0.439004
C32   C     C_3   0.949223 0.440561 0.359728 0.390118
C33   C     C_1   0.749041 0.499275 0.499125 -0.182484
C34   C     C_3   0.082794 0.498126 0.499509 0.215441
Cu1   Cu    Cu3+1 0.499990 0.499990 0.640660 0.921623
Cu2   Cu    Cu3+1 0.500010 0.500010 0.359340 0.956631
H1    H     H_    0.073504 0.463072 0.724274 0.154442
H2    H     H_    0.934541 0.483595 0.721287 0.116721
H3    H     H_    0.931498 0.687043 0.417643 0.172682
H4    H     H_    0.360171 0.220603 0.647134 0.135163
H5    H     H_    0.257385 0.100226 0.784737 0.124770
H6    H     H_    0.259779 0.871535 0.792308 0.125154
H7    H     H_    0.363087 0.762518 0.658389 0.155047
H8    H     H_    0.597666 0.891640 0.359563 0.151943
H9    H     H_    0.404886 0.358606 0.128934 0.133222
H10   H     H_    0.070007 0.326534 0.621702 0.165159
H11   H     H_    0.617808 0.672820 0.253707 0.187027
H12   H     H_    0.709360 0.810282 0.128058 0.146617
H13   H     H_    0.709167 0.810597 0.872385 0.137649
H14   H     H_    0.617309 0.673748 0.746355 0.194034
H15   H     H_    0.404914 0.358646 0.870842 0.132501
H16   H     H_    0.076005 0.476495 0.271147 0.134882
H17   H     H_    0.064622 0.335066 0.364476 0.182160
H18   H     H_    0.932953 0.506383 0.275296 0.058722
H19   H     H_    0.068942 0.664761 0.621218 0.126452
H20   H     H_    0.929489 0.678899 0.601962 0.171867
N1    N     N_R   0.500800 0.501210 0.147910 -0.197105
N2    N     N_R   0.500820 0.501290 0.852040 -0.199039
O1    O     O_R   0.499990 0.319640 0.618810 -0.588712
O2    O     O_R   0.500000 0.319660 0.381240 -0.536957
O3    O     O_R   0.379430 0.499990 0.618840 -0.591934
O4    O     O_R   0.379440 0.500020 0.381260 -0.571831
O5    O     O_R   0.500000 0.680340 0.618760 -0.604483
O6    O     O_R   0.500010 0.680360 0.381190 -0.590084
O7    O     O_R   0.620560 0.499980 0.618740 -0.595155
O8    O     O_R   0.620570 0.500010 0.381160 -0.580268
C35   C     C_R   0.904843 0.297919 0.655480 0.162034
C36   C     C_R   0.837121 0.289000 0.750748 -0.186253
C37   C     C_R   0.794760 0.174779 0.777129 -0.137745
C38   C     C_R   0.819396 0.067675 0.709294 -0.145872
C39   C     C_R   0.886474 0.074553 0.615031 -0.178495
C40   C     C_R   0.929089 0.188532 0.588237 -0.044419
H21   H     H_    0.816472 0.370890 0.804112 0.123905
H22   H     H_    0.742594 0.169431 0.849985 0.145757
H23   H     H_    0.786334 0.979409 0.729341 0.119041
H24   H     H_    0.905468 0.991396 0.562385 0.129179
H25   H     H_    0.980674 0.190231 0.514585 0.145991
O9    O     O_3   0.612842 0.132851 0.342685 -0.571279
C41   C     C_3   0.688213 0.146344 0.419827 -0.273541
H26   H     H_    0.715516 0.054746 0.439008 0.151128
H27   H     H_    0.678319 0.195807 0.520067 0.159853
H28   H     H_    0.734947 0.203337 0.358559 0.222635
O10   O     O_3   0.909991 0.321529 0.335155 -0.582287
C42   C     C_3   0.906231 0.295310 0.191173 -0.371770
H29   H     H_    0.969652 0.304533 0.141676 0.159591
H30   H     H_    0.861748 0.356349 0.138312 0.171240
H31   H     H_    0.882032 0.197869 0.176869 0.198138
C43   C     C_R   0.095222 0.727456 0.414121 0.151165
C44   C     C_R   0.158074 0.811848 0.465921 -0.163662
C45   C     C_R   0.200196 0.897126 0.377634 -0.122671
C46   C     C_R   0.179979 0.899804 0.236399 -0.113007
C47   C     C_R   0.117443 0.817459 0.183407 -0.145602
C48   C     C_R   0.075202 0.731897 0.271335 -0.141262
H32   H     H_    0.175032 0.810910 0.574840 0.114002
H33   H     H_    0.248629 0.961063 0.418732 0.146532
H34   H     H_    0.212627 0.965840 0.168072 0.122121
H35   H     H_    0.101532 0.820014 0.073949 0.117976
H36   H     H_    0.026545 0.670721 0.227188 0.101064

loop_
_geom_bond_atom_site_label_1
_geom_bond_atom_site_label_2
_ccdc_geom_bond_type
Cu1   Cu2   S    
C42   H31   S    
C31   H16   S    
C3    C6    S    
C7    C8    T    
Cu1   N2    S    
C42   H30   S    
C35   C40   A    
C1    O1    A    
C39   H24   S    
C28   H15   S    
Cu2   O8    S    
Cu1   O7    S    
C15   C16   A    
C29   C33   S    
C11   H6    S    
Cu1   O1    S    
C18   C19   A    
C44   H32   S    
C17   O9    S    
C46   H34   S    
C5    C43   S    
C42   H29   S    
O10   C42   S    
C36   C37   A    
C38   C39   A    
C9    C10   A    
C21   H12   S    
C27   H9    S    
C23   O5    A    
C13   C14   A    
C4    H20   S    
C10   H5    S    
C3    C32   S    
Cu2   O4    S    
C32   H18   S    
C30   H10   S    
C47   H35   S    
C24   H14   S    
C30   C34   S    
C35   C36   A    
C45   H33   S    
C24   C25   A    
Cu2   N1    S    
C27   N1    A    
C1    O2    A    
C46   C47   A    
C41   H27   S    
O9    C41   S    
C16   C17   A    
C25   C26   A    
C9    H4    S    
C41   H26   S    
C30   H1    S    
C19   C23   S    
C40   H25   S    
C18   H8    S    
C12   O4    A    
C2    H2    S    
C31   C32   S    
C4    H3    S    
C8    C12   S    
C5    C34   S    
C20   C21   A    
C17   C18   A    
C31   C34   S    
C37   H22   S    
Cu1   O3    S    
C1    C16   S    
C31   H17   S    
C22   H13   S    
C29   O7    A    
C23   O6    A    
C2    C35   S    
C7    C34   S    
C22   C24   A    
C25   N2    A    
C3    C4    S    
C13   H7    S    
C32   O10   S    
C43   C48   A    
C14   C19   A    
C5    H19   S    
C4    C5    S    
Cu2   O2    S    
C41   H28   S    
C28   N2    A    
C6    C33   T    
C2    C30   S    
C2    C3    S    
C36   H21   S    
C39   C40   A    
Cu2   O6    S    
C12   O3    A    
C11   C13   A    
C45   C46   A    
C20   C26   A    
C47   C48   A    
C9    C15   A    
C37   C38   A    
C26   N1    A    
C20   H11   S    
C10   C11   A    
C29   O8    A    
C43   C44   A    
C38   H23   S    
C14   C15   A    
Cu1   O5    S    
C44   C45   A    
C21   C22   A    
C48   H36   S    
C27   C28   A    
