data_mof_unit_25351.cif
_audit_creation_date              2013-03-05T15:50:13-0500
_audit_creation_method            fapswitch 2.2
_symmetry_space_group_name_H-M    P1
_symmetry_Int_Tables_number       1
_space_group_crystal_system       triclinic
_cell_length_a                    14.705935
_cell_length_b                    16.034179
_cell_length_c                    9.672188
_cell_angle_alpha                 88.630219
_cell_angle_beta                  91.064127
_cell_angle_gamma                 89.583604
_cell_volume                      2279.56586073

loop_
_atom_site_label
_atom_site_type_symbol
_atom_site_description
_atom_site_fract_x
_atom_site_fract_y
_atom_site_fract_z
_atom_type_partial_charge
O1    O     O_R   0.409820 0.909830 0.618810 -0.573143
O2    O     O_R   0.409820 0.090170 0.618810 -0.544033
O3    O     O_R   0.909820 0.409830 0.618810 -0.573149
O4    O     O_R   0.909820 0.590170 0.618810 -0.544090
O5    O     O_R   0.409840 0.909830 0.381240 -0.554236
O6    O     O_R   0.409840 0.090170 0.381240 -0.552502
O7    O     O_R   0.909840 0.409830 0.381240 -0.554284
O8    O     O_R   0.909840 0.590170 0.381240 -0.552465
C1    C     C_R   0.377691 0.885304 0.500032 0.857586
C2    C     C_R   0.383796 0.121194 0.497889 0.883229
C3    C     C_R   0.877693 0.385303 0.500034 0.857582
C4    C     C_R   0.883816 0.621204 0.497885 0.883266
Cu1   Cu    Cu3+1 0.499990 0.000000 0.640660 1.028670
Cu2   Cu    Cu3+1 0.999990 0.500000 0.640660 1.028677
Cu3   Cu    Cu3+1 0.500010 0.000000 0.359340 1.062176
Cu4   Cu    Cu3+1 0.000010 0.500000 0.359340 1.062358
O9    O     O_R   0.590170 0.090170 0.618760 -0.535518
O10   O     O_R   0.590170 0.909830 0.618760 -0.549511
O11   O     O_R   0.090170 0.590170 0.618760 -0.535505
O12   O     O_R   0.090170 0.409830 0.618760 -0.549493
O13   O     O_R   0.590190 0.090180 0.381190 -0.564952
O14   O     O_R   0.590190 0.909820 0.381190 -0.564213
O15   O     O_R   0.090190 0.590180 0.381190 -0.564642
O16   O     O_R   0.090190 0.409820 0.381190 -0.564290
C5    C     C_R   0.619449 0.119030 0.501261 0.876043
C6    C     C_R   0.611645 0.875615 0.502885 0.850055
C7    C     C_R   0.119441 0.619038 0.501252 0.876149
C8    C     C_R   0.111612 0.375597 0.502881 0.850092
H1    H     H_    0.258025 0.156270 0.298837 0.186446
H2    H     H_    0.358804 0.770128 0.317719 0.166416
H3    H     H_    0.758071 0.656310 0.298826 0.186500
H4    H     H_    0.858889 0.270005 0.317830 0.166693
C9    C     C_R   0.376825 0.252028 0.709235 0.488515
C10   C     C_R   0.221795 0.883959 0.693696 0.450582
C11   C     C_R   0.876966 0.752072 0.709153 0.488354
C12   C     C_R   0.721725 0.384023 0.693570 0.450543
C13   C     C_R   0.354356 0.273096 0.843624 -0.272181
C14   C     C_R   0.172387 0.869570 0.813550 -0.310418
C15   C     C_R   0.854541 0.773146 0.843554 -0.272301
C16   C     C_R   0.672219 0.369692 0.813344 -0.310538
H5    H     H_    0.407127 0.277378 0.922158 0.254614
H6    H     H_    0.156044 0.921478 0.877993 0.191630
H7    H     H_    0.907343 0.777392 0.922060 0.254333
H8    H     H_    0.655828 0.421634 0.877687 0.191633
C17   C     C_R   0.763550 0.788863 0.875061 0.256264
C18   C     C_R   0.642433 0.289817 0.848407 0.297651
C19   C     C_R   0.263352 0.288780 0.875086 0.256200
C20   C     C_R   0.142652 0.789673 0.848584 0.297357
C21   C     C_R   0.699500 0.798092 0.766110 -0.173174
C22   C     C_R   0.656441 0.225394 0.755350 -0.155709
C23   C     C_R   0.199328 0.297992 0.766106 -0.173164
C24   C     C_R   0.156584 0.725297 0.755410 -0.155694
H9    H     H_    0.630030 0.813358 0.790057 0.201567
H10   H     H_    0.636530 0.164756 0.790908 0.215129
H11   H     H_    0.129845 0.313244 0.790003 0.201508
H12   H     H_    0.136719 0.664641 0.790938 0.215080
C25   C     C_R   0.724019 0.780881 0.629614 -0.092706
C26   C     C_R   0.696332 0.240458 0.624216 -0.097978
C27   C     C_R   0.223895 0.280801 0.629627 -0.092769
C28   C     C_R   0.196388 0.740421 0.624225 -0.097897
C29   C     C_R   0.306685 0.239777 0.610974 -0.030675
C30   C     C_R   0.242584 0.816626 0.606332 -0.028083
C31   C     C_R   0.806797 0.739841 0.610929 -0.030598
C32   C     C_R   0.742550 0.316654 0.606298 -0.028015
C33   C     C_R   0.317557 0.190229 0.494344 -0.161642
C34   C     C_R   0.306171 0.823221 0.499861 -0.124473
C35   C     C_R   0.817624 0.690270 0.494322 -0.161556
C36   C     C_R   0.806184 0.323211 0.499879 -0.124614
C37   C     C_R   0.252644 0.195598 0.386980 -0.224051
C38   C     C_R   0.307514 0.765003 0.396106 -0.320328
C39   C     C_R   0.752710 0.695647 0.386966 -0.224008
C40   C     C_R   0.807596 0.264934 0.396226 -0.320137
C41   C     C_R   0.678859 0.750534 0.394277 0.543352
C42   C     C_R   0.743019 0.201606 0.390223 0.506162
C43   C     C_R   0.178783 0.250482 0.394277 0.543325
C44   C     C_R   0.242896 0.701695 0.390049 0.506966
C45   C     C_R   0.669213 0.799853 0.511306 -0.195013
C46   C     C_R   0.688459 0.186346 0.507387 -0.169700
C47   C     C_R   0.169131 0.299802 0.511302 -0.194997
C48   C     C_R   0.188437 0.686370 0.507326 -0.169913
C49   C     C_R   0.663818 0.995206 0.156964 -0.070209
C50   C     C_R   0.163818 0.495193 0.156962 -0.069567
H13   H     H_    0.666766 0.000364 0.264459 0.237176
H14   H     H_    0.166765 0.500374 0.264454 0.237046
C51   C     C_R   0.748320 0.986782 0.100810 0.338219
C52   C     C_R   0.248314 0.486704 0.100815 0.337810
C53   C     C_R   0.754062 0.987580 0.960125 -0.385794
C54   C     C_R   0.254051 0.487457 0.960129 -0.385765
H15   H     H_    0.821435 0.978858 0.920781 0.198505
H16   H     H_    0.321414 0.478678 0.920776 0.198563
C55   C     C_R   0.676558 0.996388 0.871563 0.444966
C56   C     C_R   0.176555 0.496330 0.871567 0.445009
C57   C     C_R   0.584631 0.998452 0.929601 0.119975
C58   C     C_R   0.084629 0.498428 0.929602 0.120098
C59   C     C_R   0.581998 0.998380 0.079022 0.063398
C60   C     C_R   0.081997 0.498366 0.079021 0.063862
N1    N     N_R   0.501200 0.000000 0.147910 -0.209071
N2    N     N_R   0.001200 0.500000 0.147910 -0.209105
C61   C     C_R   0.421155 0.001444 0.072118 0.607687
C62   C     C_R   0.921154 0.501463 0.072123 0.607748
H17   H     H_    0.359722 0.998136 0.863697 0.179416
H18   H     H_    0.859720 0.498182 0.863693 0.179371
C63   C     C_R   0.422217 0.000280 0.923333 -0.145777
C64   C     C_R   0.922216 0.500303 0.923333 -0.145875
N3    N     N_R   0.501270 0.000000 0.852040 -0.199395
N4    N     N_R   0.001270 0.500000 0.852040 -0.199431
O17   O     O_3   0.690230 0.996546 0.730539 -0.528578
C65   C     C_3   0.778488 0.015839 0.683372 -0.315151
H19   H     H_    0.824940 0.961287 0.698116 0.166809
H20   H     H_    0.805704 0.073062 0.731571 0.148041
H21   H     H_    0.774509 0.028101 0.570277 0.204756
O18   O     O_3   0.190233 0.496544 0.730542 -0.528568
C66   C     C_3   0.278496 0.515855 0.683416 -0.315268
H22   H     H_    0.324936 0.461288 0.698068 0.166861
H23   H     H_    0.305724 0.573042 0.731722 0.147968
H24   H     H_    0.274525 0.528191 0.570340 0.204631
O19   O     O_3   0.466500 0.252139 0.670005 -0.571658
C67   C     C_3   0.481266 0.326949 0.593061 -0.299719
H25   H     H_    0.478149 0.381743 0.661282 0.155418
H26   H     H_    0.432741 0.335550 0.504036 0.207642
H27   H     H_    0.549499 0.325173 0.547580 0.192329
O20   O     O_3   0.243321 0.965349 0.658217 -0.583655
C68   C     C_3   0.172150 0.998909 0.573871 -0.355551
H28   H     H_    0.105118 0.994207 0.625115 0.161994
H29   H     H_    0.169546 0.968315 0.471826 0.182584
H30   H     H_    0.184963 0.066095 0.555181 0.181802
O21   O     O_3   0.966632 0.752148 0.669878 -0.571739
C69   C     C_3   0.981422 0.826975 0.592998 -0.299711
H31   H     H_    0.978365 0.881742 0.661278 0.155357
H32   H     H_    0.932870 0.835635 0.504025 0.207672
H33   H     H_    0.049634 0.825179 0.547455 0.192419
O22   O     O_3   0.743290 0.465399 0.658054 -0.583640
C70   C     C_3   0.672209 0.498924 0.573490 -0.355473
H34   H     H_    0.605097 0.494156 0.624483 0.161962
H35   H     H_    0.669796 0.468353 0.471419 0.182598
H36   H     H_    0.684983 0.566125 0.554900 0.181735
N5    N     N_R   0.736516 0.798178 0.015415 0.122214
O23   O     O_R   0.795903 0.791532 0.116551 -0.329799
O24   O     O_R   0.651623 0.812002 0.043017 -0.358665
N6    N     N_R   0.592554 0.275275 0.973532 0.108875
O25   O     O_R   0.578884 0.335499 0.058821 -0.339386
O26   O     O_R   0.558529 0.202273 0.002042 -0.399335
N7    N     N_R   0.236283 0.298108 0.015421 0.122237
O27   O     O_R   0.295650 0.291482 0.116587 -0.329863
O28   O     O_R   0.151387 0.311961 0.042969 -0.358718
N8    N     N_R   0.092933 0.775058 0.973842 0.109288
O29   O     O_R   0.079464 0.835208 0.059349 -0.339224
O30   O     O_R   0.058878 0.702060 0.002283 -0.398780
O31   O     O_3   0.614207 0.753599 0.289161 -0.505043
C71   C     C_3   0.550527 0.689907 0.313910 -0.272797
H37   H     H_    0.514657 0.699322 0.412789 0.123641
H38   H     H_    0.583143 0.627022 0.314011 0.151897
H39   H     H_    0.498778 0.692083 0.229061 0.206667
O32   O     O_3   0.737449 0.148658 0.278184 -0.581123
C72   C     C_3   0.761398 0.187974 0.151397 -0.213623
H40   H     H_    0.835812 0.182475 0.136155 0.149264
H41   H     H_    0.738912 0.254359 0.143254 0.197179
H42   H     H_    0.727570 0.155545 0.065132 0.182140
O33   O     O_3   0.114133 0.253553 0.289158 -0.505134
C73   C     C_3   0.050510 0.189797 0.313802 -0.272298
H43   H     H_    0.014675 0.199090 0.412745 0.123615
H44   H     H_    0.083176 0.126939 0.313711 0.151958
H45   H     H_    0.998720 0.192016 0.229005 0.206947
O34   O     O_3   0.237051 0.648852 0.277852 -0.580666
C74   C     C_3   0.262073 0.687815 0.151254 -0.213300
H46   H     H_    0.336554 0.681704 0.137025 0.149240
H47   H     H_    0.240164 0.754353 0.142572 0.196699
H48   H     H_    0.228417 0.655530 0.064672 0.181887
O35   O     O_3   0.340546 0.996426 0.144669 -0.565016
C75   C     C_3   0.271118 0.047031 0.083561 -0.307362
H49   H     H_    0.241194 0.017986 0.990896 0.161004
H50   H     H_    0.295445 0.111154 0.058533 0.189238
H51   H     H_    0.214891 0.051794 0.157749 0.195639
O36   O     O_3   0.840549 0.496470 0.144691 -0.565044
C76   C     C_3   0.771093 0.547012 0.083515 -0.307553
H52   H     H_    0.741159 0.517876 0.990940 0.161070
H53   H     H_    0.795394 0.611123 0.058330 0.189224
H54   H     H_    0.714884 0.551827 0.157725 0.195644
N9    N     N_R   0.829009 0.978439 0.187741 0.176809
O37   O     O_R   0.822762 0.961436 0.319492 -0.390507
O38   O     O_R   0.909572 0.985786 0.135448 -0.350968
N10   N     N_R   0.329002 0.478349 0.187750 0.176390
O39   O     O_R   0.322744 0.461505 0.319550 -0.390842
O40   O     O_R   0.409571 0.485536 0.135417 -0.350790

loop_
_geom_bond_atom_site_label_1
_geom_bond_atom_site_label_2
_geom_bond_distance
_ccdc_geom_bond_type
C61   C63   1.440020 A    
C9    O19   1.378998 S    
C74   H46   1.110380 S    
C53   C55   1.417164 A    
C72   H41   1.112862 S    
O35   C75   1.411662 S    
O10   C6    1.302628 A    
C62   C64   1.440056 A    
C69   H31   1.112461 S    
C67   H26   1.113444 S    
C64   N4    1.362690 A    
C68   H28   1.113783 S    
C76   H53   1.113708 S    
C33   C37   1.398128 A    
C16   C18   1.392870 A    
C51   N9    1.445048 S    
N5    O24   1.300068 A    
C22   H10   1.068285 S    
Cu1   O10   1.972606 S    
C32   C36   1.406503 A    
O34   C74   1.417236 S    
N6    O26   1.301821 A    
N8    O29   1.301857 A    
C12   O22   1.381915 S    
C49   C59   1.407935 A    
C52   C54   1.364693 A    
C68   H29   1.112792 S    
C35   C39   1.398090 A    
C75   H49   1.105505 S    
N7    O27   1.301113 A    
C19   N7    1.432523 S    
C10   C30   1.421796 A    
C21   C25   1.408121 A    
C65   H19   1.110769 S    
C42   O32   1.394098 S    
C10   O20   1.381924 S    
C28   C30   1.410950 A    
O8    Cu4   1.972507 S    
O2    Cu1   1.959718 S    
C8    C47   1.475420 S    
C67   H25   1.112498 S    
C58   C60   1.446424 A    
C24   C28   1.423497 A    
H2    C38   1.081512 S    
O6    Cu3   1.972507 S    
N10   O39   1.301838 A    
Cu3   O14   1.959934 S    
C58   N4    1.425026 A    
C54   C56   1.417160 A    
C2    C33   1.468543 S    
O22   C70   1.410565 S    
C71   H39   1.108568 S    
C60   N2    1.373410 A    
C70   H36   1.106159 S    
O17   C65   1.417556 S    
Cu2   Cu4   2.720984 S    
O15   C7    1.325784 A    
C13   C19   1.400275 A    
O11   C7    1.298937 A    
H1    C37   1.076200 S    
O8    C4    1.306544 A    
C15   C17   1.400292 A    
C66   H24   1.107161 S    
C57   N3    1.425041 A    
H3    C39   1.076235 S    
H17   C63   1.077153 S    
C72   H42   1.105938 S    
O4    Cu2   1.959718 S    
C74   H47   1.113025 S    
Cu3   N1    2.045392 S    
C56   C58   1.473825 A    
O18   C66   1.417560 S    
C49   H13   1.045091 S    
C25   C31   1.396351 A    
C76   H54   1.108234 S    
N8    O30   1.301816 A    
C51   C53   1.364672 A    
C23   C27   1.408078 A    
C26   C32   1.411022 A    
C57   C59   1.446431 A    
C4    C35   1.468449 S    
C31   C35   1.406005 A    
C27   C29   1.396335 A    
C6    C45   1.475404 S    
C50   C60   1.407933 A    
C30   C34   1.406448 A    
C5    C46   1.488353 S    
C22   C26   1.423465 A    
C73   H45   1.108613 S    
C55   O17   1.382387 S    
C12   C16   1.394969 A    
O1    C1    1.304559 A    
N6    O25   1.301852 A    
H4    C40   1.081551 S    
C7    C48   1.488374 S    
N1    C61   1.374890 A    
C27   C47   1.413066 A    
C39   C41   1.396761 A    
C56   O18   1.382391 S    
C68   H30   1.106168 S    
C19   C23   1.404656 A    
O12   C8    1.302666 A    
C50   C52   1.372455 A    
C9    C13   1.395781 A    
C20   N8    1.441912 S    
C67   H27   1.103529 S    
C73   H44   1.113380 S    
C11   C15   1.395744 A    
O5    C1    1.303689 A    
C25   C45   1.413177 A    
C55   C57   1.473846 A    
O7    C3    1.303700 A    
O33   C73   1.409902 S    
C16   H8    1.080030 S    
C36   C40   1.387075 A    
C17   N5    1.432533 S    
C17   C21   1.404727 A    
C63   N3    1.362667 A    
H18   C64   1.077171 S    
O32   C72   1.416883 S    
O3    Cu2   1.981274 S    
C40   C42   1.396816 A    
O7    Cu4   1.979201 S    
C54   H16   1.077294 S    
C74   H48   1.106034 S    
C50   H14   1.045093 S    
C53   H15   1.077288 S    
C38   C44   1.397012 A    
C70   H34   1.113793 S    
C71   H38   1.113398 S    
C44   O34   1.394445 S    
O4    C4    1.309438 A    
O21   C69   1.416639 S    
O2    C2    1.309431 A    
C69   H33   1.103507 S    
C11   O21   1.379003 S    
C3    C36   1.453370 S    
C18   N6    1.441894 S    
C66   H22   1.110766 S    
Cu2   O12   1.972606 S    
C43   O33   1.378805 S    
N7    O28   1.300070 A    
O13   C5    1.325854 A    
C28   C48   1.444513 A    
C41   O31   1.378794 S    
C10   C14   1.394978 A    
C14   C20   1.392870 A    
Cu2   O11   1.979299 S    
O16   C8    1.318553 A    
C69   H32   1.113411 S    
O6    C2    1.306597 A    
C15   H7    1.079580 S    
C44   C48   1.418364 A    
C59   N1    1.373413 A    
C14   H6    1.080026 S    
C61   O35   1.390579 S    
Cu4   O15   1.981490 S    
N5    O23   1.301115 A    
C18   C22   1.402788 A    
N2    C62   1.374876 A    
C65   H21   1.107163 S    
Cu1   O9    1.979299 S    
O9    C5    1.298857 A    
C73   H43   1.113634 S    
Cu1   Cu3   2.720984 S    
C76   H52   1.105502 S    
C12   C32   1.421804 A    
O19   C67   1.416664 S    
C1    C34   1.453399 S    
C62   O36   1.390601 S    
Cu4   N2    2.045392 S    
C34   C38   1.387128 A    
Cu3   O13   1.981490 S    
C75   H50   1.113713 S    
C9    C29   1.407563 A    
C21   H9    1.079411 S    
C65   H20   1.112774 S    
C37   C43   1.396838 A    
C23   H11   1.079429 S    
C13   H5    1.079506 S    
N10   O40   1.301852 A    
O5    Cu3   1.979201 S    
O3    C3    1.304540 A    
C26   C46   1.444491 A    
O14   C6    1.318572 A    
N9    O37   1.301824 A    
C29   C33   1.406048 A    
C20   C24   1.402805 A    
O1    Cu1   1.981274 S    
Cu4   O16   1.959934 S    
C42   C46   1.418172 A    
Cu2   N4    2.044245 S    
C72   H40   1.110079 S    
C52   N10   1.445067 S    
C70   H35   1.112780 S    
C41   C45   1.404947 A    
C71   H37   1.113636 S    
C11   C31   1.407587 A    
C66   H23   1.112780 S    
O20   C68   1.410561 S    
O31   C71   1.409887 S    
C43   C47   1.404921 A    
C75   H51   1.108231 S    
C49   C51   1.372455 A    
C24   H12   1.068274 S    
Cu1   N3    2.044245 S    
N9    O38   1.301837 A    
O36   C76   1.411649 S    
