data_mof_unit_64946.cif
_audit_creation_date              2012-12-10T16:57:59-0500
_audit_creation_method            fapswitch 2.2
_symmetry_space_group_name_H-M    P1
_symmetry_Int_Tables_number       1
_space_group_crystal_system       triclinic
_cell_length_a                    13.152772
_cell_length_b                    13.130568
_cell_length_c                    15.115911
_cell_angle_alpha                 86.28643
_cell_angle_beta                  100.499856
_cell_angle_gamma                 90.927251
_cell_volume                      2561.44057751

loop_
_atom_site_label
_atom_site_type_symbol
_atom_type_description
_atom_site_fract_x
_atom_site_fract_y
_atom_site_fract_z
_atom_type_partial_charge
C1    C     C_R   0.463913 0.773101 0.465945 0.518550
C2    C     C_2   0.504827 0.057606 0.485122 -0.147838
C3    C     C_2   0.453179 0.883749 0.448742 -0.103035
C4    C     C_R   0.536932 0.227896 0.534277 0.506664
C5    C     C_2   0.512211 0.946837 0.502462 -0.150376
C6    C     C_2   0.112033 0.451960 0.462354 -0.067822
C7    C     C_2   0.060095 0.493404 0.519029 0.079787
C8    C     C_2   0.889792 0.546207 0.543015 -0.099664
C9    C     C_2   0.946823 0.487525 0.502044 -0.147018
C10   C     C_R   0.776914 0.535977 0.526887 0.505218
C11   C     C_R   0.223554 0.463473 0.473203 0.528007
C12   C     C_R   0.384647 0.444200 0.110656 -0.123866
C13   C     C_R   0.514292 0.517298 0.741353 0.506143
C14   C     C_R   0.485349 0.482238 0.259003 0.498628
C15   C     C_R   0.524648 0.520127 0.839071 0.025642
C16   C     C_R   0.477445 0.476540 0.162417 0.037123
C17   C     C_R   0.374214 0.443923 0.017372 -0.131819
C18   C     C_R   0.559767 0.510217 0.121081 -0.119552
C19   C     C_R   0.548624 0.513861 0.027221 0.046754
C20   C     C_R   0.455509 0.479195 0.975097 0.043295
C21   C     C_R   0.444825 0.481258 0.881493 -0.119078
C22   C     C_R   0.615665 0.557245 0.890683 -0.128100
C23   C     C_R   0.628081 0.553124 0.984435 -0.134952
C24   C     C_2   0.550178 0.118280 0.548151 -0.079106
F1    F     F_    0.111284 0.543986 0.589932 -0.172050
H1    H     H_    0.374069 0.453484 0.841521 0.128271
H2    H     H_    0.630568 0.536958 0.161728 0.105650
H3    H     H_    0.566397 0.916560 0.561039 0.162244
H4    H     H_    0.459836 0.089912 0.422247 0.132517
H5    H     H_    0.397698 0.913798 0.391041 0.110228
H6    H     H_    0.590287 0.086835 0.613209 0.095028
H7    H     H_    0.909368 0.434581 0.453703 0.142453
H8    H     H_    0.926408 0.600956 0.589874 0.132498
H9    H     H_    0.071186 0.417291 0.402551 0.060691
H10   H     H_    0.678185 0.586935 0.858625 0.133271
H11   H     H_    0.302239 0.417845 0.978280 0.112459
H12   H     H_    0.699474 0.580710 0.023354 0.110663
H13   H     H_    0.320509 0.418974 0.142647 0.116092
O1    O     O_3   0.500000 0.500000 0.500000 -0.441966
O2    O     O_R   0.563230 0.581310 0.697440 -0.544337
O3    O     O_R   0.421030 0.536630 0.288090 -0.542023
O4    O     O_R   0.459330 0.447650 0.700640 -0.540087
O5    O     O_R   0.556410 0.434400 0.313840 -0.540324
O6    O     O_R   0.733070 0.467190 0.476550 -0.539457
O7    O     O_R   0.261010 0.525210 0.419080 -0.539068
O8    O     O_R   0.532760 0.736590 0.530220 -0.539142
O9    O     O_R   0.473150 0.271000 0.574150 -0.535525
O10   O     O_R   0.407210 0.713280 0.414580 -0.533535
O11   O     O_R   0.586880 0.279120 0.481060 -0.532730
O12   O     O_R   0.723250 0.592730 0.566440 -0.540005
O13   O     O_R   0.282660 0.414860 0.537920 -0.523817
Zn1   Zn    Zn3+2 0.592480 0.421540 0.443840 0.937056
Zn2   Zn    Zn3+2 0.578450 0.600910 0.572270 0.941584
Zn3   Zn    Zn3+2 0.430000 0.409940 0.576840 0.951769
Zn4   Zn    Zn3+2 0.399070 0.567610 0.407050 0.948009

loop_
_geom_bond_atom_site_label_1
_geom_bond_atom_site_label_2
_ccdc_geom_bond_type
C12   C17   A    
C8    C9    D    
O10   Zn4   S    
C19   C23   A    
C21   H1    S    
O1    Zn3   S    
C1    O10   A    
C6    C7    D    
C17   H11   S    
C3    H5    S    
C5    H3    S    
C19   C20   A    
C7    F1    S    
C4    O11   A    
O13   Zn3   S    
O6    Zn1   S    
O1    Zn1   S    
C24   H6    S    
O4    Zn3   S    
C2    C24   D    
C22   H10   S    
C1    O8    A    
O1    Zn2   S    
C14   O3    A    
O9    Zn3   S    
O8    Zn2   S    
C8    C10   S    
C13   O4    A    
O2    Zn2   S    
C8    H8    S    
C13   C15   S    
C12   H13   S    
C4    C24   S    
C14   C16   S    
O5    Zn1   S    
C11   O7    A    
O12   Zn2   S    
C11   O13   A    
C10   O6    A    
C2    C5    S    
C6    H9    S    
C15   C21   A    
C17   C20   A    
C2    H4    S    
C20   C21   A    
O7    Zn4   S    
C16   C18   A    
C18   C19   A    
C6    C11   S    
C7    C9    S    
C22   C23   A    
O3    Zn4   S    
C13   O2    A    
C9    H7    S    
C3    C5    D    
C23   H12   S    
C15   C22   A    
O1    Zn4   S    
C18   H2    S    
C12   C16   A    
O11   Zn1   S    
C14   O5    A    
C1    C3    S    
C4    O9    A    
C10   O12   A    
