data_mof_unit_63079.cif
_audit_creation_date              2013-03-05T15:56:56-0500
_audit_creation_method            fapswitch 2.2
_symmetry_space_group_name_H-M    P1
_symmetry_Int_Tables_number       1
_space_group_crystal_system       triclinic
_cell_length_a                    17.817109
_cell_length_b                    17.885153
_cell_length_c                    19.563248
_cell_angle_alpha                 100.172293
_cell_angle_beta                  76.278538
_cell_angle_gamma                 115.321169
_cell_volume                      5454.2056802

loop_
_atom_site_label
_atom_site_type_symbol
_atom_site_description
_atom_site_fract_x
_atom_site_fract_y
_atom_site_fract_z
_atom_type_partial_charge
Zn1   Zn    Zn3+2 0.578510 0.578520 0.558300 1.063209
Zn2   Zn    Zn3+2 0.559220 0.450000 0.422240 1.051559
Zn3   Zn    Zn3+2 0.447700 0.556900 0.461160 0.993821
Zn4   Zn    Zn3+2 0.414570 0.414580 0.558300 1.025741
O1    O     O_3   0.500000 0.500000 0.500000 -0.513439
O2    O     O_R   0.414390 0.306840 0.521640 -0.615286
O3    O     O_R   0.580770 0.688330 0.559970 -0.639232
O4    O     O_R   0.677090 0.493090 0.426400 -0.626191
O5    O     O_R   0.327750 0.511740 0.491990 -0.649342
O6    O     O_R   0.548260 0.471800 0.330740 -0.628943
O7    O     O_R   0.433390 0.433420 0.655640 -0.651405
O8    O     O_R   0.470210 0.546620 0.357990 -0.644957
O9    O     O_R   0.548140 0.548160 0.655640 -0.606618
O10   O     O_R   0.690590 0.583040 0.521630 -0.598727
O11   O     O_R   0.304570 0.412130 0.559980 -0.633897
O12   O     O_R   0.515630 0.331630 0.426410 -0.636984
O13   O     O_R   0.489210 0.673200 0.491990 -0.649846
C1    C     C_R   0.456218 0.281027 0.467734 0.892924
C2    C     C_R   0.542981 0.719314 0.531992 0.810325
C3    C     C_R   0.722996 0.547110 0.468312 0.916102
C4    C     C_R   0.276759 0.453279 0.531873 0.818033
C5    C     C_R   0.511515 0.510685 0.311771 0.841781
C6    C     C_R   0.489274 0.488617 0.688305 0.878394
C7    C     C_R   0.483016 0.487285 0.764064 -0.180728
C8    C     C_R   0.555624 0.523830 0.795394 0.295894
C9    C     C_R   0.545911 0.531302 0.868640 -0.255423
C10   C     C_R   0.465730 0.498320 0.911267 -0.003717
C11   C     C_R   0.393022 0.459178 0.879940 0.343536
C12   C     C_R   0.402668 0.455009 0.806425 -0.293405
C13   C     C_R   0.473588 0.546951 0.141562 -0.120306
C14   C     C_R   0.473413 0.550620 0.213286 -0.180192
C15   C     C_R   0.557255 0.468684 0.186727 -0.144094
C16   C     C_R   0.557267 0.464894 0.115285 -0.140719
C17   C     C_R   0.514402 0.502664 0.092208 0.185574
C18   C     C_2   0.459717 0.506616 0.988325 -0.102787
C19   C     C_2   0.515911 0.495766 0.016069 -0.212136
C20   C     C_R   0.514561 0.510782 0.236361 -0.014538
H1    H     H_    0.589971 0.437765 0.203013 0.179463
H2    H     H_    0.407106 0.518084 0.021796 0.181783
H3    H     H_    0.589979 0.431365 0.077973 0.149459
C21   C     C_R   0.561593 0.808588 0.544641 -0.027313
C22   C     C_R   0.437468 0.192895 0.453727 -0.118151
C23   C     C_R   0.635809 0.945869 0.598338 -0.178226
C24   C     C_R   0.619863 0.861736 0.587154 -0.154990
C25   C     C_R   0.520206 0.840686 0.513077 -0.240881
C26   C     C_R   0.537183 0.925887 0.521540 0.091271
C27   C     C_R   0.594709 0.978179 0.566299 0.159322
C28   C     C_R   0.497908 0.960187 0.487653 0.070179
C29   C     C_R   0.512236 0.045709 0.503332 0.083619
C30   C     C_R   0.569796 0.095325 0.548763 -0.198642
C31   C     C_R   0.610629 0.062158 0.578917 -0.206306
C32   C     C_R   0.446250 0.912188 0.437469 -0.208277
C33   C     C_R   0.407426 0.945622 0.405613 -0.172628
C34   C     C_R   0.418085 0.027937 0.422312 0.097194
C35   C     C_R   0.469768 0.078943 0.471814 0.111029
C36   C     C_R   0.377717 0.059611 0.388978 -0.224928
C37   C     C_R   0.387076 0.142223 0.403792 0.292927
C38   C     C_R   0.477004 0.161401 0.487586 -0.296409
H4    H     H_    0.654751 0.102689 0.612903 0.163489
H5    H     H_    0.680363 0.985800 0.632142 0.154495
H6    H     H_    0.652577 0.838265 0.612173 0.182226
H7    H     H_    0.586538 0.160881 0.561194 0.162369
H8    H     H_    0.435901 0.848676 0.419692 0.148187
H9    H     H_    0.338513 0.019563 0.351255 0.199194
C39   C     C_R   0.186441 0.437847 0.548467 -0.031702
C40   C     C_R   0.813849 0.569815 0.455368 -0.174527
C41   C     C_R   0.045752 0.373324 0.615981 -0.147824
C42   C     C_R   0.129362 0.381907 0.597414 -0.157312
C43   C     C_R   0.158268 0.483500 0.517224 -0.219462
C44   C     C_R   0.075058 0.478667 0.537337 0.087409
C45   C     C_R   0.018417 0.421652 0.586888 0.099029
C46   C     C_R   0.046629 0.528455 0.509508 0.044207
C47   C     C_R   0.959882 0.515367 0.527333 -0.013814
C48   C     C_R   0.907541 0.464972 0.583518 0.255968
C49   C     C_R   0.936231 0.416251 0.609853 -0.271971
C50   C     C_R   0.102538 0.592802 0.466233 -0.194357
C51   C     C_R   0.073832 0.639195 0.437806 -0.120813
C52   C     C_R   0.987598 0.620645 0.447692 -0.008588
C53   C     C_R   0.929552 0.554759 0.489234 0.094875
C54   C     C_R   0.958193 0.664774 0.414632 0.218869
C55   C     C_R   0.870730 0.640210 0.419859 0.208875
C56   C     C_R   0.843203 0.526803 0.487693 -0.223969
H10   H     H_    0.895372 0.377236 0.651845 0.193628
H11   H     H_    0.002786 0.330140 0.654435 0.154540
H12   H     H_    0.149533 0.345725 0.622097 0.177540
H13   H     H_    0.202759 0.522316 0.477003 0.160872
H14   H     H_    0.169887 0.611282 0.454993 0.142634
N1    N     N_R   0.639303 0.550464 0.753759 0.235856
O14   O     O_R   0.701280 0.613981 0.776726 -0.332647
O15   O     O_R   0.656230 0.503885 0.698601 -0.309383
H15   H     H_    0.513562 0.203618 0.525670 0.144918
N2    N     N_R   0.345520 0.173055 0.367780 0.210810
O16   O     O_R   0.323935 0.234000 0.396673 -0.395118
O17   O     O_R   0.322947 0.135865 0.307937 -0.341792
H16   H     H_    0.368723 0.906468 0.367240 0.164343
H17   H     H_    0.473583 0.797208 0.483202 0.162486
H18   H     H_    0.440804 0.584208 0.250566 0.166975
H19   H     H_    0.797190 0.470800 0.511171 0.176978
N3    N     N_R   0.840025 0.687694 0.390431 0.226798
O18   O     O_R   0.779874 0.650673 0.353712 -0.385831
O19   O     O_R   0.871491 0.768293 0.400944 -0.293521
H20   H     H_    0.120176 0.687673 0.405334 0.189829
N4    N     N_R   0.831643 0.472718 0.622412 0.208063
O20   O     O_R   0.831323 0.546134 0.641163 -0.290700
O21   O     O_R   0.768065 0.408434 0.649041 -0.368641
N5    N     N_R   0.016664 0.733625 0.374898 0.226052
O22   O     O_R   0.012385 0.734093 0.309509 -0.302391
O23   O     O_R   0.069297 0.799013 0.405780 -0.349014
H21   H     H_    0.563340 0.476916 0.981162 0.166775
N6    N     N_R   0.309728 0.422353 0.921286 0.210009
O24   O     O_R   0.297070 0.382380 0.975277 -0.355019
O25   O     O_R   0.244633 0.419076 0.899641 -0.361313
H22   H     H_    0.442534 0.579439 0.125296 0.138095
H23   H     H_    0.347059 0.426679 0.782087 0.212011
H24   H     H_    0.601821 0.562171 0.892461 0.197831

loop_
_geom_bond_atom_site_label_1
_geom_bond_atom_site_label_2
_geom_bond_distance
_ccdc_geom_bond_type
C12   H23   1.083635 S    
C37   N2    1.443097 S    
O8    C5    1.286813 A    
C33   H16   1.084577 S    
C47   C48   1.426494 A    
C34   C35   1.417913 A    
C18   C19   1.340124 D    
C46   C50   1.413111 A    
C49   H10   1.084419 S    
C22   C38   1.394561 A    
C51   C52   1.397792 A    
O6    C5    1.282921 A    
C9    C10   1.404289 A    
O4    C3    1.279499 A    
Zn1   O1    1.934031 S    
C3    C40   1.459094 S    
C11   C12   1.399772 A    
C1    C22   1.453182 S    
C13   C14   1.392382 A    
C54   C55   1.409444 A    
C52   C54   1.417893 A    
N5    O22   1.301117 A    
C54   N5    1.436154 S    
C36   C37   1.398518 A    
O9    C6    1.268659 A    
C7    C12   1.403099 A    
Zn3   O8    1.953545 S    
C9    H24   1.083160 S    
C6    C7    1.463346 S    
C36   H9    1.084184 S    
C44   C45   1.415198 A    
C15   H1    1.083123 S    
Zn2   O12   1.927773 S    
C38   H15   1.077163 S    
C17   C19   1.467506 S    
C41   H11   1.083868 S    
C42   H12   1.082933 S    
C56   H19   1.080632 S    
C51   H20   1.081858 S    
C22   C37   1.410363 A    
C16   C17   1.398590 A    
C26   C28   1.427033 A    
O2    C1    1.276767 A    
C34   C36   1.401772 A    
C16   H3    1.083798 S    
C48   C49   1.396625 A    
C13   C17   1.406373 A    
C41   C42   1.393585 A    
O10   C3    1.276408 A    
C7    C8    1.409907 A    
Zn4   O2    1.932654 S    
C52   C53   1.419757 A    
C46   C47   1.424390 A    
C27   C31   1.391100 A    
C55   N3    1.439259 S    
C10   C18   1.471066 S    
C8    C9    1.391251 A    
C29   C35   1.428805 A    
C5    C20   1.463619 S    
C8    N1    1.437578 S    
N6    O24   1.301309 A    
C18   H2    1.084127 S    
C23   C24   1.392960 A    
Zn3   O5    1.915107 S    
C40   C56   1.392156 A    
N3    O18   1.301260 A    
O11   C4    1.293695 A    
C39   C42   1.399372 A    
N2    O17   1.301632 A    
C30   C31   1.387632 A    
C47   C53   1.430438 A    
N4    O21   1.301535 A    
C15   C20   1.403438 A    
C50   C51   1.385740 A    
Zn4   O7    1.957529 S    
C50   H14   1.076460 S    
C23   H5    1.083893 S    
C28   C29   1.426977 A    
N3    O19   1.301265 A    
N1    O15   1.300908 A    
O3    C2    1.288834 A    
C30   H7    1.075800 S    
C21   C24   1.399790 A    
C25   C26   1.407604 A    
Zn2   O1    1.947381 S    
Zn1   O9    1.959341 S    
Zn2   O6    1.967702 S    
C19   H21   1.087525 S    
C32   C33   1.383606 A    
C26   C27   1.417215 A    
C4    C39   1.474791 S    
Zn1   O3    1.941694 S    
Zn2   O4    1.919764 S    
Zn4   O1    1.937640 S    
Zn3   O1    1.975220 S    
C32   H8    1.075639 S    
C53   C56   1.405893 A    
C33   C34   1.389465 A    
C24   H6    1.082917 S    
C11   N6    1.439823 S    
C15   C16   1.387221 A    
Zn4   O11   1.934069 S    
C40   C55   1.406528 A    
C45   C49   1.391995 A    
O5    C4    1.291023 A    
N5    O23   1.301228 A    
C39   C43   1.401661 A    
O7    C6    1.269866 A    
N2    O16   1.301294 A    
O13   C2    1.289310 A    
Zn3   O13   1.920918 S    
C41   C45   1.404825 A    
C14   H18   1.083114 S    
C43   C44   1.409240 A    
N6    O25   1.301520 A    
C14   C20   1.402275 A    
C28   C32   1.415303 A    
C31   H4    1.084346 S    
N1    O14   1.301467 A    
O12   C1    1.275215 A    
C29   C30   1.415812 A    
C35   C38   1.407939 A    
N4    O20   1.301533 A    
C21   C25   1.399265 A    
C44   C46   1.426108 A    
Zn1   O10   1.926585 S    
C25   H17   1.074045 S    
C23   C27   1.403802 A    
C43   H13   1.075075 S    
C2    C21   1.472077 S    
C48   N4    1.435864 S    
C10   C11   1.411800 A    
C13   H22   1.081146 S    
