data_mof_unit_43616.cif
_audit_creation_date              2012-12-10T20:26:25-0500
_audit_creation_method            fapswitch 2.2
_symmetry_space_group_name_H-M    P1
_symmetry_Int_Tables_number       1
_space_group_crystal_system       triclinic
_cell_length_a                    10.62878
_cell_length_b                    10.710794
_cell_length_c                    9.98298
_cell_angle_alpha                 94.005379
_cell_angle_beta                  90.140193
_cell_angle_gamma                 92.233926
_cell_volume                      1132.83640583

loop_
_atom_site_label
_atom_site_type_symbol
_atom_type_description
_atom_site_fract_x
_atom_site_fract_y
_atom_site_fract_z
_atom_type_partial_charge
C1    C     C_R   0.499334 0.258176 0.495978 0.900329
C2    C     C_R   0.481709 0.121910 0.491645 -0.148975
C3    C     C_R   0.442932 0.044476 0.375257 0.048479
C4    C     C_R   0.410843 0.917221 0.389107 -0.036380
C5    C     C_R   0.444235 0.865169 0.509193 -0.238554
C6    C     C_R   0.454672 0.943693 0.625471 0.126639
C7    C     C_3   0.530934 0.941177 0.751105 -0.048682
C8    C     C_3   0.567261 0.078261 0.732264 -0.529251
C9    C     C_R   0.395324 0.459889 0.066719 0.111107
C10   C     C_R   0.596485 0.556979 0.073860 0.249888
C11   C     C_R   0.597322 0.552156 0.930763 -0.159599
C12   C     C_R   0.263912 0.510807 0.499595 0.927885
C13   C     C_R   0.392991 0.464902 0.925292 0.079447
C14   C     C_3   0.321144 0.342308 0.903137 -0.069502
C15   C     C_3   0.333448 0.331444 0.054366 -0.152562
C16   C     C_R   0.485084 0.738005 0.503809 0.871846
C17   C     C_R   0.737087 0.496971 0.500717 0.884455
C18   C     C_2   0.933552 0.566810 0.589875 -0.249334
C19   C     C_2   0.868876 0.482060 0.507013 -0.158387
C20   C     C_2   0.068857 0.569292 0.602214 -0.150017
C21   C     C_2   0.134626 0.538850 0.493368 -0.207071
C22   C     C_R   0.477798 0.068755 0.615378 0.067937
H1    H     H_    0.885423 0.641026 0.646629 0.153756
H2    H     H_    0.666631 0.092100 0.699990 0.195394
H3    H     H_    0.675755 0.593851 0.878522 0.153831
H4    H     H_    0.377706 0.273871 0.843379 0.171048
H5    H     H_    0.403688 0.261313 0.068441 0.145350
H6    H     H_    0.113036 0.596866 0.698385 0.144040
H7    H     H_    0.090107 0.529717 0.394606 0.141884
H8    H     H_    0.611418 0.877857 0.742380 0.163380
H9    H     H_    0.539230 0.145319 0.815453 0.193994
N1    N     N_R   0.499170 0.499140 0.142800 -0.121145
N2    N     N_R   0.499170 0.499180 0.857150 -0.138521
O1    O     O_R   0.500020 0.316790 0.614690 -0.610534
O2    O     O_R   0.500000 0.316760 0.385350 -0.613654
O3    O     O_R   0.319080 0.500020 0.614640 -0.629719
O4    O     O_R   0.319070 0.499980 0.385300 -0.636832
O5    O     O_R   0.500000 0.683240 0.614650 -0.626441
O6    O     O_R   0.499980 0.683210 0.385310 -0.614537
O7    O     O_R   0.680930 0.500020 0.614700 -0.623256
O8    O     O_R   0.680920 0.499980 0.385360 -0.592728
Zn1   Zn    Zn3+2 0.500010 0.500020 0.653130 0.925290
Zn2   Zn    Zn3+2 0.499990 0.499980 0.346870 0.961517
C23   C     C_3   0.702551 0.634004 0.143159 -0.337971
C24   C     C_3   0.826313 0.565933 0.133639 -0.883085
H10   H     H_    0.813313 0.469420 0.166075 0.312681
H11   H     H_    0.898566 0.617562 0.198836 0.250238
H12   H     H_    0.861087 0.560546 0.028648 0.237599
H13   H     H_    0.715318 0.723808 0.094280 0.173080
H14   H     H_    0.680921 0.662958 0.247822 0.259121
C25   C     C_3   0.187097 0.351002 0.845317 -0.323435
C26   C     C_3   0.143990 0.227982 0.769139 -0.796309
H15   H     H_    0.157827 0.147120 0.830466 0.244868
H16   H     H_    0.042585 0.230753 0.743319 0.274127
H17   H     H_    0.198778 0.213925 0.674989 0.271539
H18   H     H_    0.116309 0.379254 0.921106 0.202444
H19   H     H_    0.186036 0.424224 0.774741 0.235095
C27   C     C_3   0.214978 0.319042 0.143283 -0.303536
C28   C     C_3   0.140402 0.194696 0.115220 -0.876322
H20   H     H_    0.063029 0.204969 0.042702 0.267838
H21   H     H_    0.201935 0.119410 0.075764 0.249756
H22   H     H_    0.096904 0.165162 0.209525 0.257191
H23   H     H_    0.246559 0.321461 0.248890 0.230388
H24   H     H_    0.152824 0.399540 0.137531 0.198315
C29   C     C_2   0.915698 0.360766 0.447177 0.873662
O9    O     O_2   0.002460 0.309942 0.499336 -0.649444
O10   O     O_R   0.853815 0.300491 0.335568 -0.837473
H25   H     H_    0.890246 0.216868 0.306865 0.335794
C30   C     C_3   0.443661 0.091853 0.237547 -0.389763
C31   C     C_3   0.578270 0.106465 0.184744 -0.801256
H26   H     H_    0.637013 0.172041 0.251567 0.299381
H27   H     H_    0.622618 0.014030 0.177759 0.252866
H28   H     H_    0.577580 0.141905 0.082990 0.220314
H29   H     H_    0.388335 0.032073 0.162445 0.203357
H30   H     H_    0.392503 0.177619 0.245487 0.225913
C32   C     C_2   0.348289 0.836801 0.279154 0.933835
O11   O     O_2   0.405740 0.808475 0.176295 -0.667061
O12   O     O_R   0.226824 0.786807 0.298241 -0.821614
H31   H     H_    0.195534 0.730100 0.218530 0.326174
C33   C     C_3   0.446631 0.925523 0.875299 -0.368550
C34   C     C_3   0.361334 0.807095 0.862208 -0.753879
H32   H     H_    0.301527 0.804329 0.770672 0.241381
H33   H     H_    0.419085 0.723618 0.858784 0.278449
H34   H     H_    0.297448 0.804734 0.949696 0.251053
H35   H     H_    0.508322 0.921963 0.964591 0.238075
H36   H     H_    0.385213 0.006862 0.892897 0.203347

loop_
_geom_bond_atom_site_label_1
_geom_bond_atom_site_label_2
_ccdc_geom_bond_type
C23   H13   S    
O3    Zn1   S    
O1    Zn1   S    
C34   H32   S    
C7    C8    S    
C24   H10   S    
C23   C24   S    
N2    Zn1   S    
C3    C30   S    
C32   O12   S    
O5    Zn1   S    
C5    C6    A    
C33   C34   S    
C11   H3    S    
C6    C22   A    
C1    C2    S    
C12   O4    A    
C9    C13   A    
C5    C16   S    
C33   H36   S    
C9    N1    A    
C17   C19   S    
C29   O10   S    
C2    C22   A    
C8    C22   S    
C19   C29   S    
C31   H26   S    
C25   H19   S    
C12   O3    A    
O2    Zn2   S    
C26   H17   S    
O7    Zn1   S    
C28   H20   S    
C7    H8    S    
C13   C14   S    
O8    Zn2   S    
C34   H33   S    
C26   H16   S    
C1    O1    A    
C24   H11   S    
C27   H24   S    
C28   H21   S    
C10   C23   S    
C18   H1    S    
C11   N2    A    
C32   O11   D    
O12   H31   S    
C18   C19   D    
O6    Zn2   S    
C20   H6    S    
C27   C28   S    
C21   H7    S    
C12   C21   S    
O10   H25   S    
C17   O7    A    
O4    Zn2   S    
C13   N2    A    
C33   H35   S    
C15   H5    S    
C14   C25   S    
C31   H28   S    
C30   H29   S    
C14   H4    S    
C15   C27   S    
C3    C4    A    
C34   H34   S    
C26   H15   S    
C1    O2    A    
C24   H12   S    
C23   H14   S    
C27   H23   S    
C28   H22   S    
C8    H9    S    
C25   H18   S    
C4    C5    A    
C6    C7    S    
C2    C3    A    
C9    C15   S    
C25   C26   S    
C8    H2    S    
N1    Zn2   S    
C30   H30   S    
C18   C20   S    
C30   C31   S    
C17   O8    A    
C4    C32   S    
C10   C11   A    
C16   O6    A    
C10   N1    A    
C20   C21   D    
C29   O9    D    
C14   C15   S    
C31   H27   S    
C16   O5    A    
C7    C33   S    
