data_mof_unit_55645.cif
_audit_creation_date              2012-12-10T17:17:55-0500
_audit_creation_method            fapswitch 2.2
_symmetry_space_group_name_H-M    P1
_symmetry_Int_Tables_number       1
_space_group_crystal_system       triclinic
_cell_length_a                    14.956182
_cell_length_b                    15.932713
_cell_length_c                    9.628257
_cell_angle_alpha                 90.961018
_cell_angle_beta                  90.564038
_cell_angle_gamma                 90.418228
_cell_volume                      2293.84414863

loop_
_atom_site_label
_atom_site_type_symbol
_atom_type_description
_atom_site_fract_x
_atom_site_fract_y
_atom_site_fract_z
_atom_type_partial_charge
C1    C     C_R   0.382505 0.879829 0.498524 0.856071
C2    C     C_R   0.678243 0.252015 0.391689 -0.130770
C3    C     C_R   0.205553 0.268514 0.371539 -0.098261
C4    C     C_R   0.178240 0.752017 0.391686 -0.130793
C5    C     C_R   0.670229 0.800569 0.497517 -0.242529
C6    C     C_R   0.668709 0.201074 0.509896 -0.220147
C7    C     C_R   0.170229 0.300569 0.497517 -0.242528
C8    C     C_R   0.168709 0.701074 0.509894 -0.220129
C9    C     C_R   0.664101 0.007902 0.145886 -0.095999
C10   C     C_R   0.164101 0.507901 0.145886 -0.095951
C11   C     C_R   0.744351 0.012429 0.074879 -0.190180
C12   C     C_R   0.382962 0.120621 0.500692 0.897766
C13   C     C_R   0.244352 0.512427 0.074879 -0.190166
C14   C     C_R   0.744338 0.008026 0.931651 -0.232293
C15   C     C_R   0.244338 0.508024 0.931651 -0.232300
C16   C     C_R   0.663951 0.003902 0.858446 -0.148951
C17   C     C_R   0.163951 0.503901 0.858446 -0.148951
C18   C     C_R   0.580588 0.003785 0.926354 0.162371
C19   C     C_R   0.080588 0.503784 0.926354 0.162375
C20   C     C_R   0.580563 0.004414 0.075711 0.218481
C21   C     C_R   0.080563 0.504413 0.075711 0.218496
C22   C     C_R   0.423832 0.992943 0.074547 -0.028040
C23   C     C_R   0.882508 0.379827 0.498524 0.856035
C24   C     C_R   0.923832 0.492944 0.074547 -0.028031
C25   C     C_R   0.612165 0.124303 0.502385 0.821274
C26   C     C_R   0.612530 0.876067 0.499239 0.791315
C27   C     C_R   0.112165 0.624302 0.502385 0.821249
C28   C     C_R   0.112530 0.376067 0.499239 0.791318
C29   C     C_R   0.422827 0.991417 0.927349 0.021517
C30   C     C_R   0.922826 0.491418 0.927349 0.021519
C31   C     C_R   0.319581 0.207957 0.759445 -0.071391
C32   C     C_R   0.369902 0.754967 0.717122 -0.118389
C33   C     C_R   0.819582 0.707958 0.759445 -0.071385
C34   C     C_R   0.882961 0.620621 0.500692 0.897738
C35   C     C_R   0.869898 0.254971 0.717139 -0.118398
C36   C     C_R   0.267726 0.210974 0.878247 -0.096117
C37   C     C_R   0.349059 0.724311 0.847271 -0.098451
C38   C     C_R   0.767727 0.710975 0.878247 -0.096117
C39   C     C_R   0.849050 0.224318 0.847288 -0.098432
C40   C     C_R   0.678461 0.733584 0.868162 -0.171757
C41   C     C_R   0.761735 0.200273 0.874261 -0.077388
C42   C     C_R   0.178460 0.233583 0.868161 -0.171756
C43   C     C_R   0.261744 0.700268 0.874252 -0.077426
C44   C     C_R   0.645728 0.765613 0.744549 -0.121700
C45   C     C_R   0.272993 0.208030 0.374301 0.355850
C46   C     C_R   0.698833 0.196037 0.766327 -0.140570
C47   C     C_R   0.145727 0.265613 0.744548 -0.121695
C48   C     C_R   0.198839 0.696035 0.766324 -0.140555
C49   C     C_R   0.698093 0.763851 0.623353 0.077647
C50   C     C_R   0.722446 0.218492 0.629596 0.059569
C51   C     C_R   0.198093 0.263850 0.623353 0.077651
C52   C     C_R   0.222447 0.718493 0.629592 0.059573
C53   C     C_R   0.279909 0.220589 0.627434 0.021760
C54   C     C_R   0.303496 0.761640 0.612663 0.016046
C55   C     C_R   0.779910 0.720589 0.627434 0.021764
C56   C     C_R   0.249020 0.811276 0.388261 0.349311
C57   C     C_R   0.803497 0.261639 0.612671 0.016069
C58   C     C_R   0.314887 0.187554 0.501324 -0.164646
C59   C     C_R   0.314096 0.812977 0.495803 -0.163083
C60   C     C_R   0.814887 0.687554 0.501324 -0.164645
C61   C     C_R   0.814102 0.312971 0.495805 -0.163115
C62   C     C_2   0.334542 0.972190 0.863215 0.866594
C63   C     C_2   0.834542 0.472192 0.863215 0.866586
C64   C     C_2   0.676067 0.797047 0.233655 0.843095
C65   C     C_2   0.611178 0.247562 0.276609 0.857069
C66   C     C_2   0.176066 0.297046 0.233655 0.843090
C67   C     C_R   0.772993 0.708030 0.374301 0.355841
C68   C     C_2   0.111179 0.747545 0.276599 0.857045
C69   C     C_R   0.749028 0.311266 0.388260 0.349249
C70   C     C_R   0.705553 0.768514 0.371539 -0.098258
Cu1   Cu    Cu3+1 0.499990 0.000000 0.640660 0.945651
Cu2   Cu    Cu3+1 0.999990 0.500000 0.640660 0.945647
Cu3   Cu    Cu3+1 0.500010 0.000000 0.359340 1.022204
Cu4   Cu    Cu3+1 0.000010 0.500000 0.359340 1.022195
H1    H     H_    0.807097 0.008639 0.876524 0.169650
H2    H     H_    0.399452 0.723119 0.928691 0.153120
H3    H     H_    0.796747 0.694237 0.976961 0.176559
H4    H     H_    0.899440 0.223128 0.928713 0.153130
H5    H     H_    0.635676 0.730565 0.957534 0.175631
H6    H     H_    0.743458 0.182580 0.978007 0.202555
H7    H     H_    0.135674 0.230564 0.957532 0.175631
H8    H     H_    0.243473 0.682574 0.977998 0.202572
H9    H     H_    0.578089 0.787390 0.744083 0.147326
H10   H     H_    0.631349 0.179243 0.793729 0.178581
H11   H     H_    0.078088 0.287389 0.744081 0.147323
H12   H     H_    0.307097 0.508636 0.876524 0.169649
H13   H     H_    0.131355 0.679240 0.793731 0.178587
H14   H     H_    0.361918 0.987193 0.131128 0.197631
H15   H     H_    0.861917 0.487194 0.131129 0.197622
H16   H     H_    0.671744 0.002875 0.255226 0.194079
H17   H     H_    0.171744 0.502874 0.255227 0.194069
H18   H     H_    0.807181 0.015035 0.131694 0.174472
H19   H     H_    0.307181 0.515032 0.131694 0.174463
H20   H     H_    0.244475 0.156468 0.195366 0.307314
H21   H     H_    0.194892 0.881799 0.246663 0.340110
H22   H     H_    0.744474 0.656468 0.195367 0.307308
H23   H     H_    0.670950 0.001351 0.748810 0.213703
H24   H     H_    0.694896 0.381871 0.246824 0.340091
H25   H     H_    0.223630 0.899239 0.865940 0.340786
H26   H     H_    0.723629 0.399242 0.865939 0.340794
H27   H     H_    0.712336 0.848873 0.053954 0.336677
H28   H     H_    0.480877 0.242849 0.220477 0.360079
H29   H     H_    0.212335 0.348872 0.053953 0.336675
H30   H     H_    0.980876 0.742825 0.220461 0.360095
H31   H     H_    0.170950 0.501351 0.748810 0.213703
H32   H     H_    0.389633 0.194511 0.773482 0.155110
H33   H     H_    0.437446 0.774793 0.699394 0.126485
H34   H     H_    0.889634 0.694511 0.773481 0.155111
H35   H     H_    0.937442 0.274798 0.699417 0.126494
H36   H     H_    0.296745 0.194236 0.976960 0.176559
N1    N     N_R   0.501200 0.000000 0.147910 -0.208732
N2    N     N_R   0.001200 0.500000 0.147910 -0.208737
N3    N     N_R   0.501270 0.000000 0.852040 -0.246456
N4    N     N_R   0.001270 0.500000 0.852040 -0.246457
O1    O     O_R   0.409820 0.909830 0.618810 -0.591678
O2    O     O_R   0.590170 0.909830 0.618760 -0.621154
O3    O     O_R   0.090170 0.590170 0.618760 -0.628370
O4    O     O_R   0.090170 0.409830 0.618760 -0.621154
O5    O     O_R   0.590190 0.090180 0.381190 -0.593365
O6    O     O_R   0.590190 0.909820 0.381190 -0.575493
O7    O     O_R   0.090190 0.590180 0.381190 -0.593361
O8    O     O_R   0.090190 0.409820 0.381190 -0.575493
O9    O     O_3   0.298774 0.168599 0.252293 -0.712042
O10   O     O_3   0.255256 0.869544 0.283685 -0.691866
O11   O     O_3   0.798773 0.668599 0.252293 -0.712055
O12   O     O_R   0.409820 0.090170 0.618810 -0.576242
O13   O     O_3   0.755261 0.369522 0.283669 -0.691842
O14   O     O_2   0.303162 0.015911 0.772714 -0.574929
O15   O     O_R   0.283440 0.906232 0.915454 -0.752617
O16   O     O_2   0.803162 0.515915 0.772717 -0.574942
O17   O     O_R   0.783440 0.406234 0.915452 -0.752569
O18   O     O_2   0.597865 0.789261 0.196905 -0.605372
O19   O     O_R   0.739779 0.829506 0.144016 -0.760129
O20   O     O_2   0.635533 0.245379 0.155827 -0.611135
O21   O     O_R   0.519954 0.246355 0.307066 -0.749733
O22   O     O_2   0.097865 0.289260 0.196906 -0.605363
O23   O     O_R   0.909820 0.409830 0.618810 -0.591677
O24   O     O_R   0.239778 0.329504 0.144014 -0.760139
O25   O     O_2   0.135538 0.745314 0.155825 -0.611252
O26   O     O_R   0.019954 0.746362 0.307044 -0.749712
O27   O     O_R   0.909820 0.590170 0.618810 -0.576235
O28   O     O_R   0.409840 0.909830 0.381240 -0.515639
O29   O     O_R   0.409840 0.090170 0.381240 -0.507757
O30   O     O_R   0.909840 0.409830 0.381240 -0.515639
O31   O     O_R   0.909840 0.590170 0.381240 -0.507776
O32   O     O_R   0.590170 0.090170 0.618760 -0.628373

loop_
_geom_bond_atom_site_label_1
_geom_bond_atom_site_label_2
_ccdc_geom_bond_type
C44   C49   A    
C33   C55   A    
C38   C40   A    
C34   O27   A    
Cu3   O5    S    
C22   C29   A    
Cu4   O31   S    
C36   C42   A    
C24   N2    A    
C4    C8    A    
C44   H9    S    
C24   H15   S    
C41   H6    S    
C27   O7    A    
H26   O17   S    
C39   C41   A    
C45   O9    S    
C42   H7    S    
C47   H11   S    
C19   C21   A    
C26   O6    A    
C3    C7    A    
C1    C59   S    
Cu4   N2    S    
C34   O31   A    
C28   O8    A    
C16   H23   S    
C6    C25   S    
C12   O12   A    
Cu2   N4    S    
Cu1   N3    S    
C63   O16   D    
H28   O21   S    
C29   N3    A    
C1    O28   A    
C17   C19   A    
C29   C62   S    
C11   H18   S    
C64   O18   D    
C60   C67   A    
C32   H33   S    
Cu2   O3    S    
Cu1   O2    S    
C41   C46   A    
H21   O10   S    
C25   O32   A    
C64   C70   S    
C2    C69   A    
C43   C48   A    
C8    C52   A    
C40   C44   A    
C65   O20   D    
C35   H35   S    
Cu3   O28   S    
C12   C58   S    
H20   O9    S    
C2    C65   S    
Cu3   O6    S    
C55   C60   A    
C4    C56   A    
C34   C60   S    
C62   O15   S    
C5    C49   A    
C2    C6    A    
C33   H34   S    
C25   O5    A    
C18   N3    A    
C32   C54   A    
C52   C54   A    
Cu3   N1    S    
C24   C30   A    
C54   C59   A    
C27   O3    A    
C10   C21   A    
Cu2   O27   S    
C45   C58   A    
C40   H5    S    
H25   O15   S    
C39   H4    S    
Cu2   Cu4   S    
H29   O24   S    
Cu1   Cu3   S    
C47   C51   A    
C19   N4    A    
C49   C55   A    
C3    C45   A    
C31   C53   A    
C7    C28   S    
H30   O26   S    
C13   H19   S    
C51   C53   A    
C37   C43   A    
C35   C39   A    
C5    C70   A    
C17   H31   S    
C20   N1    A    
C9    C20   A    
C66   O24   S    
C23   C61   S    
Cu1   O32   S    
C48   H13   S    
Cu1   O1    S    
Cu1   O12   S    
C32   C37   A    
C6    C50   A    
C9    C11   A    
C65   O21   S    
C63   O17   S    
C15   H12   S    
C66   O22   D    
Cu2   O23   S    
Cu4   O8    S    
C37   H2    S    
C10   H17   S    
C22   H14   S    
C13   C15   A    
C36   H36   S    
C31   H32   S    
C14   C16   A    
C23   O30   A    
C68   O26   S    
C3    C66   S    
Cu3   O29   S    
C56   O10   S    
C21   N2    A    
C4    C68   S    
C30   N4    A    
C61   C69   A    
C15   C17   A    
Cu4   O30   S    
C64   O19   S    
H24   O13   S    
C50   C57   A    
C23   O23   A    
C10   C13   A    
C9    H16   S    
C53   C58   A    
C56   C59   A    
C57   C61   A    
C38   H3    S    
H27   O19   S    
C46   C50   A    
C33   C38   A    
C12   O29   A    
C35   C57   A    
C67   C70   A    
C14   H1    S    
C67   O11   S    
C7    C51   A    
C28   O4    A    
C62   O14   D    
C11   C14   A    
H22   O11   S    
C46   H10   S    
C18   C20   A    
C42   C47   A    
C26   O2    A    
C5    C26   S    
C48   C52   A    
Cu4   O7    S    
C69   O13   S    
C16   C18   A    
C22   N1    A    
Cu2   O4    S    
C8    C27   S    
C31   C36   A    
C68   O25   D    
C1    O1    A    
C30   C63   S    
C43   H8    S    
