data_mof_unit_50632.cif
_audit_creation_date              2012-12-10T17:00:41-0500
_audit_creation_method            fapswitch 2.2
_symmetry_space_group_name_H-M    P1
_symmetry_Int_Tables_number       1
_space_group_crystal_system       triclinic
_cell_length_a                    27.766815
_cell_length_b                    10.926457
_cell_length_c                    9.677219
_cell_angle_alpha                 88.703189
_cell_angle_beta                  89.898484
_cell_angle_gamma                 90.043468
_cell_volume                      2935.2420942

loop_
_atom_site_label
_atom_site_type_symbol
_atom_type_description
_atom_site_fract_x
_atom_site_fract_y
_atom_site_fract_z
_atom_type_partial_charge
C1    C     C_R   0.496624 0.265300 0.501951 0.812966
C2    C     C_R   0.278679 0.472257 0.624583 -0.000086
C3    C     C_R   0.253081 0.506177 0.502825 0.331652
C4    C     C_R   0.101187 0.508538 0.507086 -0.048146
C5    C     C_R   0.126418 0.400513 0.472816 -0.025742
C6    C     C_R   0.100527 0.289898 0.453656 -0.079234
C7    C     C_R   0.126926 0.615570 0.543032 -0.070753
C8    C     C_R   0.354404 0.501791 0.500696 -0.010837
C9    C     C_R   0.645432 0.495325 0.499015 -0.091525
C10   C     C_R   0.974416 0.416216 0.436505 0.070199
C11   C     C_R   0.974053 0.605175 0.566406 0.070227
C12   C     C_R   0.407430 0.500364 0.500122 0.837506
C13   C     C_R   0.948902 0.511160 0.500095 0.062161
C14   C     C_R   0.948962 0.337993 0.348360 -0.124523
C15   C     C_R   0.898898 0.342660 0.339828 -0.116824
C16   C     C_R   0.872925 0.426598 0.417981 -0.025337
C17   C     C_R   0.897990 0.511796 0.497776 -0.045651
C18   C     C_R   0.872279 0.597284 0.575677 -0.026154
C19   C     C_R   0.821752 0.595026 0.573434 0.538218
C20   C     C_R   0.822419 0.428596 0.417518 0.538288
C21   C     C_R   0.722899 0.433760 0.593062 -0.165510
C22   C     C_R   0.672673 0.423633 0.594599 -0.037053
C23   C     C_R   0.498923 0.734714 0.498103 0.884982
C24   C     C_R   0.669295 0.570638 0.401233 -0.216684
C25   C     C_R   0.719688 0.578286 0.398266 0.023910
C26   C     C_R   0.746412 0.509360 0.495890 0.273577
C27   C     C_R   0.024662 0.404514 0.461645 0.036850
C28   C     C_R   0.050265 0.509194 0.505723 0.032843
C29   C     C_R   0.024737 0.614723 0.547220 0.026775
C30   C     C_R   0.049670 0.291618 0.450023 -0.100599
C31   C     C_R   0.101207 0.725246 0.569644 -0.086177
C32   C     C_R   0.947803 0.684458 0.651641 -0.119331
C33   C     C_R   0.897633 0.680982 0.655638 -0.118340
C34   C     C_R   0.592458 0.496937 0.499974 0.863681
C35   C     C_R   0.050328 0.726102 0.563953 -0.040919
C36   C     C_2   0.477859 0.936502 0.394641 0.051065
C37   C     C_2   0.500198 0.867054 0.492582 -0.249867
C38   C     C_2   0.486008 0.069022 0.393970 -0.268457
C39   C     C_2   0.483526 0.135823 0.509204 -0.137615
C40   C     C_2   0.472607 0.428369 0.923918 -0.054026
C41   C     C_2   0.471847 0.430270 0.079730 -0.049191
C42   C     C_R   0.177070 0.406790 0.461121 0.679493
C43   C     C_R   0.177871 0.608853 0.548551 0.634319
C44   C     C_R   0.278633 0.537816 0.379950 -0.011896
C45   C     C_R   0.329015 0.533841 0.380422 -0.258642
C46   C     C_R   0.329053 0.471894 0.621976 -0.285989
Cu1   Cu    Cu3+1 0.500010 0.500020 0.638630 0.995444
Cu2   Cu    Cu3+1 0.499990 0.499980 0.361370 0.988845
H1    H     H_    0.965852 0.748464 0.717675 0.151417
H2    H     H_    0.648315 0.625081 0.328224 0.190343
H3    H     H_    0.495865 0.111909 0.295490 0.156716
H4    H     H_    0.521455 0.561533 0.892253 0.200227
H5    H     H_    0.446631 0.369643 0.132923 0.148410
H6    H     H_    0.880651 0.279192 0.273278 0.192937
H7    H     H_    0.967578 0.273651 0.283930 0.145817
H8    H     H_    0.348623 0.557960 0.286704 0.170207
N1    N     N_R   0.201300 0.507503 0.503828 -0.430258
N2    N     N_R   0.798041 0.511699 0.494882 -0.479372
N3    N     N_2   0.499480 0.498660 0.846910 -0.270643
N4    N     N_2   0.499460 0.498630 0.153040 -0.272724
O1    O     O_R   0.500010 0.321960 0.617040 -0.572383
O2    O     O_2   0.797798 0.347941 0.341119 -0.519048
O3    O     O_2   0.204247 0.701517 0.598609 -0.518677
O4    O     O_2   0.796481 0.675303 0.648721 -0.516123
O5    O     O_R   0.499990 0.321920 0.382900 -0.576351
O6    O     O_R   0.430270 0.500040 0.617060 -0.586046
O7    O     O_R   0.430260 0.500000 0.382910 -0.566588
O8    O     O_R   0.500010 0.678080 0.617100 -0.575322
O9    O     O_R   0.499990 0.678040 0.382960 -0.554566
O10   O     O_R   0.569740 0.500000 0.617090 -0.544523
O11   O     O_R   0.569730 0.499960 0.382940 -0.586066
O12   O     O_2   0.202238 0.314719 0.404995 -0.500229
H9    H     H_    0.348671 0.446233 0.714967 0.147772
C47   C     C_2   0.254599 0.575991 0.248696 0.430591
H10   H     H_    0.276126 0.592209 0.156294 0.072730
O13   O     O_2   0.211144 0.591222 0.241136 -0.528151
C48   C     C_2   0.127001 0.842547 0.590145 0.450633
H11   H     H_    0.152972 0.875240 0.513906 0.130137
O14   O     O_2   0.120100 0.901592 0.693930 -0.489292
H12   H     H_    0.878841 0.744831 0.720582 0.194221
C49   C     C_2   0.744242 0.658169 0.293975 0.431162
H13   H     H_    0.783219 0.664840 0.291936 0.079185
O15   O     O_2   0.721241 0.717730 0.208646 -0.524000
C50   C     C_2   0.025236 0.846358 0.548706 0.326235
H14   H     H_    0.035824 0.923614 0.609938 0.142999
O16   O     O_2   0.993227 0.860918 0.463494 -0.509198
C51   C     C_2   0.445021 0.889345 0.286999 0.439968
H15   H     H_    0.439984 0.942066 0.191717 0.051878
O17   O     O_2   0.421117 0.796681 0.306340 -0.524348
H16   H     H_    0.522239 0.909882 0.570633 0.134423
C52   C     C_2   0.254715 0.435901 0.756881 0.453944
H17   H     H_    0.276421 0.417811 0.848295 0.057005
O18   O     O_2   0.211121 0.424209 0.766428 -0.505775
C53   C     C_2   0.462604 0.088380 0.642489 0.368256
H18   H     H_    0.473707 0.127526 0.739466 0.082221
O19   O     O_2   0.431163 0.010119 0.644905 -0.505321
H19   H     H_    0.448801 0.364233 0.874034 0.139989
H20   H     H_    0.524179 0.554595 0.104517 0.197447
C54   C     C_2   0.125476 0.169363 0.454426 0.482357
H21   H     H_    0.117320 0.102894 0.376239 0.022460
O20   O     O_2   0.153869 0.141937 0.546234 -0.450287
C55   C     C_2   0.651201 0.332610 0.692885 0.392936
H22   H     H_    0.671175 0.304058 0.784402 0.080941
O21   O     O_2   0.612579 0.283717 0.670033 -0.533963
H23   H     H_    0.744346 0.379635 0.665248 0.143539
C56   C     C_2   0.023447 0.172599 0.459254 0.358676
H24   H     H_    0.034591 0.096367 0.397018 0.073498
O22   O     O_2   0.989979 0.157964 0.540046 -0.489911

loop_
_geom_bond_atom_site_label_1
_geom_bond_atom_site_label_2
_ccdc_geom_bond_type
C10   C27   A    
C21   C26   A    
C23   O9    A    
Cu2   O9    S    
C51   H15   S    
C49   H13   S    
C43   O3    S    
Cu1   O10   S    
C48   H11   S    
C2    C46   A    
C47   O13   D    
C37   H16   S    
C28   C29   A    
C50   O16   D    
N4    H20   S    
C5    C6    A    
C9    C22   A    
C56   H24   S    
C15   C16   A    
C18   C19   A    
C8    C45   A    
C49   O15   D    
C54   H21   S    
C45   H8    S    
C16   C17   A    
C1    O5    A    
C31   C48   S    
C7    C43   A    
Cu2   O5    S    
C34   O10   A    
Cu1   O6    S    
C16   C20   A    
C53   O19   D    
C14   H7    S    
C36   C51   S    
C40   N3    D    
C21   C22   A    
C30   C56   S    
C27   C30   A    
C25   C49   S    
C2    C52   S    
C4    C7    A    
C42   N1    A    
C4    C28   A    
Cu2   N4    S    
C48   O14   D    
C19   N2    A    
C24   H2    S    
C12   O7    A    
C3    C44   A    
C7    C31   A    
C47   H10   S    
C55   H22   S    
C15   H6    S    
C24   C25   A    
C10   C14   A    
C52   H17   S    
C1    C39   S    
C38   H3    S    
C25   C26   A    
C23   C37   S    
C12   O6    A    
C23   O8    A    
C44   C47   S    
C39   C53   S    
H4    N3    S    
C52   O18   D    
Cu1   Cu2   S    
C19   O4    S    
C8    C12   S    
C42   O12   S    
C17   C18   A    
C9    C24   A    
C50   H14   S    
C55   O21   D    
C26   N2    S    
C41   H5    S    
C3    N1    S    
C40   C41   S    
C6    C30   A    
C11   C32   A    
C51   O17   D    
C9    C34   S    
C31   C35   A    
Cu2   O11   S    
C20   N2    A    
Cu1   O8    S    
C40   H19   S    
C44   C45   A    
C5    C42   A    
C36   C37   D    
C54   O20   D    
C41   N4    D    
C4    C5    A    
C10   C13   A    
C1    O1    A    
Cu1   O1    S    
C35   C50   S    
C33   H12   S    
C29   C35   A    
C22   C55   S    
C13   C17   A    
C32   C33   A    
C36   C38   S    
C2    C3    A    
C6    C54   S    
C11   C13   A    
C38   C39   D    
C56   O22   D    
Cu2   O7    S    
C20   O2    S    
C53   H18   S    
C18   C33   A    
C8    C46   A    
C32   H1    S    
C43   N1    A    
Cu1   N3    S    
C11   C29   A    
C27   C28   A    
C14   C15   A    
C34   O11   A    
C46   H9    S    
C21   H23   S    
