data_mof_unit_7567.cif
_audit_creation_date              2012-12-10T17:41:04-0500
_audit_creation_method            fapswitch 2.2
_symmetry_space_group_name_H-M    P1
_symmetry_Int_Tables_number       1
_space_group_crystal_system       triclinic
_cell_length_a                    14.708824
_cell_length_b                    15.870307
_cell_length_c                    10.025928
_cell_angle_alpha                 89.426548
_cell_angle_beta                  88.047025
_cell_angle_gamma                 89.933616
_cell_volume                      2338.91060301

loop_
_atom_site_label
_atom_site_type_symbol
_atom_type_description
_atom_site_fract_x
_atom_site_fract_y
_atom_site_fract_z
_atom_type_partial_charge
C1    C     C_R   0.386414 0.874995 0.501142 0.964765
C2    C     C_R   0.735942 0.209970 0.376456 -0.023525
C3    C     C_R   0.223603 0.281587 0.374857 -0.021609
C4    C     C_R   0.200218 0.739797 0.390011 -0.057945
C5    C     C_R   0.673265 0.801778 0.510667 -0.107037
C6    C     C_R   0.674760 0.197520 0.487224 -0.078748
C7    C     C_R   0.169617 0.299044 0.491077 -0.080566
C8    C     C_R   0.175212 0.696770 0.509165 -0.117510
C9    C     C_R   0.336979 0.961225 0.146041 -0.049496
C10   C     C_R   0.837014 0.541423 0.145132 -0.042945
C11   C     C_R   0.275089 0.909194 0.085709 -0.315091
C12   C     C_R   0.383288 0.123110 0.502064 0.990392
C13   C     C_R   0.774633 0.592012 0.081676 -0.370504
C14   C     C_R   0.273499 0.906379 0.949567 0.367749
C15   C     C_R   0.771977 0.592240 0.945721 0.405259
C16   C     C_R   0.336873 0.953453 0.873540 0.365435
C17   C     C_R   0.836161 0.545466 0.872094 0.358866
C18   C     C_R   0.419633 0.981318 0.931959 -0.066701
C19   C     C_R   0.919458 0.518636 0.931533 -0.076437
C20   C     C_R   0.419444 0.983982 0.076029 -0.009144
C21   C     C_R   0.919310 0.516535 0.075896 0.084473
C22   C     C_R   0.578880 0.005127 0.067463 -0.025180
C23   C     C_R   0.884158 0.376301 0.502959 0.963839
C24   C     C_R   0.078780 0.492440 0.067605 -0.042199
C25   C     C_R   0.615989 0.123411 0.496600 0.914511
C26   C     C_R   0.614355 0.875524 0.501742 0.882357
C27   C     C_R   0.114938 0.624100 0.500973 0.893019
C28   C     C_R   0.113874 0.375213 0.497923 0.911911
C29   C     C_R   0.577687 0.010574 0.924224 0.483534
C30   C     C_R   0.077470 0.487935 0.924330 0.483252
C31   C     C_R   0.293832 0.195992 0.757445 -0.141303
C32   C     C_R   0.372604 0.742309 0.715912 -0.228992
C33   C     C_R   0.874047 0.757320 0.710946 -0.223605
C34   C     C_R   0.886190 0.624931 0.500301 0.901093
C35   C     C_R   0.785730 0.305563 0.756665 -0.130483
C36   C     C_R   0.229103 0.195931 0.863105 0.010940
C37   C     C_R   0.349564 0.700424 0.836029 -0.079102
C38   C     C_R   0.851738 0.797326 0.831651 -0.092855
C39   C     C_R   0.716224 0.305633 0.855884 -0.056991
C40   C     C_R   0.761649 0.818383 0.859630 -0.069686
C41   C     C_R   0.627313 0.287723 0.821490 -0.070472
C42   C     C_R   0.138973 0.215743 0.837647 -0.068008
C43   C     C_R   0.259697 0.677219 0.861028 -0.066874
C44   C     C_R   0.696987 0.811322 0.762429 0.466356
C45   C     C_R   0.298972 0.230712 0.385774 -0.253687
C46   C     C_R   0.610441 0.260162 0.694051 0.367148
C47   C     C_R   0.115993 0.243256 0.711388 0.369588
C48   C     C_R   0.196037 0.685764 0.762376 0.466707
C49   C     C_R   0.723282 0.786168 0.629624 0.023731
C50   C     C_R   0.683156 0.246606 0.601671 0.003753
C51   C     C_R   0.183854 0.253506 0.609519 0.001841
C52   C     C_R   0.223570 0.712098 0.629764 0.034635
C53   C     C_R   0.268138 0.214627 0.625410 0.103981
C54   C     C_R   0.307748 0.753611 0.616651 0.053677
C55   C     C_R   0.807814 0.745547 0.614330 0.066309
C56   C     C_R   0.276575 0.789685 0.387612 -0.161822
C57   C     C_R   0.766437 0.285204 0.623554 0.092570
C58   C     C_R   0.319844 0.193804 0.507658 -0.019647
C59   C     C_R   0.325982 0.802409 0.501574 -0.058562
C60   C     C_R   0.824820 0.696977 0.499985 -0.041172
C61   C     C_R   0.823509 0.303551 0.509896 -0.036937
C62   C     C_2   0.253957 0.165749 0.995993 0.401507
C63   C     C_2   0.417841 0.682962 0.937107 0.553841
C64   C     C_2   0.921220 0.815784 0.929705 0.571610
C65   C     C_2   0.735073 0.332919 0.991383 0.531403
C66   C     C_2   0.639218 0.758677 0.272452 0.468122
C67   C     C_R   0.772482 0.708445 0.388295 -0.246335
C68   C     C_2   0.722258 0.178028 0.240688 0.455254
C69   C     C_2   0.201279 0.307909 0.237793 0.493262
C70   C     C_2   0.146375 0.739082 0.267392 0.485252
C71   C     C_2   0.666572 0.997761 0.136762 0.472494
C72   C     C_2   0.166701 0.495935 0.137274 0.443066
C73   C     C_2   0.292087 0.016249 0.244469 0.605515
C74   C     C_2   0.791226 0.493646 0.253768 0.587714
C75   C     C_R   0.810034 0.262074 0.390253 -0.173547
C76   C     C_R   0.695866 0.758256 0.392274 -0.040579
Cl1   Cl    Cl    0.171312 0.870755 0.883554 -0.552365
Cl2   Cl    Cl    0.083371 0.686344 0.827133 -0.670728
Cl3   Cl    Cl    0.668219 0.624865 0.879072 -0.559183
Cl4   Cl    Cl    0.282664 0.003746 0.741994 -0.528884
Cl5   Cl    Cl    0.783144 0.495673 0.740877 -0.569062
Cl6   Cl    Cl    0.679617 0.026511 0.829754 -0.526123
Cl7   Cl    Cl    0.178861 0.472365 0.828887 -0.527091
Cl8   Cl    Cl    0.584712 0.812176 0.828787 -0.671183
Cl9   Cl    Cl    0.498702 0.266943 0.641672 -0.652464
Cl10  Cl    Cl    0.000768 0.240861 0.674950 -0.650348
H1    H     H_    0.339832 0.217312 0.296386 0.155660
H2    H     H_    0.570820 0.296882 0.892079 0.207393
H3    H     H_    0.086021 0.208031 0.914604 0.218412
H4    H     H_    0.238028 0.654139 0.959091 0.208619
H5    H     H_    0.213950 0.889075 0.140332 0.216035
H6    H     H_    0.713795 0.613130 0.135629 0.179929
H7    H     H_    0.324939 0.157134 0.019121 0.018298
H8    H     H_    0.488893 0.680369 0.908176 0.178286
H9    H     H_    0.991341 0.822450 0.897142 0.176736
H10   H     H_    0.804714 0.343005 0.019881 0.060451
H11   H     H_    0.671426 0.755779 0.173607 0.086880
H12   H     H_    0.296072 0.821217 0.296223 0.181920
H13   H     H_    0.779940 0.154616 0.181588 0.080673
H14   H     H_    0.255407 0.326607 0.167379 0.083082
H15   H     H_    0.180860 0.740840 0.169963 0.077397
H16   H     H_    0.668813 0.002700 0.242704 0.123072
H17   H     H_    0.167852 0.500717 0.243236 0.130107
H18   H     H_    0.299170 0.083277 0.232170 0.081354
H19   H     H_    0.761541 0.525526 0.339993 0.058407
H20   H     H_    0.789998 0.676210 0.297791 0.160863
H21   H     H_    0.855063 0.273837 0.304048 0.186927
H22   H     H_    0.362502 0.179115 0.780808 0.202349
H23   H     H_    0.441484 0.763245 0.696964 0.205628
H24   H     H_    0.943172 0.737929 0.689558 0.207691
H25   H     H_    0.852948 0.323327 0.785335 0.207261
H26   H     H_    0.740822 0.839258 0.958483 0.219321
N1    N     N_R   0.498810 0.000000 0.142780 -0.163441
N2    N     N_R   0.998810 0.500000 0.142780 -0.160244
N3    N     N_R   0.498740 0.000000 0.857170 -0.128071
N4    N     N_R   0.998740 0.500000 0.857170 -0.123372
O1    O     O_R   0.408390 0.908380 0.614690 -0.583563
O2    O     O_R   0.591620 0.908390 0.614640 -0.564173
O3    O     O_R   0.091620 0.591610 0.614640 -0.562864
O4    O     O_R   0.091620 0.408390 0.614640 -0.553147
O5    O     O_R   0.591610 0.091610 0.385310 -0.631082
O6    O     O_R   0.591610 0.908390 0.385310 -0.638844
O7    O     O_R   0.091610 0.591610 0.385310 -0.636220
O8    O     O_R   0.091610 0.408390 0.385310 -0.641184
O9    O     O_2   0.194899 0.148284 0.080175 -0.549740
O10   O     O_2   0.395183 0.669158 0.053620 -0.528240
O11   O     O_2   0.900504 0.826003 0.047456 -0.513330
O12   O     O_R   0.408390 0.091620 0.614690 -0.577013
O13   O     O_2   0.672564 0.345291 0.072088 -0.466977
O14   O     O_2   0.556259 0.758248 0.283307 -0.518124
O15   O     O_2   0.648468 0.184476 0.189307 -0.520626
O16   O     O_2   0.123782 0.301951 0.198829 -0.524469
O17   O     O_2   0.063334 0.741057 0.274105 -0.501106
O18   O     O_2   0.738660 0.983292 0.077766 -0.536994
O19   O     O_2   0.240576 0.495676 0.078332 -0.529694
O20   O     O_2   0.241278 0.988356 0.333235 -0.546414
O21   O     O_2   0.774798 0.419306 0.240183 -0.559689
O22   O     O_R   0.908390 0.408380 0.614690 -0.574849
O23   O     O_R   0.908390 0.591620 0.614690 -0.574775
O24   O     O_R   0.408370 0.908380 0.385360 -0.603023
O25   O     O_R   0.408370 0.091620 0.385360 -0.666407
O26   O     O_R   0.908370 0.408380 0.385360 -0.613527
O27   O     O_R   0.908370 0.591620 0.385360 -0.642958
O28   O     O_R   0.591620 0.091610 0.614640 -0.560217
Zn1   Zn    Zn3+2 0.500010 0.000000 0.653130 1.066602
Zn2   Zn    Zn3+2 0.000010 0.500000 0.653130 1.066733
Zn3   Zn    Zn3+2 0.499980 0.000000 0.346870 0.999101
Zn4   Zn    Zn3+2 0.999980 0.500000 0.346870 1.001190

loop_
_geom_bond_atom_site_label_1
_geom_bond_atom_site_label_2
_ccdc_geom_bond_type
C44   C49   A    
C33   C55   A    
C38   C40   A    
O23   Zn2   S    
C24   N2    A    
C22   C29   A    
C31   H22   S    
C23   O22   A    
C36   C42   A    
O4    Zn2   S    
C56   H12   S    
C4    C8    A    
C71   O18   D    
C4    C70   S    
C70   H15   S    
C39   C41   A    
C30   N4    A    
C61   C75   A    
O3    Zn2   S    
C75   H21   S    
O8    Zn4   S    
C63   H8    S    
C66   H11   S    
C19   C21   A    
C3    C7    A    
C1    C59   S    
C20   N1    A    
C11   C14   A    
O12   Zn1   S    
C6    C25   S    
C34   O23   A    
C12   O25   A    
O1    Zn1   S    
C14   Cl1   S    
C48   Cl2   S    
C30   Cl7   S    
C22   N1    A    
C15   Cl3   S    
C60   C67   A    
C70   O17   D    
C41   C46   A    
O5    Zn3   S    
C23   O26   A    
C43   C48   A    
C8    C52   A    
C40   C44   A    
C17   Cl5   S    
C46   Cl9   S    
C12   C58   S    
C3    C69   S    
C29   N3    A    
C55   C60   A    
C4    C56   A    
C34   C60   S    
C39   C65   S    
C5    C49   A    
C2    C6    A    
C9    C73   S    
C36   C62   S    
O24   Zn3   S    
C32   C54   A    
C37   C63   S    
C52   C54   A    
C38   C64   S    
C54   C59   A    
C73   H18   S    
C10   C21   A    
O27   Zn4   S    
C45   C58   A    
C74   O21   D    
C34   O27   A    
C43   H4    S    
C32   H23   S    
C47   Cl10  S    
O26   Zn4   S    
C40   H26   S    
C28   O4    A    
C27   O7    A    
O28   Zn1   S    
C72   O19   D    
C47   C51   A    
O6    Zn3   S    
C3    C45   A    
C6    C50   A    
C7    C28   S    
C16   Cl4   S    
C37   C43   A    
C68   O15   D    
C35   C39   A    
C9    C20   A    
C73   O20   D    
C23   C61   S    
C64   O11   D    
C66   C76   S    
C1    O1    A    
C32   C37   A    
C31   C53   A    
C9    C11   A    
C1    O24   A    
C71   H16   S    
C13   C15   A    
C13   H6    S    
C14   C16   A    
C25   O28   A    
C22   C71   S    
C35   H25   S    
C24   C72   S    
C15   C17   A    
C41   H2    S    
C46   C50   A    
C65   H10   S    
C45   H1    S    
C50   C57   A    
O2    Zn1   S    
C26   O2    A    
C64   H9    S    
C21   N2    A    
C44   Cl8   S    
C10   C13   A    
C18   N3    A    
C62   O9    D    
C65   O13   D    
C53   C58   A    
C28   O8    A    
C67   H20   S    
C57   C61   A    
C12   O12   A    
C72   H17   S    
C27   O3    A    
N3    Zn1   S    
C2    C68   S    
C33   C38   A    
C56   C59   A    
C35   C57   A    
C42   H3    S    
N1    Zn3   S    
C5    C76   A    
C68   H13   S    
N2    Zn4   S    
C29   Cl6   S    
C49   C55   A    
C74   H19   S    
N4    Zn2   S    
C10   C74   S    
C19   N4    A    
O22   Zn2   S    
C69   O16   D    
C17   C19   A    
C18   C20   A    
C42   C47   A    
C24   C30   A    
C63   O10   D    
O25   Zn3   S    
C7    C51   A    
C5    C26   S    
C69   H14   S    
C11   H5    S    
C48   C52   A    
O7    Zn4   S    
C16   C18   A    
C62   H7    S    
C8    C27   S    
C31   C36   A    
C33   H24   S    
C26   O6    A    
C51   C53   A    
C25   O5    A    
C2    C75   A    
C67   C76   A    
C66   O14   D    
