data_mof_unit_60833.cif
_audit_creation_date              2012-12-10T18:33:07-0500
_audit_creation_method            fapswitch 2.2
_symmetry_space_group_name_H-M    P1
_symmetry_Int_Tables_number       1
_space_group_crystal_system       triclinic
_cell_length_a                    38.729763
_cell_length_b                    45.138244
_cell_length_c                    29.726964
_cell_angle_alpha                 89.953752
_cell_angle_beta                  130.571258
_cell_angle_gamma                 90.072256
_cell_volume                      39475.1086191

loop_
_atom_site_label
_atom_site_type_symbol
_atom_type_description
_atom_site_fract_x
_atom_site_fract_y
_atom_site_fract_z
_atom_type_partial_charge
C1    C     C_R   0.790568 0.790576 0.081040 0.888905
C2    C     C_R   0.537917 0.750666 0.006258 0.324472
C3    C     C_3   0.852016 0.114657 0.179424 0.371545
C4    C     C_3   0.594434 0.656825 0.735721 -0.050189
C5    C     C_3   0.403879 0.658023 0.266574 -0.049524
C6    C     C_3   0.092486 0.155060 0.739285 -0.048592
C7    C     C_3   0.907784 0.154896 0.260244 -0.048145
C8    C     C_3   0.568933 0.629935 0.689449 0.740264
C9    C     C_3   0.429785 0.631274 0.313112 0.740169
C10   C     C_3   0.067521 0.128013 0.693317 0.740569
C11   C     C_3   0.932700 0.127836 0.306177 0.740670
C12   C     C_1   0.562945 0.562601 0.625874 -0.160531
C13   C     C_R   0.967523 0.247367 0.004511 0.323844
C14   C     C_1   0.437135 0.562591 0.374107 -0.160793
C15   C     C_1   0.062902 0.062641 0.625801 -0.161466
C16   C     C_1   0.937189 0.062644 0.374204 -0.161760
C17   C     C_3   0.644221 0.645583 0.791404 0.031278
C18   C     C_3   0.355904 0.645644 0.208710 0.031553
C19   C     C_3   0.144225 0.145536 0.791512 0.031993
C20   C     C_3   0.855853 0.145533 0.208471 0.032160
C21   C     C_3   0.620954 0.589809 0.769720 0.360915
C22   C     C_3   0.383113 0.590650 0.231873 0.361073
C23   C     C_3   0.126172 0.089031 0.771272 0.361805
C24   C     C_R   0.036203 0.250150 0.002723 0.324540
C25   C     C_3   0.873314 0.088981 0.228571 0.361940
C26   C     C_3   0.604773 0.604098 0.709414 0.062164
C27   C     C_3   0.395333 0.604076 0.290543 0.062242
C28   C     C_3   0.104696 0.104170 0.709283 0.062212
C29   C     C_3   0.895418 0.104176 0.290726 0.062199
C30   C     C_3   0.647778 0.616670 0.718807 -0.045817
C31   C     C_3   0.349869 0.614511 0.277068 -0.045625
C32   C     C_3   0.143935 0.119479 0.713215 -0.046900
C33   C     C_3   0.856662 0.119717 0.287450 -0.046879
C34   C     C_3   0.672326 0.640029 0.770879 0.201323
C35   C     C_3   0.905203 0.844945 0.261002 0.360843
C36   C     C_3   0.325580 0.637955 0.225161 0.201017
C37   C     C_3   0.168855 0.142736 0.765488 0.202527
C38   C     C_3   0.831682 0.142966 0.235157 0.202437
C39   C     C_R   0.817418 0.750095 0.000106 0.850366
C40   C     C_R   0.182507 0.750136 0.999724 0.850231
C41   C     C_R   0.317418 0.250095 0.000107 0.850468
C42   C     C_R   0.682507 0.250136 0.999725 0.850918
C43   C     C_1   0.581773 0.581232 0.663427 0.178808
C44   C     C_1   0.418330 0.581214 0.336537 0.178819
C45   C     C_1   0.081698 0.081297 0.663306 0.178532
C46   C     C_3   0.093832 0.845932 0.741122 0.360543
C47   C     C_1   0.918420 0.081302 0.336701 0.178634
C48   C     C_1   0.667731 0.668530 0.837197 0.189116
C49   C     C_1   0.332345 0.668559 0.162852 0.188826
C50   C     C_1   0.167698 0.168517 0.837235 0.188014
C51   C     C_1   0.832366 0.168518 0.162759 0.187756
C52   C     C_1   0.686913 0.687244 0.874577 -0.153409
C53   C     C_1   0.313123 0.687251 0.125434 -0.154221
C54   C     C_1   0.186878 0.187246 0.874581 -0.159075
C55   C     C_1   0.813161 0.187247 0.125418 -0.159799
C56   C     C_R   0.040453 0.959478 0.580883 0.893787
C57   C     C_3   0.406066 0.345493 0.259646 0.358254
C58   C     C_R   0.959518 0.959479 0.419116 0.893559
C59   C     C_R   0.540448 0.459474 0.580874 0.893380
C60   C     C_R   0.459528 0.459473 0.419130 0.889957
C61   C     C_R   0.459341 0.540538 0.418602 0.897029
C62   C     C_R   0.540686 0.540539 0.581396 0.896982
C63   C     C_R   0.959351 0.040549 0.418619 0.894893
C64   C     C_R   0.040678 0.040548 0.581381 0.895096
C65   C     C_R   0.627563 0.777356 0.000906 -0.015272
C66   C     C_R   0.374603 0.777246 0.003166 -0.013889
C67   C     C_R   0.100067 0.251083 0.946880 -0.015187
C68   C     C_3   0.593047 0.347151 0.743566 0.359662
C69   C     C_R   0.900627 0.249644 0.056064 -0.014813
C70   C     C_R   0.593480 0.777851 0.004833 0.396068
C71   C     C_R   0.412450 0.777631 0.006792 0.395616
C72   C     C_R   0.064014 0.252228 0.946952 0.398719
C73   C     C_R   0.937542 0.247787 0.057806 0.397496
C74   C     C_R   0.575916 0.750781 0.006660 -0.098766
C75   C     C_R   0.430128 0.750545 0.005458 -0.097394
C76   C     C_R   0.073350 0.251635 0.001570 -0.097746
C77   C     C_R   0.929521 0.246418 0.004107 -0.098674
C78   C     C_R   0.593544 0.723503 0.006577 -0.023041
C79   C     C_3   0.854514 0.885446 0.180055 0.374334
C80   C     C_R   0.410747 0.723322 0.002179 -0.023608
C81   C     C_R   0.118508 0.251043 0.055593 -0.027116
C82   C     C_R   0.884762 0.245757 0.949257 -0.026909
C83   C     C_R   0.628918 0.723167 0.004301 0.364127
C84   C     C_R   0.373124 0.723049 0.999991 0.363196
C85   C     C_R   0.154880 0.250583 0.055247 0.369388
C86   C     C_R   0.847544 0.246845 0.947838 0.369627
C87   C     C_3   0.148503 0.885953 0.821021 0.374261
C88   C     C_3   0.352573 0.385709 0.179503 0.371605
C89   C     C_R   0.209427 0.790576 0.918959 0.888534
C90   C     C_3   0.651795 0.386408 0.821890 0.373967
C91   C     C_3   0.884285 0.909292 0.232438 0.129819
C92   C     C_3   0.118740 0.909939 0.768938 0.129836
C93   C     C_3   0.382399 0.409615 0.231788 0.116949
C94   C     C_3   0.622087 0.410560 0.770142 0.130423
C95   C     C_1   0.937286 0.937353 0.374675 -0.159604
C96   C     C_1   0.062620 0.937347 0.625315 -0.159736
C97   C     C_1   0.437417 0.437260 0.374860 -0.155420
C98   C     C_1   0.562594 0.437327 0.625271 -0.160465
C99   C     C_3   0.853905 0.854933 0.207729 -0.047267
C100  C     C_R   0.290572 0.290575 0.081043 0.906106
C101  C     C_3   0.146065 0.854927 0.792261 -0.047764
C102  C     C_3   0.354002 0.354861 0.207906 -0.039455
C103  C     C_3   0.646071 0.354899 0.792198 -0.049435
C104  C     C_3   0.928298 0.868088 0.313862 0.680826
C105  C     C_3   0.070392 0.868949 0.687992 0.680991
C106  C     C_3   0.430149 0.368670 0.312685 0.676979
C107  C     C_3   0.569243 0.370027 0.690156 0.681242
C108  C     C_3   0.895266 0.895935 0.290845 -0.067424
C109  C     C_3   0.104633 0.895920 0.709128 -0.067315
C110  C     C_3   0.395927 0.395655 0.291460 -0.059857
C111  C     C_R   0.709413 0.290575 0.918956 0.903150
C112  C     C_3   0.604597 0.395880 0.709041 -0.066527
C113  C     C_3   0.850201 0.885133 0.278656 0.303416
C114  C     C_3   0.147750 0.883613 0.718105 0.302728
C115  C     C_3   0.353005 0.383284 0.283035 0.306465
C116  C     C_3   0.645397 0.381837 0.714559 0.300988
C117  C     C_R   0.682629 0.749966 0.999994 0.996421
C118  C     C_R   0.317333 0.750083 0.999931 0.996195
C119  C     C_R   0.182628 0.249993 0.999984 0.997273
C120  C     C_R   0.817503 0.249888 0.000236 0.995227
C121  C     C_3   0.826954 0.858890 0.230688 0.621711
C122  C     C_R   0.645387 0.750192 0.001116 -0.187523
C123  C     C_3   0.170923 0.857403 0.766138 0.621642
C124  C     C_3   0.328414 0.357717 0.232998 0.586447
C125  C     C_3   0.668478 0.355671 0.762682 0.623124
C126  C     C_1   0.918441 0.918721 0.337072 0.162031
C127  C     C_1   0.081438 0.918710 0.662908 0.161952
C128  C     C_1   0.418795 0.418534 0.337450 0.202759
C129  C     C_1   0.581397 0.418676 0.662835 0.161724
C130  C     C_1   0.831257 0.831690 0.162326 0.109581
C131  C     C_1   0.168709 0.831689 0.837672 0.110072
C132  C     C_1   0.331288 0.331657 0.162396 0.121511
C133  C     C_R   0.355399 0.750127 0.000450 -0.187108
C134  C     C_1   0.668696 0.331672 0.837632 0.111998
C135  C     C_1   0.812696 0.812806 0.125239 -0.178704
C136  C     C_1   0.187279 0.812805 0.874760 -0.177522
C137  C     C_1   0.312704 0.312796 0.125261 -0.173400
C138  C     C_1   0.687261 0.312798 0.874742 -0.171869
C139  C     C_R   0.847501 0.748093 0.947248 0.436734
C140  C     C_R   0.150403 0.748385 0.050236 0.436745
C141  C     C_R   0.347506 0.248080 0.947257 0.437059
C142  C     C_R   0.650406 0.248371 0.050239 0.437136
C143  C     C_R   0.883686 0.751215 0.948289 -0.165297
C144  C     C_R   0.145176 0.250378 0.000674 -0.187709
C145  C     C_R   0.113390 0.751615 0.047492 -0.162873
C146  C     C_R   0.383693 0.251200 0.948300 -0.165069
C147  C     C_R   0.613394 0.251598 0.047499 -0.162299
C148  C     C_R   0.928122 0.755901 0.001423 -0.108016
C149  C     C_R   0.069665 0.756442 0.993496 -0.105856
C150  C     C_R   0.428126 0.255897 0.001432 -0.108229
C151  C     C_R   0.569671 0.256434 0.993507 -0.106065
C152  C     C_R   0.936339 0.757944 0.055241 0.134975
C153  C     C_R   0.062780 0.759191 0.940860 0.135826
C154  C     C_R   0.436338 0.257955 0.055245 0.135127
C155  C     C_R   0.855918 0.249084 0.001420 -0.189183
C156  C     C_R   0.562785 0.259194 0.940872 0.135943
C157  C     C_R   0.900065 0.755497 0.054735 0.068048
C158  C     C_R   0.099820 0.756814 0.943004 0.069754
C159  C     C_R   0.400062 0.255511 0.054736 0.068011
C160  C     C_R   0.599824 0.256819 0.943013 0.069569
C161  C     C_R   0.855459 0.750649 0.000760 -0.237799
C162  C     C_R   0.143799 0.751198 0.997634 -0.237773
C163  C     C_R   0.355460 0.250650 0.000764 -0.238078
C164  C     C_R   0.643801 0.251196 0.997638 -0.238457
C165  C     C_R   0.709440 0.709416 0.918824 0.897546
C166  C     C_R   0.467894 0.750427 0.005484 0.324862
C167  C     C_R   0.290564 0.709416 0.081177 0.898417
C168  C     C_R   0.209428 0.209417 0.918823 0.882793
C169  C     C_R   0.790578 0.209417 0.081177 0.882970
C170  C     C_R   0.031976 0.757823 0.993579 0.313493
C171  C     C_R   0.964828 0.757006 0.998855 0.319460
C172  C     C_R   0.531983 0.257815 0.993593 0.313588
C173  C     C_R   0.464834 0.257000 0.998867 0.319512
C174  C     C_3   0.642126 0.615741 0.818342 0.372159
C175  C     C_3   0.361961 0.616751 0.183574 0.372459
C176  C     C_3   0.147440 0.114726 0.820363 0.371151
H1    H     H_    0.876845 0.749495 0.906761 0.189948
H2    H     H_    0.619417 0.816953 0.963017 0.235805
H3    H     H_    0.899180 0.181471 0.311601 0.175125
H4    H     H_    0.536646 0.672812 0.718819 0.199963
H5    H     H_    0.584815 0.683663 0.783725 0.209653
H6    H     H_    0.462268 0.676696 0.288602 0.199383
H7    H     H_    0.414919 0.686714 0.222111 0.208853
H8    H     H_    0.036294 0.167403 0.729686 0.200938
H9    H     H_    0.085261 0.179468 0.792163 0.204738
H10   H     H_    0.963714 0.166922 0.268932 0.200658
H11   H     H_    0.914667 0.179095 0.206771 0.203595
H12   H     H_    0.507530 0.630274 0.664288 0.362350
H13   H     H_    0.345648 0.817043 0.965711 0.232614
H14   H     H_    0.492621 0.634293 0.343388 0.361901
H15   H     H_    0.008760 0.124790 0.675304 0.362691
H16   H     H_    0.991088 0.124306 0.323309 0.362515
H17   H     H_    0.563004 0.650723 0.624723 0.339629
H18   H     H_    0.430497 0.650492 0.374854 0.339605
H19   H     H_    0.054488 0.150519 0.625174 0.338578
H20   H     H_    0.946586 0.150474 0.374688 0.338577
H21   H     H_    0.723011 0.613195 0.830488 0.391228
H22   H     H_    0.278058 0.610076 0.163549 0.391217
H23   H     H_    0.223234 0.117614 0.821673 0.391265
H24   H     H_    0.380276 0.816455 0.040607 0.231909
H25   H     H_    0.776916 0.118009 0.179438 0.391237
H26   H     H_    0.663050 0.577894 0.696858 0.196317
H27   H     H_    0.706648 0.601497 0.737863 0.226162
H28   H     H_    0.335376 0.574339 0.296344 0.196320
H29   H     H_    0.290414 0.596655 0.252875 0.225887
H30   H     H_    0.159759 0.082706 0.687266 0.197264
H31   H     H_    0.201242 0.107961 0.724982 0.226807
H32   H     H_    0.840826 0.083127 0.313912 0.197264
H33   H     H_    0.799608 0.108522 0.276582 0.226652
H34   H     H_    0.599132 0.684267 0.044501 0.197243
H35   H     H_    0.072502 0.269330 0.867564 0.233878
H36   H     H_    0.561123 0.684277 0.968762 0.196450
H37   H     H_    0.403519 0.685045 0.960738 0.197857
H38   H     H_    0.441085 0.683249 0.036379 0.195805
H39   H     H_    0.145138 0.268783 0.135227 0.199961
H40   H     H_    0.145050 0.230921 0.133375 0.197563
H41   H     H_    0.859211 0.263859 0.870257 0.198445
H42   H     H_    0.860004 0.225980 0.871923 0.199116
H43   H     H_    0.685813 0.590677 0.888082 0.325133
H44   H     H_    0.322270 0.591319 0.113117 0.325105
H45   H     H_    0.196079 0.090513 0.888390 0.325032
H46   H     H_    0.070689 0.231820 0.867769 0.219140
H47   H     H_    0.802825 0.090537 0.111656 0.324970
H48   H     H_    0.686747 0.572489 0.812975 0.212208
H49   H     H_    0.654394 0.550650 0.816609 0.174732
H50   H     H_    0.318039 0.570961 0.184087 0.211996
H51   H     H_    0.353815 0.551064 0.184153 0.174915
H52   H     H_    0.192153 0.075041 0.807874 0.212597
H53   H     H_    0.164728 0.050822 0.816256 0.174609
H54   H     H_    0.807379 0.075289 0.192812 0.212571
H55   H     H_    0.834196 0.050876 0.183869 0.174402
H56   H     H_    0.618138 0.616320 0.630250 0.210257
H57   H     H_    0.928495 0.269296 0.134333 0.237012
H58   H     H_    0.661741 0.640066 0.672111 0.204305
H59   H     H_    0.375558 0.613268 0.363918 0.210266
H60   H     H_    0.330626 0.635747 0.319646 0.204150
H61   H     H_    0.108988 0.120032 0.622868 0.209924
H62   H     H_    0.150541 0.145400 0.661485 0.204808
H63   H     H_    0.892249 0.120335 0.377974 0.209992
H64   H     H_    0.850949 0.145838 0.339749 0.204703
H65   H     H_    0.634358 0.679752 0.007730 0.335624
H66   H     H_    0.368971 0.679604 0.999351 0.335335
H67   H     H_    0.202693 0.251565 0.141970 0.338124
H68   H     H_    0.926636 0.231799 0.135118 0.213469
H69   H     H_    0.801007 0.243978 0.861101 0.337283
H70   H     H_    0.991336 0.859488 0.350823 0.374167
H71   H     H_    0.007814 0.862103 0.654794 0.373955
H72   H     H_    0.492465 0.361729 0.344945 0.376082
H73   H     H_    0.507462 0.365290 0.661172 0.373922
H74   H     H_    0.918346 0.828476 0.212284 0.355728
H75   H     H_    0.082771 0.830906 0.792927 0.356117
H76   H     H_    0.417355 0.329410 0.208720 0.353945
H77   H     H_    0.584403 0.333784 0.798671 0.355528
H78   H     H_    0.787968 0.880232 0.099991 0.211723
H79   H     H_    0.830651 0.939144 0.206402 0.194068
H80   H     H_    0.791421 0.905046 0.144979 0.228896
H81   H     H_    0.215814 0.879679 0.898803 0.211643
H82   H     H_    0.211641 0.903749 0.852231 0.229041
H83   H     H_    0.285173 0.379590 0.101549 0.215667
H84   H     H_    0.289883 0.405069 0.146648 0.205858
H85   H     H_    0.719698 0.378817 0.897025 0.212049
H86   H     H_    0.714657 0.402009 0.848710 0.228833
H87   H     H_    0.854417 0.868410 0.118690 0.344222
H88   H     H_    0.150693 0.870085 0.884879 0.344638
H89   H     H_    0.350924 0.369558 0.116270 0.344017
H90   H     H_    0.855214 0.946767 0.178602 0.208790
H91   H     H_    0.656374 0.371873 0.888392 0.344421
H92   H     H_    0.922537 0.930085 0.214321 0.208266
H93   H     H_    0.942505 0.897038 0.243445 0.319010
H94   H     H_    0.084175 0.932535 0.790893 0.208010
H95   H     H_    0.061851 0.899747 0.762344 0.319049
H96   H     H_    0.417624 0.432232 0.210782 0.208032
H97   H     H_    0.439164 0.399163 0.238184 0.319678
H98   H     H_    0.591707 0.435174 0.796094 0.206850
H99   H     H_    0.566954 0.402809 0.768421 0.319046
H100  H     H_    0.172942 0.938172 0.791506 0.194408
H101  H     H_    0.118668 0.749264 0.087888 0.186147
H102  H     H_    0.151233 0.947264 0.822435 0.208580
H103  H     H_    0.330632 0.438849 0.213237 0.186934
H104  H     H_    0.348663 0.446351 0.176682 0.209166
H105  H     H_    0.676599 0.436801 0.788716 0.194471
H106  H     H_    0.658137 0.447545 0.822924 0.208173
H107  H     H_    0.806778 0.832913 0.263215 0.341963
H108  H     H_    0.187201 0.830059 0.730694 0.343071
H109  H     H_    0.309937 0.330510 0.265987 0.344012
H110  H     H_    0.680434 0.326842 0.724317 0.342801
H111  H     H_    0.762453 0.863962 0.193561 0.339106
H112  H     H_    0.376854 0.249469 0.906775 0.190223
H113  H     H_    0.234719 0.860670 0.799401 0.340388
H114  H     H_    0.265325 0.363541 0.200066 0.335749
H115  H     H_    0.731204 0.356783 0.791624 0.339953
H116  H     H_    0.868112 0.855672 0.341805 0.397970
H117  H     H_    0.125900 0.853686 0.653972 0.398143
H118  H     H_    0.374192 0.351405 0.344313 0.394955
H119  H     H_    0.619353 0.351525 0.649696 0.397921
H120  H     H_    0.899001 0.812692 0.307528 0.274640
H121  H     H_    0.941150 0.806922 0.307205 0.211215
H122  H     H_    0.095714 0.812597 0.692289 0.274785
H123  H     H_    0.618673 0.249240 0.087894 0.186580
H124  H     H_    0.055113 0.808468 0.696144 0.211329
H125  H     H_    0.402532 0.313049 0.308206 0.270419
H126  H     H_    0.443616 0.307853 0.305515 0.213627
H127  H     H_    0.590209 0.312699 0.692534 0.275145
H128  H     H_    0.551521 0.310493 0.700248 0.211570
H129  H     H_    0.955750 0.868576 0.397333 0.370230
H130  H     H_    0.040052 0.868928 0.603443 0.370165
H131  H     H_    0.461223 0.369059 0.397485 0.371277
H132  H     H_    0.535810 0.369520 0.604657 0.370803
H133  H     H_    0.833263 0.927118 0.286332 0.212891
H134  H     H_    0.674429 0.661279 0.754230 0.168583
H135  H     H_    0.791188 0.902980 0.254683 0.217686
H136  H     H_    0.165856 0.924751 0.708616 0.213348
H137  H     H_    0.206344 0.899606 0.738112 0.218594
H138  H     H_    0.307216 0.404148 0.287437 0.236203
H139  H     H_    0.294019 0.410037 0.223285 0.164402
H140  H     H_    0.664588 0.421893 0.702895 0.213348
H141  H     H_    0.703220 0.395599 0.730102 0.216978
H142  H     H_    0.785069 0.733720 0.899227 0.338452
H143  H     H_    0.212964 0.734084 0.099833 0.337701
H144  H     H_    0.285075 0.233704 0.899242 0.340077
H145  H     H_    0.320778 0.658569 0.240599 0.168343
H146  H     H_    0.712965 0.234067 0.099825 0.339973
H147  H     H_    0.002365 0.745141 0.116610 0.200759
H148  H     H_    0.993483 0.782564 0.112495 0.214167
H149  H     H_    0.997604 0.747312 0.872224 0.208897
H150  H     H_    0.005245 0.783996 0.889928 0.198553
H151  H     H_    0.502368 0.245164 0.116635 0.201061
H152  H     H_    0.493471 0.282587 0.112479 0.213911
H153  H     H_    0.497605 0.247324 0.872232 0.209146
H154  H     H_    0.505257 0.284006 0.889959 0.198228
H155  H     H_    0.565239 0.803060 0.026328 0.343324
H156  H     H_    0.167348 0.164632 0.747559 0.168696
H157  H     H_    0.462988 0.802311 0.029062 0.343374
H158  H     H_    0.999541 0.261860 0.898294 0.346231
H159  H     H_    0.002115 0.238012 0.109276 0.345664
H160  H     H_    0.888754 0.775777 0.105148 0.177111
H161  H     H_    0.901459 0.739041 0.119507 0.216603
H162  H     H_    0.113614 0.777956 0.895850 0.176745
H163  H     H_    0.099729 0.741492 0.878703 0.215435
H164  H     H_    0.388739 0.275808 0.105122 0.175534
H165  H     H_    0.401454 0.239075 0.119518 0.216810
H166  H     H_    0.613619 0.277975 0.895872 0.175431
H167  H     H_    0.833612 0.164907 0.253216 0.168514
H168  H     H_    0.599731 0.241512 0.878703 0.215779
H169  H     H_    0.592614 0.567353 0.795360 0.320886
H170  H     H_    0.416073 0.570546 0.210713 0.320851
H171  H     H_    0.104407 0.063726 0.802574 0.321161
H172  H     H_    0.894272 0.063446 0.196612 0.320957
H173  H     H_    0.580545 0.619203 0.802328 0.258746
H174  H     H_    0.622987 0.604823 0.867942 0.172743
H175  H     H_    0.425311 0.623157 0.205206 0.258529
H176  H     H_    0.385879 0.608340 0.138742 0.172241
H177  H     H_    0.089001 0.114286 0.812142 0.260085
H178  H     H_    0.659122 0.816685 0.037967 0.228547
H179  H     H_    0.135122 0.100755 0.876009 0.172616
H180  H     H_    0.910014 0.113878 0.186685 0.259709
H181  H     H_    0.863484 0.100439 0.123072 0.172190
H182  H     H_    0.564693 0.692348 0.676821 0.216788
H183  H     H_    0.611460 0.680491 0.690363 0.175653
H184  H     H_    0.428833 0.693432 0.325270 0.216524
H185  H     H_    0.381489 0.679397 0.307567 0.175784
H186  H     H_    0.056648 0.190330 0.680918 0.216187
H187  H     H_    0.102005 0.181420 0.688541 0.175220
H188  H     H_    0.944313 0.190122 0.318489 0.216206
N1    N     N_R   0.540627 0.734917 0.047315 -0.141691
N2    N     N_R   0.993094 0.742595 0.952853 -0.175583
N3    N     N_R   0.503661 0.272424 0.039305 -0.182874
N4    N     N_R   0.493102 0.242586 0.952866 -0.175174
N5    N     N_R   0.036792 0.772680 0.036987 -0.160439
N6    N     N_R   0.960076 0.742277 0.955329 -0.164778
N7    N     N_R   0.536799 0.272672 0.037000 -0.160620
N8    N     N_R   0.460083 0.242269 0.955342 -0.164324
N9    N     N_3   0.645923 0.804688 0.999679 -0.413672
N10   N     N_3   0.355250 0.804643 0.002008 -0.414860
N11   N     N_3   0.090923 0.250342 0.891713 -0.425395
N12   N     N_R   0.506131 0.734795 0.046931 -0.144182
N13   N     N_3   0.908461 0.250720 0.110337 -0.421588
N14   N     N_3   0.861665 0.938616 0.216405 -0.454853
N15   N     N_3   0.142758 0.938658 0.783670 -0.455098
N16   N     N_3   0.358986 0.438501 0.216945 -0.452790
N17   N     N_3   0.647466 0.438480 0.783259 -0.456021
N18   N     N_3   0.907514 0.814313 0.280842 -0.422718
N19   N     N_3   0.088982 0.815048 0.720754 -0.422672
N20   N     N_3   0.409867 0.314820 0.280263 -0.421158
N21   N     N_3   0.585487 0.316079 0.722848 -0.421930
N22   N     N_3   0.817713 0.909613 0.255987 -0.460039
N23   N     N_R   0.004499 0.228428 0.972863 -0.151447
N24   N     N_3   0.181271 0.907234 0.738935 -0.459702
N25   N     N_3   0.321764 0.407810 0.268105 -0.441211
N26   N     N_3   0.679849 0.404369 0.733201 -0.460485
N27   N     N_3   0.981167 0.761724 0.111340 -0.413906
N28   N     N_3   0.018844 0.765547 0.885027 -0.413236
N29   N     N_3   0.481162 0.261748 0.111343 -0.413962
N30   N     N_3   0.518850 0.265558 0.885044 -0.413546
N31   N     N_3   0.909273 0.758870 0.109703 -0.411824
N32   N     N_3   0.092130 0.761130 0.889229 -0.411734
N33   N     N_3   0.409264 0.258900 0.109697 -0.411905
N34   N     N_R   0.970640 0.227080 0.973688 -0.138842
N35   N     N_3   0.592134 0.261146 0.889241 -0.411805
N36   N     N_3   0.615446 0.620875 0.837303 -0.422419
N37   N     N_3   0.390725 0.623897 0.168449 -0.423653
N38   N     N_3   0.124020 0.117263 0.844499 -0.427225
N39   N     N_3   0.875004 0.116974 0.154663 -0.427983
N40   N     N_3   0.597312 0.683880 0.709988 -0.475926
N41   N     N_3   0.397280 0.684126 0.290498 -0.475999
N42   N     N_3   0.090362 0.183105 0.711581 -0.476238
N43   N     N_3   0.910498 0.183012 0.288153 -0.476399
N44   N     N_3   0.569151 0.665456 0.755194 -0.422939
N45   N     N_R   0.465037 0.766030 0.964178 -0.148003
N46   N     N_3   0.430951 0.668595 0.250807 -0.423730
N47   N     N_3   0.070078 0.161173 0.763807 -0.423992
N48   N     N_3   0.929805 0.160794 0.235110 -0.424710
N49   N     N_3   0.679167 0.592634 0.732454 -0.453620
N50   N     N_3   0.319565 0.589176 0.260935 -0.453681
N51   N     N_3   0.176295 0.097330 0.723089 -0.453000
N52   N     N_3   0.824234 0.097740 0.278061 -0.453097
N53   N     N_3   0.573962 0.696484 0.006690 -0.429783
N54   N     N_3   0.429135 0.696349 0.999766 -0.430469
N55   N     N_3   0.126556 0.250038 0.110049 -0.432763
N56   N     N_R   0.499523 0.766126 0.964529 -0.148110
N57   N     N_3   0.877908 0.245190 0.895611 -0.431627
N58   N     N_3   0.653413 0.565326 0.788564 -0.439944
N59   N     N_3   0.352037 0.564959 0.210716 -0.439682
N60   N     N_3   0.160011 0.066336 0.786543 -0.439629
N61   N     N_3   0.839358 0.066450 0.213761 -0.439823
N62   N     N_3   0.633318 0.631602 0.664877 -0.510768
N63   N     N_3   0.360623 0.628669 0.329521 -0.510855
N64   N     N_3   0.124533 0.135164 0.657793 -0.511110
N65   N     N_3   0.876647 0.135454 0.343014 -0.511101
N66   N     N_3   0.808305 0.896819 0.131283 -0.445599
N67   N     N_R   0.999318 0.269045 0.034504 -0.150370
N68   N     N_3   0.195720 0.896445 0.867897 -0.445505
N69   N     N_3   0.305735 0.396482 0.131814 -0.445142
N70   N     N_3   0.699904 0.395785 0.866518 -0.445400
N71   N     N_3   0.927799 0.915575 0.245740 -0.344032
N72   N     N_3   0.076807 0.917650 0.758688 -0.344257
N73   N     N_3   0.424584 0.417075 0.242424 -0.343829
N74   N     N_3   0.582068 0.419931 0.763199 -0.345253
N75   N     N_R   0.033213 0.270376 0.033739 -0.140040
N76   N     N_R   0.003654 0.772431 0.039293 -0.182693
O1    O     O_R   0.798060 0.763370 0.096070 -0.614654
O2    O     O_R   0.502080 0.530770 0.561700 -0.594082
O3    O     O_3   0.529538 0.381804 0.676370 -0.745274
O4    O     O_3   0.929797 0.844953 0.241007 -0.731684
O5    O     O_3   0.071298 0.847268 0.763959 -0.731322
O6    O     O_3   0.428919 0.346024 0.237192 -0.729684
O7    O     O_3   0.572900 0.350008 0.769425 -0.731518
O8    O     O_3   0.874995 0.880632 0.154980 -0.732527
O9    O     O_3   0.129890 0.882411 0.848810 -0.732299
O10   O     O_3   0.371815 0.381695 0.152621 -0.731720
O11   O     O_3   0.635357 0.384325 0.852580 -0.732688
O12   O     O_R   0.997920 0.030770 0.438300 -0.594552
O13   O     O_R   0.002080 0.030770 0.561700 -0.594351
O14   O     O_R   0.440430 0.530760 0.438330 -0.626817
O15   O     O_R   0.559570 0.530760 0.561670 -0.627577
O16   O     O_R   0.940430 0.030760 0.438330 -0.627090
O17   O     O_R   0.059570 0.030760 0.561670 -0.627166
O18   O     O_R   0.763350 0.798040 0.026640 -0.616294
O19   O     O_R   0.236650 0.798040 0.973360 -0.616986
O20   O     O_R   0.263350 0.298040 0.026640 -0.623167
O21   O     O_R   0.201940 0.763370 0.903930 -0.613959
O22   O     O_R   0.736650 0.298040 0.973360 -0.623147
O23   O     O_R   0.716420 0.732650 0.034650 -0.572955
O24   O     O_R   0.283580 0.732650 0.965350 -0.569930
O25   O     O_R   0.216420 0.232650 0.034650 -0.573945
O26   O     O_R   0.783580 0.232650 0.965350 -0.573554
O27   O     O_R   0.681710 0.767330 0.965220 -0.617644
O28   O     O_R   0.318290 0.767330 0.034780 -0.620674
O29   O     O_R   0.181710 0.267330 0.965220 -0.617635
O30   O     O_R   0.818290 0.267330 0.034780 -0.615697
O31   O     O_R   0.736630 0.701940 0.973210 -0.586226
O32   O     O_R   0.298060 0.263370 0.096070 -0.597611
O33   O     O_R   0.263370 0.701940 0.026790 -0.585131
O34   O     O_R   0.236630 0.201940 0.973210 -0.603110
O35   O     O_R   0.763370 0.201940 0.026790 -0.603417
O36   O     O_R   0.701920 0.736610 0.903790 -0.623924
O37   O     O_R   0.298080 0.736610 0.096210 -0.625000
O38   O     O_R   0.201920 0.236610 0.903790 -0.617073
O39   O     O_R   0.798080 0.236610 0.096210 -0.616866
O40   O     O_R   0.818270 0.732650 0.034640 -0.626610
O41   O     O_R   0.181730 0.732650 0.965360 -0.626158
O42   O     O_R   0.318270 0.232650 0.034640 -0.626375
O43   O     O_R   0.701940 0.263370 0.903930 -0.597981
O44   O     O_R   0.681730 0.232650 0.965360 -0.625578
O45   O     O_R   0.783570 0.767330 0.965210 -0.600538
O46   O     O_R   0.216430 0.767330 0.034790 -0.601404
O47   O     O_R   0.283570 0.267330 0.965210 -0.600945
O48   O     O_R   0.716430 0.267330 0.034790 -0.601702
O49   O     O_R   0.059430 0.969340 0.561280 -0.613155
O50   O     O_R   0.940570 0.969340 0.438720 -0.613040
O51   O     O_R   0.559430 0.469340 0.561280 -0.614434
O52   O     O_R   0.440570 0.469340 0.438720 -0.608688
O53   O     O_3   0.827397 0.831591 0.254326 -0.789852
O54   O     O_R   0.001940 0.969340 0.561310 -0.600599
O55   O     O_3   0.167849 0.829704 0.741653 -0.788642
O56   O     O_3   0.329570 0.329804 0.255472 -0.778239
O57   O     O_3   0.662575 0.327608 0.737495 -0.784652
O58   O     O_3   0.781002 0.865246 0.181486 -0.800535
O59   O     O_3   0.217645 0.862899 0.813495 -0.799485
O60   O     O_3   0.282113 0.363904 0.185320 -0.807263
O61   O     O_3   0.715843 0.360090 0.807871 -0.795611
O62   O     O_3   0.861502 0.876967 0.333055 -0.748373
O63   O     O_3   0.133816 0.874867 0.662477 -0.747801
O64   O     O_3   0.368832 0.372937 0.338900 -0.738423
O65   O     O_R   0.998060 0.969340 0.438690 -0.600366
O66   O     O_3   0.628610 0.372508 0.657789 -0.748764
O67   O     O_3   0.936448 0.854913 0.363067 -0.820841
O68   O     O_3   0.059453 0.855176 0.637517 -0.820936
O69   O     O_3   0.441879 0.355081 0.363796 -0.814714
O70   O     O_3   0.555287 0.355656 0.638509 -0.820540
O71   O     O_3   0.805293 0.742210 0.893100 -0.739598
O72   O     O_3   0.191920 0.742047 0.104932 -0.741091
O73   O     O_3   0.305302 0.242185 0.893111 -0.737630
O74   O     O_3   0.691922 0.242024 0.104930 -0.737812
O75   O     O_3   0.578991 0.805209 0.007790 -0.754280
O76   O     O_R   0.501940 0.469340 0.561310 -0.600997
O77   O     O_3   0.431173 0.804894 0.012086 -0.755309
O78   O     O_3   0.020402 0.254003 0.892786 -0.757771
O79   O     O_3   0.980691 0.246978 0.112832 -0.757415
O80   O     O_3   0.582711 0.576777 0.758430 -0.707220
O81   O     O_3   0.423499 0.579439 0.246636 -0.707152
O82   O     O_3   0.091198 0.073673 0.764621 -0.707153
O83   O     O_3   0.907872 0.073428 0.234664 -0.707480
O84   O     O_3   0.535670 0.618236 0.690627 -0.689523
O85   O     O_3   0.465614 0.621474 0.315561 -0.690009
O86   O     O_3   0.038090 0.113917 0.699285 -0.688831
O87   O     O_R   0.498060 0.469340 0.438690 -0.603514
O88   O     O_3   0.961648 0.113540 0.299639 -0.689107
O89   O     O_3   0.544793 0.638383 0.629602 -0.788575
O90   O     O_3   0.450810 0.639326 0.372209 -0.789339
O91   O     O_3   0.039304 0.136739 0.632918 -0.791480
O92   O     O_3   0.961392 0.136572 0.366608 -0.791351
O93   O     O_3   0.718708 0.634152 0.818728 -0.714840
O94   O     O_3   0.280300 0.630893 0.175046 -0.715385
O95   O     O_3   0.216276 0.138586 0.809879 -0.713383
O96   O     O_3   0.784174 0.138973 0.191215 -0.713550
O97   O     O_3   0.686858 0.608723 0.869891 -0.762430
O98   O     O_R   0.497920 0.530770 0.438300 -0.594650
O99   O     O_3   0.318722 0.608749 0.130141 -0.762063
O100  O     O_3   0.193767 0.109193 0.868942 -0.763724
O101  O     O_3   0.805532 0.109261 0.131237 -0.763773
O102  O     O_3   0.647245 0.697153 0.003068 -0.751868
O103  O     O_3   0.353229 0.697088 0.998399 -0.750267
O104  O     O_3   0.200067 0.250657 0.106676 -0.742080
O105  O     O_3   0.802764 0.246896 0.895444 -0.742474
O106  O     O_3   0.971092 0.877094 0.333355 -0.745106
O107  O     O_3   0.028993 0.879236 0.671239 -0.745247
O108  O     O_3   0.471341 0.378861 0.328621 -0.748618
Zn1   Zn    Zn3+2 0.773170 0.726840 0.046290 1.022973
Zn2   Zn    Zn3+2 0.461680 0.500060 0.500210 1.017332
Zn3   Zn    Zn3+2 0.038320 0.000060 0.499790 1.015469
Zn4   Zn    Zn3+2 0.961680 0.000060 0.500210 1.015628
Zn5   Zn    Zn3+2 0.226830 0.726840 0.953710 1.025993
Zn6   Zn    Zn3+2 0.273170 0.226840 0.046290 1.023544
Zn7   Zn    Zn3+2 0.726830 0.226840 0.953710 1.023229
Zn8   Zn    Zn3+2 0.726820 0.773140 0.953570 1.002854
Zn9   Zn    Zn3+2 0.273180 0.773140 0.046430 0.999586
Zn10  Zn    Zn3+2 0.226820 0.273140 0.953570 1.002541
Zn11  Zn    Zn3+2 0.773180 0.273140 0.046430 1.003130
Zn12  Zn    Zn3+2 0.538320 0.500060 0.499790 1.012593

loop_
_geom_bond_atom_site_label_1
_geom_bond_atom_site_label_2
_ccdc_geom_bond_type
C139  O71   S    
C21   C26   S    
C173  N3    A    
H124  N19   S    
C106  O108  S    
O19   Zn9   S    
C8    C26   S    
C107  C112  S    
H175  N37   S    
C17   C48   S    
C104  C108  S    
H29   N50   S    
O27   Zn8   S    
H64   N65   S    
H3    N43   S    
H88   O9    S    
C57   C102  S    
C80   N54   S    
H126  N20   S    
C34   O93   S    
C102  C132  S    
C157  N31   S    
C92   C109  S    
C158  N32   S    
H153  N30   S    
C46   O5    S    
C46   C105  S    
C29   C33   S    
C156  N30   S    
C152  N27   S    
O45   Zn8   S    
H177  N38   S    
H24   N10   S    
C149  C153  A    
C19   C176  S    
H70   O106  S    
C19   C37   S    
C146  C150  A    
C109  C127  S    
C130  C135  T    
C105  O68   S    
C117  O23   A    
H22   O94   S    
C61   O14   A    
C159  N33   S    
C112  C129  S    
H2    N9    S    
C23   O82   S    
C72   O78   S    
C99   C130  S    
O35   Zn7   S    
C93   C110  S    
H4    N44   S    
C61   O98   A    
C176  O100  S    
O13   Zn4   S    
C89   C136  S    
H95   N72   S    
O44   Zn7   S    
O16   Zn4   S    
H41   N57   S    
C143  C148  A    
C31   N63   S    
C85   C144  A    
H15   O86   S    
H141  N26   S    
H138  N25   S    
C25   C29   S    
C11   O92   S    
H48   N58   S    
C84   C133  A    
H36   N53   S    
N45   N56   A    
H114  O60   S    
C28   C32   S    
C35   C104  S    
H35   N11   S    
C65   N9    S    
H96   N73   S    
C24   C76   S    
C23   C176  S    
C94   N74   S    
C132  C137  T    
H93   N71   S    
C167  O33   A    
C120  C155  S    
C125  O61   S    
O49   Zn3   S    
C96   C127  T    
H106  N17   S    
C6    N42   S    
C108  C113  S    
C30   N49   S    
H147  N27   S    
C64   O17   A    
C90   N70   S    
C40   C162  S    
H40   N55   S    
C12   C62   S    
C60   O52   A    
C93   N16   S    
H120  N18   S    
H180  N39   S    
C65   C122  A    
O23   Zn1   S    
H122  N19   S    
H152  N29   S    
H179  N38   S    
O76   Zn2   S    
H149  N28   S    
C22   C27   S    
O14   Zn2   S    
C124  O56   S    
C116  N26   S    
H68   N13   S    
H165  N33   S    
C5    N46   S    
H131  O69   S    
H30   N51   S    
H185  N41   S    
C63   O16   A    
H107  O53   S    
H178  N9    S    
C118  O28   A    
C79   C99   S    
C152  C157  A    
C30   N62   S    
C84   O103  S    
C145  H101  S    
C140  C145  A    
H7    N46   S    
C88   C102  S    
C175  N37   S    
C125  O57   S    
H103  N16   S    
C140  O72   S    
C33   N65   S    
O18   Zn8   S    
C33   C38   S    
H20   O92   S    
H67   O104  S    
C32   N51   S    
H76   O6    S    
H21   O93   S    
H63   N65   S    
C64   O13   A    
C142  C164  A    
C79   N66   S    
H28   N50   S    
C77   C82   A    
C49   C53   T    
C98   C129  T    
O20   Zn10  S    
C51   C55   T    
O2    Zn2   S    
C100  C137  S    
H158  O78   S    
O12   Zn3   S    
C9    O90   S    
C48   C52   T    
H92   N71   S    
C153  N28   S    
C73   C77   A    
C31   C36   S    
C115  N25   S    
H69   O105  S    
O47   Zn10  S    
C18   C49   S    
C110  C128  S    
C35   N18   S    
C118  O24   A    
H38   N54   S    
H116  O62   S    
C106  O69   S    
C68   C103  S    
C69   N13   S    
H84   N69   S    
C117  C122  S    
O34   Zn6   S    
H54   N61   S    
C22   C175  S    
H151  N29   S    
H176  N37   S    
C173  N8    A    
H157  O77   S    
C29   C47   S    
C7    N43   S    
C22   N59   S    
H164  N33   S    
C38   O96   S    
C169  O35   A    
C37   H156  S    
C119  O29   A    
C79   O8    S    
O22   Zn11  S    
C42   C164  S    
N5    N76   A    
H98   N74   S    
H14   O85   S    
C140  C162  A    
C65   C70   A    
H104  N16   S    
C67   C72   A    
C157  C161  A    
C25   N61   S    
C153  C158  A    
H100  N15   S    
H105  N17   S    
H182  N40   S    
C87   C101  S    
H187  N42   S    
C139  C143  A    
C27   C44   S    
C168  O38   A    
H110  O57   S    
H73   O3    S    
H171  O82   S    
H74   O4    S    
O17   Zn3   S    
C38   H167  S    
H79   N14   S    
C111  O43   A    
C57   C106  S    
C22   O81   S    
C116  O66   S    
O87   Zn12  S    
C97   C128  T    
C16   C47   T    
H163  N32   S    
H183  N40   S    
C60   O87   A    
C68   N21   S    
H85   N70   S    
C46   C101  S    
H66   O103  S    
C31   N50   S    
O32   Zn6   S    
C30   C34   S    
C23   N60   S    
O42   Zn6   S    
C156  C160  A    
H170  O81   S    
O21   Zn5   S    
C131  C136  T    
C141  O73   S    
H16   O88   S    
C58   O50   A    
O25   Zn6   S    
H139  N25   S    
H6    N46   S    
C147  C151  A    
C58   C95   S    
H132  O70   S    
C5    C9    S    
C85   O104  S    
C52   C165  S    
H188  N43   S    
C11   O88   S    
C171  N76   A    
H52   N60   S    
C166  N12   A    
H169  O80   S    
C32   C37   S    
C118  C133  S    
N23   N34   A    
C109  C114  S    
H12   O84   S    
C114  C123  S    
C16   C63   S    
C147  H123  S    
C26   C30   S    
C42   O44   A    
C116  C125  S    
H87   O8    S    
O1    Zn1   S    
O28   Zn9   S    
C107  O3    S    
C112  C116  S    
N67   N75   A    
C40   O41   A    
O39   Zn11  S    
C167  O37   A    
C92   N72   S    
C165  O36   A    
C93   N73   S    
C142  C147  A    
C148  C152  A    
C54   C168  S    
C91   N71   S    
C100  O20   A    
H160  N31   S    
C8    O89   S    
H117  O63   S    
C99   C121  S    
C108  C126  S    
H83   N69   S    
O33   Zn5   S    
C154  C159  A    
C104  O67   S    
H9    N47   S    
C95   C126  T    
O31   Zn1   S    
C72   C76   A    
C1    O18   A    
C94   C112  S    
C25   O83   S    
C143  H1    S    
C83   C122  A    
C120  O26   A    
C121  O58   S    
C103  C125  S    
H49   N58   S    
C88   O10   S    
C150  C173  S    
C113  C121  S    
C107  O70   S    
C92   N15   S    
C2    N56   A    
C59   C98   S    
C160  N35   S    
N3    N7    A    
H133  N22   S    
C1    C135  S    
C81   C85   A    
C113  O62   S    
C176  N38   S    
H5    N44   S    
C105  O107  S    
H81   N68   S    
H186  N42   S    
H75   O5    S    
H159  O79   S    
H111  O58   S    
H50   N59   S    
H78   N66   S    
H61   N64   S    
C80   C84   A    
H27   N49   S    
C170  N2    A    
H33   N52   S    
H37   N54   S    
H58   N62   S    
C111  O22   A    
C50   C54   T    
H127  N21   S    
H8    N47   S    
C160  C164  A    
C70   O75   S    
C89   O19   A    
C103  C134  S    
H91   O11   S    
C34   H134  S    
C20   C51   S    
H19   O91   S    
C121  O53   S    
C59   O76   A    
C40   O46   A    
C148  C171  S    
O41   Zn5   S    
O15   Zn12  S    
H99   N74   S    
H55   N61   S    
C3    O101  S    
C174  O97   S    
O52   Zn2   S    
C100  O32   A    
C174  N36   S    
C21   O80   S    
H172  O83   S    
O54   Zn4   S    
C78   C83   A    
C59   O51   A    
C15   C64   S    
C69   C73   A    
C68   C107  S    
C1    O1    A    
O98   Zn12  S    
C57   O6    S    
H77   O7    S    
C87   C92   S    
H150  N28   S    
C119  C144  S    
C24   N23   A    
C169  O39   A    
C102  C124  S    
C67   C144  A    
H166  N35   S    
C90   C94   S    
O48   Zn11  S    
C171  N6    A    
H142  O71   S    
H115  O61   S    
C56   O49   A    
C3    C25   S    
H56   N62   S    
C60   C97   S    
C10   O86   S    
C168  O34   A    
C82   C86   A    
C27   C31   S    
C7    C20   S    
C73   O79   S    
C172  N7    A    
O50   Zn4   S    
C86   C155  A    
H43   O97   S    
C3    N39   S    
C6    C19   S    
H34   N53   S    
C66   C71   A    
C139  C161  A    
C8    O84   S    
H135  N22   S    
H118  O64   S    
C57   N20   S    
C88   N69   S    
C101  C123  S    
C151  C156  A    
C87   N68   S    
C141  C146  A    
C4    C17   S    
C101  C131  S    
C56   O54   A    
H155  O75   S    
C39   O45   A    
C41   C163  S    
C66   N10   S    
C4    N40   S    
H140  N26   S    
N4    N8    A    
C5    N41   S    
H130  O68   S    
C17   C174  S    
C9    C27   S    
C14   C44   T    
C142  O74   S    
H60   N63   S    
C10   C28   S    
C56   C96   S    
C115  C124  S    
C166  N45   A    
H89   O10   S    
C91   C108  S    
C89   O21   A    
C90   O11   S    
C41   O47   A    
C35   O4    S    
H90   N14   S    
C91   N14   S    
C6    C10   S    
C5    C18   S    
H65   O102  S    
C124  O60   S    
H46   N11   S    
C6    N47   S    
C33   N52   S    
C154  N29   S    
H174  N36   S    
C32   N64   S    
H57   N13   S    
H59   N63   S    
C19   C50   S    
H119  O66   S    
C105  C109  S    
C75   C166  S    
H31   N51   S    
C90   C103  S    
H32   N52   S    
C146  H112  S    
C21   C174  S    
C74   C78   A    
O40   Zn1   S    
C68   O7    S    
C18   C36   S    
C110  C115  S    
C55   C169  S    
C145  C149  A    
C21   N58   S    
C111  C138  S    
H128  N21   S    
C81   N55   S    
H137  N24   S    
C114  O63   S    
C4    C8    S    
H102  N15   S    
C2    N1    A    
C13   N34   A    
C7    C11   S    
H154  N30   S    
C36   O94   S    
C69   C155  A    
C83   O102  S    
O38   Zn10  S    
N1    N12   A    
C12   C43   T    
H51   N59   S    
H108  O55   S    
C39   O40   A    
C115  O64   S    
C94   N17   S    
O37   Zn9   S    
C13   N67   A    
C9    O85   S    
C41   O42   A    
C53   C167  S    
H45   O100  S    
H143  O72   S    
H53   N60   S    
H162  N32   S    
C39   C161  S    
C75   C80   A    
N2    N6    A    
H168  N35   S    
C2    C74   S    
H82   N68   S    
C18   C175  S    
H86   N70   S    
C104  O106  S    
O51   Zn12  S    
H10   N48   S    
O24   Zn5   S    
C35   C99   S    
C26   C43   S    
H44   O99   S    
C70   C74   A    
H42   N57   S    
O65   Zn3   S    
C13   C77   S    
C28   C45   S    
C149  C170  S    
O29   Zn10  S    
C3    C20   S    
C78   N53   S    
H71   O107  S    
C158  C162  A    
C63   O12   A    
C58   O65   A    
C37   O95   S    
H26   N49   S    
C14   C61   S    
C67   N11   S    
C151  C172  S    
C82   N57   S    
C42   O48   A    
H184  N41   S    
C71   O77   S    
H11   N48   S    
C66   C133  A    
C20   C38   S    
H80   N66   S    
C10   O91   S    
C123  O59   S    
H125  N20   S    
O46   Zn9   S    
C11   C29   S    
H136  N24   S    
H173  N36   S    
C62   O15   A    
C141  C163  A    
H25   O96   S    
C150  C154  A    
C159  C163  A    
H113  O59   S    
C23   C28   S    
C15   C45   T    
H17   O89   S    
H144  O73   S    
O30   Zn11  S    
C106  C110  S    
C114  N24   S    
H161  N31   S    
C88   C93   S    
H181  N39   S    
H109  O56   S    
H47   O101  S    
C79   C91   S    
H121  N18   S    
C165  O31   A    
H148  N27   S    
H23   O95   S    
C7    N48   S    
O26   Zn7   S    
H146  O74   S    
H62   N64   S    
C76   C81   A    
C134  C138  T    
H39   N55   S    
C170  N5    A    
C62   O2    A    
C86   O105  S    
C24   N75   A    
C71   C75   A    
C175  O99   S    
O36   Zn8   S    
C172  N4    A    
C123  O55   S    
C4    N44   S    
H94   N72   S    
C119  O25   A    
C113  N22   S    
H72   O108  S    
H129  O67   S    
H97   N73   S    
C46   N19   S    
C117  O27   A    
O43   Zn7   S    
C87   O9    S    
C17   C34   S    
C36   H145  S    
H13   N10   S    
C120  O30   A    
H18   O90   S    
