data_mof_unit_36055.cif
_audit_creation_date              2012-12-11T15:52:01-0500
_audit_creation_method            fapswitch 2.2
_symmetry_space_group_name_H-M    P1
_symmetry_Int_Tables_number       1
_space_group_crystal_system       triclinic
_cell_length_a                    8.324826
_cell_length_b                    19.008692
_cell_length_c                    18.965859
_cell_angle_alpha                 98.109741
_cell_angle_beta                  94.802904
_cell_angle_gamma                 92.07864
_cell_volume                      2957.26920219

loop_
_atom_site_label
_atom_site_type_symbol
_atom_type_description
_atom_site_fract_x
_atom_site_fract_y
_atom_site_fract_z
_atom_type_partial_charge
Ba1   Ba    Ba6+2 0.152000 0.534910 0.469330 1.521633
Ba2   Ba    Ba6+2 0.658180 0.465080 0.530610 0.976882
Br1   Br    Br    0.173562 0.622359 0.136117 -0.560726
C1    C     C_3   0.348707 0.680190 0.192423 0.122183
C2    C     C_R   0.987609 0.273653 0.474618 0.063213
C3    C     C_R   0.149634 0.183922 0.556793 -0.114935
C4    C     C_3   0.821115 0.720708 0.256279 0.312490
C5    C     C_R   0.212594 0.252938 0.555886 -0.031178
C6    C     C_R   0.677475 0.809744 0.430932 -0.171631
C7    C     C_R   0.608286 0.742384 0.435179 0.005419
C8    C     C_R   0.856463 0.799353 0.535076 -0.135527
C9    C     C_R   0.824532 0.724898 0.522488 0.068167
C10   C     C_R   0.025464 0.152441 0.504940 0.019069
C11   C     C_R   0.120077 0.299642 0.521836 -0.182408
C12   C     C_3   0.369984 0.666099 0.270314 0.513040
C13   C     C_R   0.795130 0.843408 0.484732 0.004962
C14   C     C_R   0.692853 0.697747 0.475245 -0.230880
C15   C     C_R   0.242402 0.034144 0.532756 -0.059803
C16   C     C_3   0.850391 0.802183 0.260480 0.634268
C17   C     C_R   0.342039 0.985694 0.560107 -0.043109
C18   C     C_R   0.290157 0.915246 0.552111 -0.052803
C19   C     C_R   0.136098 0.895008 0.520715 -0.065074
C20   C     C_R   0.019336 0.945127 0.508403 0.021407
C21   C     C_R   0.075406 0.018404 0.513801 0.079743
C22   C     C_R   0.853720 0.922486 0.487882 0.009058
C23   C     C_3   0.511788 0.680983 0.632268 0.307844
C24   C     C_R   0.747008 0.976606 0.470509 0.046324
C25   C     C_R   0.801911 0.050329 0.479427 0.055515
C26   C     C_R   0.967588 0.072906 0.499297 0.045976
C27   C     C_R   0.582114 0.960596 0.445917 -0.069767
C28   C     C_3   0.712219 0.305855 0.301278 0.689697
C29   C     C_R   0.485618 0.010508 0.419037 -0.020930
C30   C     C_R   0.534730 0.081462 0.433675 -0.074941
C31   C     C_R   0.684066 0.100755 0.470550 -0.053207
C32   C     C_R   0.616068 0.527173 0.300660 -0.222647
C33   C     C_R   0.470177 0.490063 0.274854 0.056282
C34   C     C_3   0.533733 0.761509 0.649213 -0.358250
C35   C     C_R   0.419833 0.482516 0.201693 -0.035379
C36   C     C_R   0.515656 0.511600 0.153835 0.040956
C37   C     C_R   0.663881 0.547768 0.180914 -0.088397
C38   C     C_R   0.712932 0.556210 0.254107 0.028204
C39   C     C_R   0.489511 0.563359 0.038673 -0.042648
C40   C     C_3   0.678866 0.226120 0.302083 -0.319726
C41   C     C_R   0.426534 0.561360 0.967864 -0.029228
C42   C     C_R   0.335087 0.501439 0.931753 0.027531
C43   C     C_R   0.307087 0.443709 0.968823 0.016762
C44   C     C_R   0.367479 0.446304 0.040368 -0.014726
C45   C     C_3   0.015082 0.283392 0.728472 0.277657
C46   C     C_R   0.458783 0.506423 0.076452 0.074281
C47   C     C_R   0.130245 0.461516 0.825866 -0.079910
C48   C     C_R   0.086213 0.452711 0.751873 -0.022472
C49   C     C_R   0.332271 0.518322 0.734826 0.044786
C50   C     C_R   0.376247 0.527535 0.808280 -0.036927
C51   C     C_R   0.278006 0.497678 0.854669 0.067846
C52   C     C_3   0.015789 0.624693 0.693414 0.285442
C53   C     C_R   0.189670 0.479610 0.706783 -0.244830
C54   C     C_3   0.015887 0.643263 0.774124 -0.376444
C55   C     C_3   0.293912 0.322636 0.374354 0.296180
C56   C     C_3   0.015151 0.215153 0.764546 0.709224
C57   C     C_3   0.248716 0.243906 0.351529 -0.369105
C58   C     C_3   0.431254 0.236277 0.706656 0.567471
C59   C     C_3   0.459773 0.160362 0.720297 -0.157175
C60   C     C_R   0.956884 0.199142 0.459077 -0.188538
H1    H     H_    0.300096 0.617436 0.276976 0.066271
H2    H     H_    0.191412 0.348902 0.398571 0.039072
H3    H     H_    0.399781 0.328000 0.414488 0.084023
H4    H     H_    0.127106 0.237127 0.321844 0.146932
H5    H     H_    0.248875 0.216062 0.399058 0.060201
H6    H     H_    0.336992 0.218930 0.316491 0.144289
H7    H     H_    0.498197 0.656591 0.283077 -0.256619
H8    H     H_    0.461522 0.668922 0.166815 0.008219
H9    H     H_    0.625385 0.659298 0.614130 0.018187
H10   H     H_    0.413487 0.668000 0.588608 0.088930
H11   H     H_    0.637522 0.776510 0.689967 0.148387
H12   H     H_    0.642377 0.216383 0.354877 0.050451
H13   H     H_    0.556910 0.784169 0.600058 0.050529
H14   H     H_    0.422684 0.784097 0.669830 0.139289
H15   H     H_    0.325160 0.736533 0.189130 0.226036
H16   H     H_    0.043622 0.270455 0.672417 -0.094923
H17   H     H_    0.114049 0.318984 0.758017 0.019652
H18   H     H_    0.141875 0.200586 0.769248 -0.044474
H19   H     H_    0.303110 0.238881 0.688722 -0.310632
H20   H     H_    0.368008 0.141274 0.753167 0.118778
H21   H     H_    0.579303 0.158076 0.749475 0.245395
H22   H     H_    0.728409 0.713208 0.293369 -0.107566
H23   H     H_    0.578827 0.204993 0.261358 0.144835
H24   H     H_    0.453562 0.124068 0.668773 0.090912
H25   H     H_    0.874381 0.178466 0.413477 0.072391
H26   H     H_    0.203247 0.155325 0.596888 0.096959
H27   H     H_    0.633583 0.836171 0.387428 0.147288
H28   H     H_    0.936774 0.821375 0.581339 0.080785
H29   H     H_    0.159258 0.355174 0.527255 0.080025
H30   H     H_    0.650342 0.642940 0.472876 0.078544
H31   H     H_    0.303136 0.082082 0.523402 0.057796
H32   H     H_    0.466183 0.001216 0.579373 0.105545
H33   H     H_    0.373305 0.875591 0.565131 0.086073
H34   H     H_    0.788042 0.196384 0.290009 0.124803
H35   H     H_    0.775422 0.697577 0.200815 0.039627
H36   H     H_    0.111802 0.839425 0.505517 0.128458
H37   H     H_    0.518391 0.912003 0.451215 0.074808
H38   H     H_    0.363647 0.995331 0.396066 0.094163
H39   H     H_    0.451821 0.121669 0.421886 0.091003
H40   H     H_    0.704968 0.155582 0.492330 0.136297
H41   H     H_    0.490041 0.555523 0.828325 0.061401
H42   H     H_    0.448748 0.607327 0.941634 0.077551
H43   H     H_    0.558418 0.610765 0.064242 0.092178
H44   H     H_    0.305380 0.454634 0.182602 0.098704
H45   H     H_    0.140744 0.616258 0.679722 0.021928
H46   H     H_    0.241279 0.395846 0.942179 0.160410
H47   H     H_    0.879200 0.825424 0.317400 -0.091084
H48   H     H_    0.344492 0.400713 0.067048 0.136016
H49   H     H_    0.050248 0.440013 0.860443 0.120316
H50   H     H_    0.742572 0.568493 0.145290 0.093739
H51   H     H_    0.156377 0.472423 0.649753 0.078112
H52   H     H_    0.656189 0.532021 0.356943 0.086337
H53   H     H_    0.615990 0.337299 0.324620 -0.006556
H54   H     H_    0.527273 0.831277 0.125907 0.379972
H55   H     H_    0.836980 0.186791 0.618135 0.334627
H56   H     H_    0.937882 0.575657 0.675535 0.074798
H57   H     H_    0.765694 0.203927 0.916084 0.397327
H58   H     H_    0.462483 0.382994 0.725805 0.346746
H59   H     H_    0.168703 0.872299 0.306164 0.323632
H60   H     H_    0.921344 0.396020 0.221381 0.366133
H61   H     H_    0.094961 0.691624 0.793484 0.156253
H62   H     H_    0.060972 0.599089 0.801155 0.060892
H63   H     H_    0.891250 0.653310 0.788480 0.153439
O1    O     O_2   0.116570 0.673370 0.549300 -0.460771
O2    O     O_2   0.750953 0.442703 0.742193 -0.420967
O3    O     O_3   0.866951 0.316630 0.729243 -0.486254
O4    O     O_3   0.869340 0.584760 0.542960 -0.473694
O5    O     O_3   0.436600 0.464450 0.413780 -0.488836
O6    O     O_2   0.628980 0.533090 0.672420 -0.445899
O7    O     O_3   0.473215 0.653587 0.693970 -0.630780
O8    O     O_2   0.521964 0.245970 0.517745 -0.480598
O9    O     O_3   0.536220 0.255593 0.657092 -0.514266
O10   O     O_3   0.352540 0.630870 0.419750 -0.470491
O11   O     O_2   0.284026 0.760854 0.452194 -0.493513
O12   O     O_3   0.330899 0.352809 0.314202 -0.591336
O13   O     O_3   0.957136 0.681958 0.662352 -0.621455
O14   O     O_3   0.321777 0.724409 0.316511 -0.506645
O15   O     O_2   0.181320 0.466870 0.327560 -0.429458
O16   O     O_3   0.937730 0.595370 0.381630 -0.444633
O17   O     O_2   0.042837 0.553352 0.257402 -0.432607
O18   O     O_2   0.529963 0.819959 0.264553 -0.350806
O19   O     O_2   0.694433 0.921148 0.240798 -0.224762
O20   O     O_3   0.635027 0.813994 0.138976 -0.473895
O21   O     O_2   0.036292 0.094368 0.673430 -0.341999
O22   O     O_2   0.832630 0.091633 0.756841 -0.190291
O23   O     O_3   0.962042 0.687133 0.277286 -0.555544
O24   O     O_3   0.775676 0.160627 0.649457 -0.502903
O25   O     O_2   0.086968 0.194205 0.900523 -0.209430
O26   O     O_2   0.969373 0.307150 0.883490 -0.289866
O27   O     O_3   0.780644 0.192954 0.864492 -0.419912
O28   O     O_2   0.366865 0.274785 0.844316 -0.256540
O29   O     O_2   0.640055 0.302451 0.815922 -0.140989
O30   O     O_3   0.413188 0.376793 0.770323 -0.542469
O31   O     O_2   0.029113 0.771946 0.148201 -0.219825
O32   O     O_2   0.990537 0.897499 0.186797 -0.186249
O33   O     O_3   0.186320 0.834339 0.266484 -0.449302
O34   O     O_2   0.693730 0.326590 0.450680 -0.480490
O35   O     O_2   0.804693 0.265429 0.168723 -0.236362
O36   O     O_2   0.544364 0.320555 0.176978 -0.268952
O37   O     O_3   0.805339 0.401768 0.208334 -0.518959
O38   O     O_3   0.940960 0.415230 0.456980 -0.441440
O39   O     O_3   0.457750 0.369120 0.580200 -0.438486
O40   O     O_3   0.863104 0.329643 0.337041 -0.644616
O41   O     O_3   0.373690 0.535540 0.586160 -0.463770
O42   O     O_3   0.872560 0.404620 0.618320 -0.453335
P1    P     P_3+3 0.945400 0.662120 0.569160 0.995533
P2    P     P_3+3 0.355390 0.445380 0.336430 1.031830
P3    P     P_3+3 0.910670 0.598971 0.290127 1.045791
P4    P     P_3+3 0.864900 0.337880 0.430780 0.989192
P5    P     P_3+3 0.896061 0.404620 0.711330 1.091453
P6    P     P_3+3 0.395013 0.716654 0.404141 1.002992
P7    P     P_3+3 0.452898 0.560747 0.674505 0.967631
P8    P     P_3+3 0.428484 0.278314 0.580360 0.977483
S1    S     S_3+6 0.671566 0.841427 0.227321 -0.061028
S2    S     S_3+6 0.913570 0.137910 0.710965 -0.036122
S3    S     S_3+6 0.964162 0.228934 0.855881 0.071685
S4    S     S_3+6 0.466108 0.296977 0.787933 -0.013473
S5    S     S_3+6 0.015054 0.826891 0.212179 0.037956
S6    S     S_3+6 0.714589 0.321830 0.210621 -0.037332

loop_
_geom_bond_atom_site_label_1
_geom_bond_atom_site_label_2
_ccdc_geom_bond_type
C7    P6    S    
C59   H20   S    
O27   S3    S    
O5    P2    S    
O40   P4    S    
H58   O30   S    
O28   S4    D    
C60   H25   S    
O12   P2    S    
C23   H9    S    
C32   C33   A    
C29   H38   S    
C34   H11   S    
C16   S5    S    
C44   C46   A    
C52   H56   S    
C50   C51   A    
O29   S4    D    
O39   P8    S    
C38   P3    S    
O2    P5    D    
C47   C51   A    
O8    P8    D    
C45   C56   S    
C15   C21   A    
C45   H16   S    
C10   C26   S    
C25   C26   A    
C4    H35   S    
C6    C13   A    
O36   S6    D    
C58   H19   S    
C54   H62   S    
C35   C36   A    
Ba1   O41   S    
C50   H41   S    
C55   C57   S    
C27   H37   S    
Ba1   P2    S    
O35   S6    D    
C23   H10   S    
C52   O13   S    
C2    C60   A    
C48   P5    S    
Ba1   Ba2   S    
Ba1   P1    S    
C35   H44   S    
H55   O24   S    
C21   C26   A    
O15   P2    D    
O22   S2    D    
Ba1   O16   S    
C4    O23   S    
O4    P1    S    
C55   H3    S    
Ba1   O38   S    
C9    C14   A    
Ba2   O6    S    
H59   O33   S    
C32   H52   S    
Ba1   O10   S    
C6    C7    A    
C16   S1    S    
O24   S2    S    
C55   O12   S    
C25   C31   A    
C18   C19   A    
C24   C27   A    
O3    P5    S    
C39   C41   A    
C40   H34   S    
C47   C48   A    
C40   H12   S    
O42   P5    S    
O10   P6    S    
Ba2   O5    S    
C30   H39   S    
C56   H18   S    
C57   H4    S    
Ba1   O4    S    
Ba2   O38   S    
C36   C37   A    
O31   S5    D    
O18   S1    D    
C3    C5    A    
C39   C46   A    
C42   C43   A    
C34   H14   S    
O20   S1    S    
H54   O20   S    
O6    P7    D    
C48   C53   A    
C1    H15   S    
H60   O37   S    
C8    C13   A    
C55   H2    S    
O25   S3    D    
C37   H50   S    
C10   C60   A    
C28   O40   S    
C12   H1    S    
C47   H49   S    
C30   C31   A    
O34   P4    D    
O33   S5    S    
O7    P7    S    
C49   P7    S    
C11   H29   S    
C2    C11   A    
C28   C40   S    
C53   H51   S    
Ba2   O34   S    
C37   C38   A    
C36   C46   S    
C34   H13   S    
C42   C51   S    
C4    C16   S    
C52   C54   S    
C28   S6    S    
C15   H31   S    
C45   O3    S    
O38   P4    S    
C22   C24   A    
Br1   C1    S    
Ba2   O42   S    
C28   H53   S    
C54   H63   S    
C49   C50   A    
C58   O9    S    
C41   H42   S    
O41   P7    S    
C12   O14   S    
C16   H47   S    
C13   C22   S    
C12   H7    S    
C59   H21   S    
C43   C44   A    
C5    C11   A    
C19   H36   S    
O23   P3    S    
C40   H23   S    
C17   H32   S    
C56   S2    S    
C41   C42   A    
Ba1   O1    S    
Ba1   O5    S    
C6    H27   S    
C8    C9    A    
C5    P8    S    
C23   C34   S    
C9    P1    S    
C18   H33   S    
O1    P1    D    
C3    H26   S    
C59   H24   S    
C33   P2    S    
C31   H40   S    
C52   H45   S    
C29   C30   A    
C45   H17   S    
C1    C12   S    
C33   C35   A    
O17   P3    D    
O11   P6    D    
C23   O7    S    
O9    P8    S    
C3    C10   A    
C27   C29   A    
O30   S4    S    
O21   S2    D    
C4    H22   S    
C57   H6    S    
O26   S3    D    
C44   H48   S    
C56   S3    S    
H57   O27   S    
Ba2   O4    S    
C2    P4    S    
O13   P1    S    
C15   C17   A    
C20   C22   A    
C58   C59   S    
C32   C38   A    
O32   S5    D    
Ba1   O15   S    
C20   C21   A    
C39   H43   S    
C8    H28   S    
C14   H30   S    
C17   C18   A    
C57   H5    S    
C58   S4    S    
O14   P6    S    
C43   H46   S    
O19   S1    D    
C24   C25   A    
Ba2   O39   S    
C19   C20   A    
C7    C14   A    
Ba2   O41   S    
C1    H8    S    
C49   C53   A    
C54   H61   S    
Ba2   P4    S    
O16   P3    S    
O37   S6    S    
