data_mof_unit_53879.cif
_audit_creation_date              2012-12-11T14:51:40-0500
_audit_creation_method            fapswitch 2.2
_symmetry_space_group_name_H-M    P1
_symmetry_Int_Tables_number       1
_space_group_crystal_system       triclinic
_cell_length_a                    6.965365
_cell_length_b                    16.749606
_cell_length_c                    16.899103
_cell_angle_alpha                 101.254239
_cell_angle_beta                  91.61689
_cell_angle_gamma                 90.25401
_cell_volume                      1932.78879059

loop_
_atom_site_label
_atom_site_type_symbol
_atom_type_description
_atom_site_fract_x
_atom_site_fract_y
_atom_site_fract_z
_atom_type_partial_charge
O1    O     O_R   0.506340 0.439070 0.579550 -0.541401
O2    O     O_R   0.170010 0.404890 0.412100 -0.539693
O3    O     O_R   0.005010 0.560930 0.420450 -0.539625
C1    C     C_R   0.338508 0.382345 0.382482 0.700386
O4    O     O_R   0.176280 0.429360 0.578400 -0.540092
O5    O     O_R   0.011320 0.585570 0.587940 -0.543637
C2    C     C_R   0.347941 0.414357 0.605696 0.726689
O6    O     O_R   0.500030 0.414430 0.412060 -0.536015
O7    O     O_3   0.340950 0.551220 0.502940 -0.368050
V1    V     V_3+5 0.064020 0.490500 0.499460 1.373479
O8    O     O_R   0.681910 0.595110 0.587900 -0.539360
C3    C     C_R   0.853244 0.619422 0.615803 0.674185
O9    O     O_R   0.675640 0.570640 0.421600 -0.534809
C4    C     C_R   0.842701 0.587122 0.395769 0.693573
V2    V     V_3+5 0.564670 0.509500 0.500540 1.382042
O10   O     O_3   0.837610 0.448780 0.497060 -0.368579
C5    C     C_R   0.921238 0.865757 0.170655 -0.087889
C6    C     C_R   0.847897 0.641067 0.335523 -0.078767
C7    C     C_R   0.759399 0.660801 0.200020 -0.168696
C8    C     C_R   0.763140 0.612568 0.258862 -0.210706
C9    C     C_R   0.929506 0.720875 0.353844 0.096364
C10   C     C_R   0.933880 0.768362 0.291853 0.090823
C11   C     C_R   0.843542 0.738677 0.215624 0.123432
C12   C     C_R   0.837826 0.787307 0.155953 -0.251748
C13   C     C_R   0.011668 0.895751 0.246851 0.126727
C14   C     C_R   0.022930 0.845730 0.304623 -0.188682
H1    H     H_    0.769851 0.763794 0.097469 0.112502
H2    H     H_    0.690674 0.636876 0.141845 0.119573
H3    H     H_    0.099070 0.869597 0.360762 0.145505
H4    H     H_    0.698141 0.552366 0.244573 0.115717
C15   C     C_3   0.779147 0.815439 0.733048 0.217686
C16   C     C_3   0.950501 0.776914 0.684344 -0.192925
H5    H     H_    0.012507 0.796331 0.631621 0.120913
C17   C     C_3   0.869310 0.690999 0.686033 -0.055407
C18   C     C_3   0.697520 0.729831 0.733659 0.178785
C19   C     C_3   0.808420 0.728244 0.814023 -0.230373
C20   C     C_3   0.982141 0.689797 0.765892 -0.146440
C21   C     C_3   0.062676 0.776275 0.764737 -0.143923
C22   C     C_3   0.890927 0.813511 0.812206 -0.046044
H6    H     H_    0.748684 0.708843 0.867574 0.110076
H7    H     H_    0.066805 0.638288 0.779824 0.116855
H8    H     H_    0.202678 0.806842 0.781831 0.128292
C23   C     C_3   0.554046 0.280710 0.278078 0.167512
C24   C     C_3   0.483006 0.192794 0.272645 0.213140
C25   C     C_3   0.411649 0.190577 0.185548 -0.070237
C26   C     C_3   0.483267 0.278865 0.190110 -0.199208
C27   C     C_3   0.286133 0.310575 0.222951 0.159091
C28   C     C_3   0.212992 0.222186 0.217103 -0.149277
C29   C     C_3   0.286236 0.224475 0.305337 -0.212652
C30   C     C_3   0.357081 0.312928 0.310545 -0.103003
H9    H     H_    0.565417 0.301503 0.143467 0.113186
H10   H     H_    0.072889 0.196825 0.190512 0.124580
H11   H     H_    0.203129 0.204259 0.352708 0.124376
C31   C     C_R   0.394835 0.133249 0.829367 -0.098636
C32   C     C_R   0.370508 0.361442 0.667353 -0.096153
C33   C     C_R   0.540478 0.333077 0.787309 -0.201851
C34   C     C_R   0.489153 0.388006 0.737687 0.119499
C35   C     C_R   0.296802 0.280109 0.652010 0.050284
C36   C     C_R   0.312918 0.233047 0.714144 0.106659
C37   C     C_R   0.453754 0.256428 0.776771 0.064309
C38   C     C_R   0.498844 0.205252 0.831662 -0.225239
C39   C     C_R   0.242306 0.113944 0.772581 -0.164616
C40   C     C_R   0.194752 0.164146 0.717465 0.163411
H12   H     H_    0.607583 0.223664 0.879001 0.121451
H13   H     H_    0.151663 0.061486 0.774263 0.125245
H14   H     H_    0.638843 0.352475 0.838444 0.120472
O11   O     O_R   0.266070 0.085680 0.087850 -0.542145
O12   O     O_R   0.590090 0.070660 0.921580 -0.538801
O13   O     O_R   0.754780 0.914400 0.912080 -0.536116
C41   C     C_R   0.418609 0.084911 0.893874 0.704344
O14   O     O_R   0.596110 0.095130 0.087880 -0.541042
O15   O     O_R   0.760850 0.939050 0.079570 -0.532051
C42   C     C_R   0.427733 0.119247 0.115808 0.704921
O16   O     O_R   0.260010 0.061030 0.920360 -0.539419
O17   O     O_3   0.425070 0.948840 0.997010 -0.367346
V3    V     V_3+5 0.702100 0.009490 0.000550 1.402239
O18   O     O_R   0.090200 0.929250 0.078500 -0.541398
C43   C     C_R   0.923240 0.913537 0.105003 0.691737
O19   O     O_R   0.084180 0.904770 0.912200 -0.546601
C44   C     C_R   0.912188 0.882207 0.883443 0.695673
V4    V     V_3+5 0.201420 0.990350 0.999580 1.397703
O20   O     O_3   0.928580 0.051150 0.002990 -0.370226
C45   C     C_3   0.600925 0.126358 0.299461 -0.835369
H15   H     H_    0.649805 0.146304 0.363297 0.216500
H16   H     H_    0.513424 0.069998 0.293088 0.205173
H17   H     H_    0.728262 0.113930 0.261110 0.220854
C46   C     C_3   0.752491 0.310916 0.310797 -0.712345
H18   H     H_    0.862307 0.275526 0.273692 0.192031
H19   H     H_    0.769664 0.376203 0.308163 0.197383
H20   H     H_    0.772360 0.302548 0.374044 0.214871
C47   C     C_3   0.175237 0.379023 0.195031 -0.362565
C48   C     C_3   0.105662 0.354161 0.107247 -0.754563
H21   H     H_    0.229240 0.337419 0.067405 0.224183
H22   H     H_    0.004494 0.301616 0.100077 0.222119
H23   H     H_    0.029586 0.405874 0.088526 0.215032
H24   H     H_    0.050023 0.395313 0.233785 0.176060
H25   H     H_    0.270342 0.433489 0.201749 0.171443
C49   C     C_3   0.092183 0.981755 0.270383 -0.339860
C50   C     C_3   0.005793 0.027370 0.348615 -0.793941
H26   H     H_    0.850282 0.013059 0.350052 0.242077
H27   H     H_    0.079627 0.010605 0.402045 0.222777
H28   H     H_    0.022653 0.093793 0.353284 0.218570
H29   H     H_    0.250297 0.978755 0.278983 0.173431
H30   H     H_    0.063569 0.017914 0.222977 0.175160
C51   C     C_3   0.998689 0.150240 0.676238 -0.834990
H31   H     H_    0.890430 0.140322 0.720531 0.222605
H32   H     H_    0.948913 0.203756 0.651916 0.214734
H33   H     H_    0.000232 0.095290 0.627377 0.206444
C52   C     C_3   0.555870 0.475481 0.764872 -0.356342
C53   C     C_3   0.391435 0.527025 0.803998 -0.807652
H34   H     H_    0.275301 0.529684 0.758326 0.214863
H35   H     H_    0.332809 0.500502 0.853755 0.237923
H36   H     H_    0.443974 0.589571 0.829818 0.211221
H37   H     H_    0.676136 0.479934 0.810276 0.174040
H38   H     H_    0.613126 0.500987 0.714569 0.182493
C54   C     C_3   0.250257 0.238219 0.565003 -0.379116
C55   C     C_3   0.433200 0.224699 0.516356 -0.774820
H39   H     H_    0.486894 0.282299 0.501697 0.227848
H40   H     H_    0.547343 0.198242 0.550356 0.233477
H41   H     H_    0.402456 0.181035 0.459152 0.219029
H42   H     H_    0.187746 0.176863 0.560504 0.203661
H43   H     H_    0.144870 0.273691 0.535878 0.184767
C56   C     C_3   0.993647 0.758089 0.440297 -0.368956
C57   C     C_3   0.850592 0.822369 0.478969 -0.783137
H44   H     H_    0.804730 0.862803 0.437357 0.237146
H45   H     H_    0.720947 0.792018 0.496674 0.219956
H46   H     H_    0.917305 0.861570 0.533290 0.214206
H47   H     H_    0.006159 0.712350 0.479405 0.175600
H48   H     H_    0.140209 0.784620 0.441697 0.168183
C58   C     C_3   0.674503 0.890264 0.716145 -0.811431
H49   H     H_    0.627560 0.880462 0.651687 0.210210
H50   H     H_    0.548098 0.902530 0.755088 0.208132
H51   H     H_    0.773021 0.943793 0.729255 0.199049
C59   C     C_3   0.492478 0.699432 0.715580 -0.355286
C60   C     C_3   0.404203 0.729367 0.642745 -0.682408
H52   H     H_    0.506322 0.724518 0.592891 0.219378
H53   H     H_    0.275770 0.692200 0.619660 0.232070
H54   H     H_    0.361293 0.793809 0.659660 0.199702
H55   H     H_    0.489216 0.632244 0.703387 0.195315
H56   H     H_    0.411586 0.717802 0.770894 0.158510

loop_
_geom_bond_atom_site_label_1
_geom_bond_atom_site_label_2
_ccdc_geom_bond_type
C24   C29   S    
C60   H54   S    
C46   H18   S    
O17   V3    S    
C17   C20   S    
C4    C6    S    
C58   H50   S    
C7    C8    A    
C12   H1    S    
C2    C32   S    
C1    O6    A    
C24   C45   S    
V4    O20   S    
C60   H52   S    
C8    H4    S    
C25   C26   S    
C33   C34   A    
C51   H32   S    
C20   C21   S    
C54   H43   S    
C57   H45   S    
C19   C20   S    
C21   H8    S    
C15   C58   S    
C55   H40   S    
C59   H56   S    
C21   C22   S    
C49   C50   S    
C29   H11   S    
V2    O10   S    
C6    C9    A    
C54   C55   S    
O13   V3    S    
C25   C42   S    
C17   C18   S    
C53   H34   S    
C5    C43   S    
O15   C43   A    
C47   H24   S    
O8    V2    S    
C34   C52   S    
C45   H15   S    
C41   O16   A    
C11   C12   A    
O11   C42   A    
C16   C21   S    
C40   C51   S    
O7    V1    S    
O15   V3    S    
C36   C37   A    
O9    C4    A    
C56   H48   S    
C35   C54   S    
C18   C59   S    
C23   C26   S    
C27   C30   S    
C19   C22   S    
C51   H33   S    
C5    C12   A    
C54   H42   S    
C27   C28   S    
C56   C57   S    
C55   H41   S    
V3    O20   S    
C47   C48   S    
O19   V4    S    
C7    C11   A    
O17   V4    S    
C31   C39   A    
C13   C14   A    
O18   C43   A    
C26   H9    S    
C48   H23   S    
C33   C37   A    
C1    C30   S    
C37   C38   A    
C18   C19   S    
C16   C17   S    
C9    C56   S    
C38   H12   S    
O2    C1    A    
C23   C24   S    
C39   C40   A    
C50   H26   S    
C31   C41   S    
O9    V2    S    
C19   H6    S    
C50   H28   S    
C48   H22   S    
C47   H25   S    
C7    H2    S    
C53   H36   S    
O3    C4    A    
C52   H37   S    
C57   H46   S    
O1    V2    S    
C28   C29   S    
C45   H16   S    
O11   V4    S    
O6    V2    S    
C32   C34   A    
C15   C18   S    
C46   H20   S    
C58   H51   S    
O16   V4    S    
C3    C17   S    
O2    V1    S    
C59   H55   S    
C24   C25   S    
O4    C2    A    
C25   C28   S    
C60   H53   S    
C26   C27   S    
C39   H13   S    
C50   H27   S    
O1    C2    A    
C27   C47   S    
C15   C16   S    
O5    V1    S    
O8    C3    A    
C23   C30   S    
C59   C60   S    
C31   C38   A    
O12   V3    S    
C51   H31   S    
C36   C40   A    
C9    C10   A    
C23   C46   S    
C22   C44   S    
C46   H19   S    
C58   H49   S    
C35   C36   A    
C5    C13   A    
O4    V1    S    
O3    V1    S    
V1    O10   S    
C55   H39   S    
C16   H5    S    
O5    C3    A    
C56   H47   S    
O14   V3    S    
C33   H14   S    
C48   H21   S    
C15   C22   S    
C6    C8    A    
C20   H7    S    
O18   V4    S    
C53   H35   S    
C52   H38   S    
O19   C44   A    
C13   C49   S    
C28   H10   S    
C45   H17   S    
C14   H3    S    
O12   C41   A    
C29   C30   S    
C10   C14   A    
C32   C35   A    
O14   C42   A    
C10   C11   A    
O13   C44   A    
C52   C53   S    
C49   H30   S    
C49   H29   S    
O7    V2    S    
C57   H44   S    
