data_mof_unit_24137.cif
_audit_creation_date              2012-12-10T20:31:56-0500
_audit_creation_method            fapswitch 2.2
_symmetry_space_group_name_H-M    P1
_symmetry_Int_Tables_number       1
_space_group_crystal_system       triclinic
_cell_length_a                    9.899339
_cell_length_b                    10.67456
_cell_length_c                    15.478285
_cell_angle_alpha                 90.323772
_cell_angle_beta                  67.267288
_cell_angle_gamma                 89.457944
_cell_volume                      1508.4050296

loop_
_atom_site_label
_atom_site_type_symbol
_atom_type_description
_atom_site_fract_x
_atom_site_fract_y
_atom_site_fract_z
_atom_type_partial_charge
C1    C     C_R   0.499436 0.739718 0.500088 0.912919
C2    C     C_R   0.402991 0.456829 0.917484 0.104192
C3    C     C_R   0.259657 0.498954 0.974105 0.122745
C4    C     C_R   0.503980 0.426028 0.959021 0.086541
C5    C     C_R   0.467266 0.457637 0.054208 0.089846
C6    C     C_R   0.321067 0.493612 0.109914 -0.182185
C7    C     C_R   0.218447 0.511702 0.070415 -0.152576
C8    C     C_R   0.639851 0.364969 0.909075 -0.193509
C9    C     C_R   0.739851 0.342475 0.950457 -0.114354
C10   C     C_R   0.711066 0.385044 0.041524 0.061015
C11   C     C_R   0.576638 0.448666 0.091662 0.057511
C12   C     C_R   0.407459 0.499518 0.676502 0.978634
C13   C     C_R   0.811735 0.364343 0.084809 0.371768
C14   C     C_R   0.778906 0.408752 0.175985 -0.260613
C15   C     C_R   0.554863 0.502607 0.178224 -0.195008
C16   C     C_R   0.370143 0.938738 0.538706 -0.069321
C17   C     C_R   0.500577 0.871683 0.495513 -0.012067
C18   C     C_R   0.631065 0.933267 0.443584 -0.195978
C19   C     C_R   0.632290 0.062959 0.443155 -0.178052
C20   C     C_R   0.503013 0.128811 0.494708 -0.003473
C21   C     C_R   0.371898 0.066519 0.538345 -0.015816
C22   C     C_3   0.259947 0.078687 0.636317 0.192767
C23   C     C_R   0.501293 0.260520 0.498779 0.927499
C24   C     C_3   0.258069 0.935722 0.637380 0.217786
C25   C     C_R   0.888250 0.566492 0.566116 0.207206
C26   C     C_R   0.963595 0.424002 0.441196 -0.196845
C27   C     C_R   0.107000 0.423084 0.441293 0.396075
C28   C     C_R   0.030221 0.566195 0.566331 0.220439
C29   C     C_3   0.023223 0.703856 0.583551 -0.495046
C30   C     C_3   0.870510 0.704206 0.582625 -0.464982
C31   C     C_R   0.592100 0.498035 0.323856 0.893365
C32   C     C_R   0.347679 0.493456 0.779202 -0.120374
C33   C     C_R   0.649019 0.476427 0.222949 -0.114269
C34   C     C_R   0.159671 0.530226 0.933624 -0.152426
C35   C     C_R   0.201933 0.526853 0.836703 0.437607
C36   C     C_R   0.444359 0.455734 0.820444 -0.250313
H1    H     H_    0.107783 0.540112 0.115053 0.151095
H2    H     H_    0.731678 0.881518 0.405847 0.156389
H3    H     H_    0.733525 0.111322 0.405117 0.162384
H4    H     H_    0.156002 0.121274 0.638032 0.104050
H5    H     H_    0.151718 0.899671 0.641178 0.083434
H6    H     H_    0.938479 0.364549 0.392643 0.180236
H7    H     H_    0.022226 0.725756 0.653881 0.259846
H8    H     H_    0.461457 0.562980 0.214074 0.158235
H9    H     H_    0.104021 0.756028 0.524402 0.206995
H10   H     H_    0.783235 0.728091 0.651807 0.235040
H11   H     H_    0.863186 0.755518 0.522235 0.217583
H12   H     H_    0.851101 0.385517 0.211412 0.186052
H13   H     H_    0.840855 0.293405 0.909662 0.218931
H14   H     H_    0.049162 0.560182 0.977395 0.172346
H15   H     H_    0.555296 0.432061 0.775100 0.176090
H16   H     H_    0.281793 0.504653 0.185032 0.171612
H17   H     H_    0.669316 0.328317 0.838995 0.164135
N1    N     N_R   0.856900 0.500860 0.500610 -0.134388
N2    N     N_R   0.142540 0.500820 0.500610 -0.147360
O1    O     O_R   0.385310 0.683210 0.499990 -0.624968
O2    O     O_R   0.614650 0.683240 0.500000 -0.622120
O3    O     O_R   0.319830 0.499970 0.632240 -0.552833
O4    O     O_R   0.549170 0.500000 0.632250 -0.618825
O5    O     O_R   0.385350 0.316760 0.500000 -0.571337
O6    O     O_R   0.614690 0.316790 0.500010 -0.623102
O7    O     O_R   0.450830 0.500000 0.367750 -0.571275
O8    O     O_R   0.680170 0.500030 0.367760 -0.632858
Zn1   Zn    Zn3+2 0.346870 0.499980 0.499990 1.033048
Zn2   Zn    Zn3+2 0.653130 0.500020 0.500010 0.963215
Cl1   Cl    Cl    0.972602 0.273214 0.031517 -0.585993
Cl2   Cl    Cl    0.327472 0.153121 0.715768 -0.508721
Cl3   Cl    Cl    0.323528 0.860924 0.717599 -0.503032
Cl4   Cl    Cl    0.236644 0.320157 0.363047 -0.604597
Cl5   Cl    Cl    0.069337 0.570804 0.792500 -0.610015

loop_
_geom_bond_atom_site_label_1
_geom_bond_atom_site_label_2
_ccdc_geom_bond_type
C8    H17   S    
C8    C9    A    
C2    C4    A    
O1    Zn1   S    
C16   C21   A    
C1    O2    A    
C2    C3    A    
C9    C10   A    
C27   N2    A    
C1    C17   S    
C19   C20   A    
C27   Cl4   S    
C20   C23   S    
O5    Zn1   S    
C4    C8    A    
C12   O3    A    
N2    Zn1   S    
C20   C21   A    
C14   C33   A    
C31   C33   S    
C17   C18   A    
C7    H1    S    
C18   H2    S    
C22   H4    S    
C16   C24   S    
N1    Zn2   S    
C21   C22   S    
C12   C32   S    
C25   C28   A    
C24   H5    S    
C31   O7    A    
C26   C27   A    
C29   C30   S    
C36   H15   S    
C19   H3    S    
C34   C35   A    
C5    C6    A    
C32   C36   A    
C22   C24   S    
C28   C29   S    
C28   N2    A    
C15   C33   A    
C15   H8    S    
C5    C11   A    
C6    C7    A    
C3    C7    A    
C13   Cl1   S    
O6    Zn2   S    
O3    Zn1   S    
C23   O5    A    
C26   N1    A    
O8    Zn2   S    
C22   Cl2   S    
C34   H14   S    
C29   H9    S    
C16   C17   A    
C10   C11   A    
C24   Cl3   S    
C32   C35   A    
C31   O8    A    
C30   H11   S    
C23   O6    A    
C9    H13   S    
C25   N1    A    
C26   H6    S    
O4    Zn2   S    
C1    O1    A    
C2    C36   A    
C25   C30   S    
C14   H12   S    
C18   C19   A    
O7    Zn1   S    
C3    C34   A    
C6    H16   S    
C13   C14   A    
C12   O4    A    
C11   C15   A    
C30   H10   S    
C29   H7    S    
C35   Cl5   S    
O2    Zn2   S    
C4    C5    A    
C10   C13   A    
