data_mof_unit_52988.cif
_audit_creation_date              2012-12-11T15:43:03-0500
_audit_creation_method            fapswitch 2.2
_symmetry_space_group_name_H-M    P1
_symmetry_Int_Tables_number       1
_space_group_crystal_system       triclinic
_cell_length_a                    19.121991
_cell_length_b                    10.978598
_cell_length_c                    18.749998
_cell_angle_alpha                 89.940771
_cell_angle_beta                  89.906432
_cell_angle_gamma                 89.726224
_cell_volume                      3936.18455146

loop_
_atom_site_label
_atom_site_type_symbol
_atom_type_description
_atom_site_fract_x
_atom_site_fract_y
_atom_site_fract_z
_atom_type_partial_charge
C1    C     C_R   0.725336 0.365548 0.141718 0.551132
C2    C     C_R   0.270105 0.375454 0.854250 0.546103
C3    C     C_R   0.211492 0.829395 0.138709 0.568655
C4    C     C_R   0.769805 0.876166 0.853859 0.545986
C5    C     C_R   0.493831 0.396025 0.930556 -0.087274
C6    C     C_R   0.475327 0.381924 0.077668 -0.094657
C7    C     C_R   0.987346 0.897227 0.932563 -0.085281
C8    C     C_R   0.969042 0.876950 0.079484 -0.097918
C9    C     C_R   0.972356 0.000378 0.973274 -0.133642
C10   C     C_R   0.961350 0.989704 0.046259 -0.125774
C11   C     C_R   0.481949 0.501599 0.970146 -0.137939
C12   C     C_R   0.470878 0.494162 0.043246 -0.132012
C13   C     C_R   0.751431 0.909210 0.925656 0.020352
C14   C     C_R   0.221158 0.842751 0.061779 0.015731
C15   C     C_R   0.253161 0.406248 0.926815 0.019175
C16   C     C_R   0.733097 0.377702 0.065281 0.022152
C17   C     C_R   0.722923 0.819265 0.970168 0.041013
C18   C     C_R   0.285288 0.818513 0.028696 0.008907
C19   C     C_R   0.223848 0.316456 0.970970 0.039274
C20   C     C_R   0.794409 0.342071 0.030976 0.003672
C21   C     C_R   0.722647 0.832842 0.043373 0.002189
C22   C     C_R   0.295700 0.845617 0.957334 0.003258
C23   C     C_R   0.223749 0.328967 0.044200 0.005429
C24   C     C_R   0.800870 0.355625 0.958025 0.002021
C25   C     C_R   0.787282 0.019773 0.029634 -0.134276
C26   C     C_R   0.174631 0.902826 0.946270 -0.158282
C27   C     C_R   0.293262 0.510151 0.031564 -0.137747
C28   C     C_R   0.679407 0.412447 0.949744 -0.162641
C29   C     C_R   0.785968 0.007683 0.956418 -0.146000
C30   C     C_R   0.164381 0.876359 0.018535 -0.157518
C31   C     C_R   0.290753 0.500610 0.958338 -0.144593
C32   C     C_R   0.673474 0.401804 0.023390 -0.151134
C33   C     C_3   0.651156 0.765661 0.970867 -0.269065
C34   C     C_3   0.357043 0.859006 0.048716 -0.268837
C35   C     C_3   0.152372 0.261668 0.971700 -0.268851
C36   C     C_3   0.867548 0.381110 0.044867 -0.284101
C37   C     C_3   0.652063 0.777879 0.051543 -0.283277
C38   C     C_3   0.368329 0.888987 0.970597 -0.261594
C39   C     C_3   0.153715 0.272295 0.052596 -0.282734
C40   C     C_3   0.874643 0.398095 0.964963 -0.250976
C41   C     C_R   0.752110 0.935970 0.073942 0.024909
C42   C     C_R   0.242271 0.898245 0.916636 0.013781
C43   C     C_R   0.254556 0.430413 0.075372 0.022844
C44   C     C_R   0.745310 0.402508 0.917559 0.014283
C45   C     C_R   0.531428 0.155300 0.146809 0.540471
C46   C     C_R   0.469043 0.156272 0.852826 0.541620
C47   C     C_R   0.031666 0.655078 0.146665 0.532684
C48   C     C_R   0.969027 0.656574 0.852791 0.540287
C49   C     C_R   0.483951 0.164605 0.570247 0.024603
C50   C     C_R   0.494756 0.165452 0.420876 0.023444
C51   C     C_R   0.983950 0.664606 0.570246 0.024581
C52   C     C_R   0.994755 0.665452 0.420875 0.022727
C53   C     C_R   0.475665 0.058904 0.530817 0.010195
C54   C     C_R   0.478362 0.058502 0.457894 0.001551
C55   C     C_R   0.975665 0.558904 0.530817 0.010258
C56   C     C_R   0.978362 0.558502 0.457894 0.001094
C57   C     C_R   0.491717 0.276363 0.458375 -0.171979
C58   C     C_R   0.487093 0.275814 0.533143 -0.170428
C59   C     C_R   0.991714 0.776363 0.458374 -0.172083
C60   C     C_R   0.987090 0.775814 0.533141 -0.170339
C61   C     C_3   0.511667 0.939523 0.538844 -0.248527
C62   C     C_3   0.512405 0.935260 0.458502 -0.237832
C63   C     C_3   0.011668 0.439524 0.538844 -0.248407
C64   C     C_3   0.012406 0.435261 0.458502 -0.237913
C65   C     C_R   0.745804 0.940982 0.583828 -0.043532
C66   C     C_R   0.253621 0.947978 0.414845 -0.040957
C67   C     C_R   0.245805 0.440980 0.583827 -0.043495
C68   C     C_R   0.753624 0.447983 0.414843 -0.040945
C69   C     C_R   0.784172 0.035716 0.551880 0.008688
C70   C     C_R   0.207510 0.027956 0.450291 -0.001361
C71   C     C_R   0.284172 0.535715 0.551879 0.008737
C72   C     C_R   0.707513 0.527962 0.450288 -0.001162
C73   C     C_R   0.781349 0.051607 0.478495 0.059108
C74   C     C_R   0.212463 0.042712 0.523025 0.043824
C75   C     C_R   0.281349 0.551607 0.478494 0.058813
C76   C     C_R   0.712466 0.542721 0.523022 0.043806
C77   C     C_R   0.693460 0.897989 0.469193 -0.177845
C78   C     C_R   0.321949 0.937280 0.523777 -0.123123
C79   C     C_R   0.193460 0.397989 0.469192 -0.177735
C80   C     C_R   0.821950 0.437285 0.523776 -0.123001
C81   C     C_R   0.696363 0.880272 0.542516 -0.167541
C82   C     C_R   0.315402 0.915485 0.450189 -0.122386
C83   C     C_R   0.196364 0.380269 0.542514 -0.167500
C84   C     C_R   0.815404 0.415491 0.450187 -0.122368
C85   C     C_3   0.861763 0.056414 0.552669 0.183142
C86   C     C_3   0.128907 0.030656 0.453615 0.173743
C87   C     C_3   0.361764 0.556409 0.552666 0.183109
C88   C     C_3   0.628910 0.530660 0.453610 0.174176
C89   C     C_R   0.741463 0.971379 0.147168 0.551106
C90   C     C_R   0.257983 0.967222 0.851826 0.548411
C91   C     C_R   0.241964 0.469907 0.147719 0.545869
C92   C     C_R   0.758222 0.467007 0.851368 0.549468
C93   C     C_3   0.858985 0.052782 0.472118 0.214204
C94   C     C_3   0.135848 0.028400 0.534406 0.206669
C95   C     C_3   0.358985 0.552778 0.472115 0.214151
C96   C     C_3   0.635849 0.528409 0.534400 0.206583
C97   C     C_R   0.736271 0.983971 0.436573 -0.036894
C98   C     C_R   0.267526 0.994059 0.561809 -0.033713
C99   C     C_R   0.236270 0.483974 0.436572 -0.037115
C100  C     C_R   0.767527 0.494066 0.561807 -0.033646
C101  C     C_R   0.730522 0.383013 0.350780 0.541288
C102  C     C_R   0.269450 0.382374 0.649312 0.533637
C103  C     C_R   0.230522 0.883013 0.350779 0.547399
C104  C     C_R   0.769450 0.882375 0.649312 0.533347
C105  C     C_R   0.531059 0.157157 0.352757 0.543006
C106  C     C_R   0.466023 0.157140 0.645289 0.540946
C107  C     C_R   0.031058 0.657157 0.352756 0.544154
C108  C     C_R   0.966023 0.657140 0.645289 0.541465
C109  C     C_R   0.729673 0.015038 0.361797 0.572878
C110  C     C_R   0.271470 0.018861 0.638186 0.570290
C111  C     C_R   0.229672 0.515042 0.361796 0.574339
C112  C     C_R   0.771471 0.518863 0.638186 0.570319
C113  C     C_R   0.499284 0.168676 0.924332 -0.002927
C114  C     C_R   0.504745 0.162323 0.073716 0.000258
C115  C     C_R   0.999737 0.670496 0.923981 -0.003975
C116  C     C_R   0.005986 0.661307 0.073223 -0.003374
C117  C     C_R   0.494917 0.279934 0.963655 0.032047
C118  C     C_R   0.491582 0.274748 0.039160 0.018769
C119  C     C_R   0.991664 0.780236 0.964374 0.029827
C120  C     C_R   0.988439 0.772657 0.039807 0.009949
C121  C     C_R   0.512132 0.055936 0.033150 -0.154869
C122  C     C_R   0.512059 0.059699 0.960163 -0.167854
C123  C     C_R   0.018251 0.557376 0.031570 -0.153282
C124  C     C_R   0.017299 0.562632 0.958598 -0.169095
Cr1   Cr    Cr6+3 0.772010 0.169670 0.250090 1.006861
Cr2   Cr    Cr6+3 0.227990 0.169670 0.749910 1.022903
Cr3   Cr    Cr6+3 0.272010 0.669670 0.250090 1.002800
Cr4   Cr    Cr6+3 0.727990 0.669670 0.749910 1.022482
Cr5   Cr    Cr6+3 0.615000 0.323260 0.249260 0.972912
Cr6   Cr    Cr6+3 0.385000 0.323260 0.750740 0.976954
Cr7   Cr    Cr6+3 0.115000 0.823260 0.249260 0.968361
Cr8   Cr    Cr6+3 0.885000 0.823260 0.750740 0.975920
Cr9   Cr    Cr6+3 0.616710 0.010760 0.250840 0.983779
Cr10  Cr    Cr6+3 0.383290 0.010760 0.749160 0.984468
Cr11  Cr    Cr6+3 0.116710 0.510760 0.250840 0.978884
Cr12  Cr    Cr6+3 0.883290 0.510760 0.749160 0.982589
H1    H     H_    0.498114 0.361824 0.430719 0.101584
H2    H     H_    0.488611 0.360753 0.561791 0.096966
H3    H     H_    0.998110 0.861824 0.430717 0.101629
H4    H     H_    0.988606 0.860753 0.561790 0.096975
H5    H     H_    0.978969 0.367955 0.563460 0.172281
H6    H     H_    0.065133 0.436716 0.435882 0.174785
H7    H     H_    0.478968 0.867955 0.563460 0.172276
H8    H     H_    0.565132 0.936713 0.435882 0.174717
H9    H     H_    0.564034 0.949886 0.563210 0.146729
H10   H     H_    0.477979 0.864024 0.436663 0.165630
H11   H     H_    0.064034 0.449888 0.563210 0.146770
H12   H     H_    0.977981 0.364023 0.436663 0.165547
H13   H     H_    0.664996 0.810819 0.565940 0.226848
H14   H     H_    0.355762 0.866868 0.422038 0.191955
H15   H     H_    0.164998 0.310813 0.565937 0.226826
H16   H     H_    0.855764 0.366873 0.422036 0.191749
H17   H     H_    0.895000 0.981914 0.573744 0.090813
H18   H     H_    0.101738 0.949141 0.433240 0.100191
H19   H     H_    0.395000 0.481907 0.573740 0.090771
H20   H     H_    0.601742 0.449143 0.433237 0.100475
H21   H     H_    0.878634 0.963919 0.450416 0.047438
H22   H     H_    0.123877 0.938353 0.559365 0.065178
H23   H     H_    0.378631 0.463914 0.450413 0.047619
H24   H     H_    0.623879 0.438362 0.559360 0.065118
H25   H     H_    0.505357 0.407822 0.874589 0.128940
H26   H     H_    0.464964 0.379884 0.134357 0.129167
H27   H     H_    0.998874 0.912050 0.876856 0.130339
H28   H     H_    0.959325 0.872209 0.136249 0.129769
H29   H     H_    0.968885 0.088897 0.947981 0.098434
H30   H     H_    0.947926 0.069404 0.077441 0.105633
H31   H     H_    0.480922 0.589473 0.943896 0.098910
H32   H     H_    0.459770 0.575835 0.073576 0.100878
H33   H     H_    0.813282 0.074000 0.923937 0.132756
H34   H     H_    0.113422 0.891410 0.041792 0.152232
H35   H     H_    0.319605 0.565783 0.926447 0.136743
H36   H     H_    0.622961 0.418530 0.047560 0.159260
H37   H     H_    0.152741 0.165834 0.952862 0.158648
H38   H     H_    0.900398 0.305498 0.065986 0.126748
H39   H     H_    0.651088 0.669535 0.952626 0.157473
H40   H     H_    0.390351 0.782403 0.067698 0.122859
H41   H     H_    0.611846 0.825345 0.944523 0.122797
H42   H     H_    0.356726 0.940813 0.083668 0.154415
H43   H     H_    0.112610 0.321224 0.946010 0.121367
H44   H     H_    0.870432 0.467814 0.075339 0.143518
H45   H     H_    0.612687 0.842835 0.072565 0.152348
H46   H     H_    0.373739 0.988235 0.960415 0.166755
H47   H     H_    0.114107 0.335589 0.074646 0.148825
H48   H     H_    0.880215 0.495206 0.949492 0.174952
H49   H     H_    0.654229 0.688620 0.079548 0.142514
H50   H     H_    0.408210 0.829874 0.944561 0.127555
H51   H     H_    0.156875 0.182466 0.079879 0.150808
H52   H     H_    0.912607 0.333978 0.940025 0.127499
O1    O     O_R   0.787520 0.042810 0.170440 -0.535645
O2    O     O_R   0.212480 0.042810 0.829560 -0.527888
O3    O     O_R   0.287520 0.542810 0.170440 -0.540741
O4    O     O_R   0.712480 0.542810 0.829560 -0.527294
O5    O     O_R   0.556610 0.252880 0.323980 -0.515073
O6    O     O_R   0.443390 0.252880 0.676020 -0.513569
O7    O     O_R   0.056610 0.752880 0.323980 -0.514173
O8    O     O_R   0.943390 0.752880 0.676020 -0.513252
O9    O     O_R   0.545950 0.051210 0.330860 -0.536526
O10   O     O_R   0.454050 0.051210 0.669140 -0.532215
O11   O     O_R   0.045950 0.551210 0.330860 -0.535397
O12   O     O_R   0.954050 0.551210 0.669140 -0.531791
O13   O     O_R   0.681390 0.959480 0.325510 -0.522368
O14   O     O_R   0.318610 0.959480 0.674490 -0.521844
O15   O     O_R   0.181390 0.459480 0.325510 -0.520369
O16   O     O_R   0.818610 0.459480 0.674490 -0.521877
O17   O     O_3   0.667900 0.167900 0.250060 -0.256873
O18   O     O_3   0.332100 0.167900 0.749940 -0.259110
O19   O     O_3   0.167900 0.667900 0.250060 -0.274018
O20   O     O_3   0.832100 0.667900 0.749940 -0.258915
O21   O     O_R   0.765640 0.292100 0.175020 -0.502754
O22   O     O_R   0.234360 0.292100 0.824980 -0.500292
O23   O     O_R   0.265640 0.792100 0.175020 -0.504335
O24   O     O_R   0.734360 0.792100 0.824980 -0.500307
O25   O     O_R   0.670190 0.408840 0.168540 -0.535193
O26   O     O_R   0.329810 0.408840 0.831460 -0.525491
O27   O     O_R   0.170190 0.908840 0.168540 -0.527188
O28   O     O_R   0.829810 0.908840 0.831460 -0.525521
O29   O     O_R   0.556620 0.251410 0.175160 -0.510989
O30   O     O_R   0.443380 0.251410 0.824840 -0.505815
O31   O     O_R   0.056620 0.751410 0.175160 -0.523727
O32   O     O_R   0.943380 0.751410 0.824840 -0.506417
O33   O     O_R   0.545960 0.049620 0.170320 -0.527243
O34   O     O_R   0.454040 0.049620 0.829680 -0.526611
O35   O     O_R   0.045960 0.549620 0.170320 -0.526945
O36   O     O_R   0.954040 0.549620 0.829680 -0.529031
O37   O     O_R   0.681390 0.958010 0.176690 -0.499587
O38   O     O_R   0.318610 0.958010 0.823310 -0.500799
O39   O     O_R   0.181390 0.458010 0.176690 -0.500629
O40   O     O_R   0.818610 0.458010 0.823310 -0.504521
O41   O     O_R   0.787510 0.044390 0.330970 -0.508010
O42   O     O_R   0.212490 0.044390 0.669030 -0.485180
O43   O     O_R   0.287510 0.544390 0.330970 -0.507301
O44   O     O_R   0.712490 0.544390 0.669030 -0.485400
O45   O     O_R   0.765630 0.293570 0.323840 -0.487263
O46   O     O_R   0.234370 0.293570 0.676160 -0.500186
O47   O     O_R   0.265630 0.793570 0.323840 -0.484421
O48   O     O_R   0.734370 0.793570 0.676160 -0.500279
O49   O     O_R   0.670190 0.410420 0.329080 -0.548225
O50   O     O_R   0.329810 0.410420 0.670920 -0.548887
O51   O     O_R   0.170190 0.910420 0.329080 -0.546308
O52   O     O_R   0.829810 0.910420 0.670920 -0.549070
H53   H     H_    0.519894 0.967897 0.057739 0.135709
H54   H     H_    0.516724 0.974110 0.931833 0.129893
H55   H     H_    0.029869 0.470128 0.055310 0.137623
H56   H     H_    0.024924 0.478628 0.929300 0.129294
H57   H     H_    0.661183 0.839540 0.437514 0.198764
H58   H     H_    0.366983 0.903697 0.551665 0.190822
H59   H     H_    0.161184 0.339541 0.437512 0.198728
H60   H     H_    0.866983 0.403699 0.551665 0.190832
O53   O     O_3   0.878705 0.173669 0.578366 -0.566634
C125  C     C_3   0.875854 0.174710 0.653529 -0.118023
H61   H     H_    0.820998 0.166823 0.672636 0.153209
H62   H     H_    0.909193 0.102096 0.677373 0.102748
H63   H     H_    0.896642 0.262879 0.672623 0.143223
O54   O     O_3   0.101257 0.143247 0.429567 -0.572491
C126  C     C_3   0.105609 0.151506 0.354585 -0.128474
H64   H     H_    0.160910 0.153295 0.336279 0.155753
H65   H     H_    0.076312 0.076806 0.328263 0.118160
H66   H     H_    0.081333 0.238777 0.337618 0.120238
O55   O     O_3   0.378709 0.673664 0.578362 -0.566730
C127  C     C_3   0.375857 0.674707 0.653525 -0.117795
H67   H     H_    0.321001 0.666822 0.672632 0.153510
H68   H     H_    0.409195 0.602093 0.677370 0.102879
H69   H     H_    0.396646 0.762877 0.672618 0.143167
O56   O     O_3   0.601261 0.643248 0.429556 -0.572129
C128  C     C_3   0.605614 0.651496 0.354573 -0.129567
H70   H     H_    0.660914 0.653273 0.336266 0.153775
H71   H     H_    0.576312 0.576798 0.328255 0.117517
H72   H     H_    0.581341 0.738768 0.337602 0.120097
O57   O     O_3   0.883057 0.159471 0.438529 -0.535487
C129  C     C_3   0.934434 0.128490 0.387722 -0.118621
H73   H     H_    0.913947 0.066601 0.346004 0.133619
H74   H     H_    0.979372 0.084123 0.414384 0.146697
H75   H     H_    0.952199 0.212017 0.360156 0.115101
O58   O     O_3   0.107446 0.130661 0.569178 -0.542198
C130  C     C_3   0.039581 0.104355 0.592637 -0.093230
H76   H     H_    0.039521 0.028435 0.631996 0.094498
H77   H     H_    0.005308 0.083880 0.546541 0.161639
H78   H     H_    0.018814 0.185973 0.620177 0.144507
O59   O     O_3   0.383058 0.659466 0.438527 -0.535559
C131  C     C_3   0.434438 0.628483 0.387723 -0.118506
H79   H     H_    0.413953 0.566593 0.346004 0.133823
H80   H     H_    0.479375 0.584118 0.414389 0.146625
H81   H     H_    0.452205 0.712010 0.360157 0.115430
O60   O     O_3   0.607445 0.630671 0.569169 -0.542233
C132  C     C_3   0.539587 0.604352 0.592643 -0.093258
H82   H     H_    0.539540 0.528444 0.632010 0.094439
H83   H     H_    0.505308 0.583853 0.546554 0.161603
H84   H     H_    0.518816 0.685974 0.620177 0.144507
H85   H     H_    0.812953 0.099207 0.051083 0.148183
H86   H     H_    0.131226 0.939036 0.915865 0.129592
H87   H     H_    0.321939 0.586084 0.053233 0.146607
H88   H     H_    0.634473 0.442850 0.919544 0.130481

loop_
_geom_bond_atom_site_label_1
_geom_bond_atom_site_label_2
_ccdc_geom_bond_type
Cr4   O48   S    
C126  H65   S    
C73   C93   S    
C75   C95   S    
C96   O60   S    
C46   O30   A    
C79   C99   A    
O60   C132  S    
Cr9   O37   S    
C101  O45   A    
Cr11  O11   S    
C3    O27   A    
C22   C38   S    
C23   C43   A    
O58   C130  S    
Cr3   O19   S    
C110  O42   A    
C37   H49   S    
C113  C122  A    
C70   C74   A    
Cr8   O28   S    
C124  H56   S    
C44   C92   S    
C125  H63   S    
C105  O9    A    
Cr12  O40   S    
C59   C60   A    
Cr4   O44   S    
C11   H31   S    
C90   O38   A    
C25   C29   A    
C47   C116  S    
C102  O50   A    
Cr7   O27   S    
C7    C119  A    
C28   C32   A    
C68   C101  S    
C28   H88   S    
C25   C41   A    
C5    C117  A    
Cr11  O15   S    
C101  O49   A    
C28   C44   A    
C17   C21   A    
C5    H25   S    
C19   C23   A    
C66   C82   A    
C78   C82   A    
C16   C20   A    
C37   H45   S    
C102  O46   A    
C64   H6    S    
C129  H74   S    
C112  O16   A    
C33   H41   S    
C104  O52   A    
C47   O35   A    
Cr9   O9    S    
Cr5   O49   S    
C50   C57   A    
C66   C103  S    
C26   H86   S    
Cr7   O7    S    
C62   H8    S    
C49   C106  S    
C76   C100  A    
Cr11  O35   S    
Cr3   O47   S    
C46   O34   A    
C110  O14   A    
C86   H18   S    
C132  H83   S    
C19   C35   S    
C76   C96   S    
C66   C70   A    
C49   C53   A    
C9    H29   S    
Cr6   O26   S    
C51   C55   A    
Cr12  O12   S    
C93   O57   S    
C8    C10   A    
C25   H85   S    
C111  O15   A    
Cr4   O20   S    
Cr8   O32   S    
C125  H62   S    
C41   C89   S    
C85   O53   S    
C4    O28   A    
C116  C123  A    
C111  O43   A    
Cr7   O19   S    
C123  H55   S    
C123  C124  A    
C74   C98   A    
C53   C54   A    
C121  H53   S    
O53   C125  S    
Cr11  O39   S    
C95   H23   S    
Cr1   O41   S    
C81   H13   S    
Cr1   O17   S    
Cr6   O30   S    
C85   C93   S    
C45   C114  S    
O56   C128  S    
Cr10  O34   S    
C87   C95   S    
C50   C105  S    
C56   C64   S    
C77   C97   A    
C9    C10   A    
C58   H2    S    
C64   H12   S    
C63   H11   S    
C3    O23   A    
C1    O21   A    
C35   H37   S    
C130  H78   S    
C131  H79   S    
C8    H28   S    
Cr1   O21   S    
C48   O36   A    
C38   H50   S    
Cr3   O3    S    
C116  C120  A    
Cr4   O4    S    
C79   H59   S    
Cr6   O18   S    
C97   C109  S    
Cr12  O36   S    
C10   H30   S    
C99   C111  S    
C75   C99   A    
C57   H1    S    
C114  C118  A    
C128  H71   S    
C60   H4    S    
C113  C117  A    
C26   C30   A    
C115  C119  A    
C69   C85   S    
C26   C42   A    
Cr11  O19   S    
C90   O2    A    
C103  O47   A    
C46   C113  S    
C18   C22   A    
C127  H67   S    
C15   C31   A    
C40   H52   S    
C16   C32   A    
C38   H46   S    
C13   C17   A    
C29   H33   S    
C130  H77   S    
Cr8   O52   S    
C117  C118  A    
C107  O11   A    
C57   C58   A    
C31   H35   S    
C78   H58   S    
C87   H19   S    
C32   H36   S    
C61   C62   S    
Cr2   O46   S    
C63   C64   S    
C104  O48   A    
C62   H10   S    
C51   C60   A    
C27   H87   S    
O55   C127  S    
C55   C56   A    
C88   C96   S    
C36   H38   S    
C98   C110  S    
C74   C94   S    
C130  H76   S    
C36   H44   S    
C131  H81   S    
C80   C84   A    
C15   C19   A    
C88   O56   S    
C50   C54   A    
C88   H20   S    
C13   C29   A    
C5    C11   A    
C6    C12   A    
Cr10  O18   S    
C7    C9    A    
C61   H9    S    
C30   H34   S    
Cr5   O29   S    
C114  C121  A    
C109  O41   A    
C61   H7    S    
C52   C107  S    
Cr9   O33   S    
O59   C131  S    
C80   H60   S    
C69   C73   A    
C108  O8    A    
C106  O10   A    
C126  H66   S    
C94   H22   S    
O57   C129  S    
Cr9   O13   S    
C129  H75   S    
C17   C33   S    
C127  H69   S    
C83   H15   S    
C68   C84   A    
C106  O6    A    
Cr12  O20   S    
C54   C62   S    
C125  H61   S    
C27   C31   A    
C33   C37   S    
C35   C39   S    
C132  H82   S    
Cr5   O17   S    
C65   C81   A    
C59   H3    S    
C63   H5    S    
C1    C16   S    
C2    C15   S    
C121  C122  A    
C3    C14   S    
C21   C41   A    
C100  C112  S    
C1    O25   A    
C24   C44   A    
C34   H42   S    
C86   O54   S    
C87   O55   S    
C48   O32   A    
C115  C124  A    
C91   O39   A    
C89   O37   A    
Cr6   O6    S    
C94   O58   S    
C119  C120  A    
C112  O44   A    
C109  O13   A    
C45   O33   A    
Cr4   O24   S    
C79   C83   A    
C35   H43   S    
C91   O3    A    
Cr2   O18   S    
C65   C69   A    
C67   C71   A    
C20   C36   S    
C27   C43   A    
C21   C37   S    
C92   O40   A    
C103  O51   A    
C89   O1    A    
C129  H73   S    
C39   H47   S    
C92   O4    A    
C40   H48   S    
C105  O5    A    
C45   O29   A    
C14   C18   A    
C72   C76   A    
C107  O7    A    
C122  H54   S    
C73   C97   A    
O54   C126  S    
Cr10  O38   S    
Cr7   O31   S    
Cr2   O42   S    
C131  H80   S    
C132  H84   S    
Cr9   O17   S    
Cr2   O2    S    
C4    C13   S    
C86   C94   S    
C6    H26   S    
Cr7   O51   S    
C51   C108  S    
C78   C98   A    
C42   C90   S    
C77   C81   A    
C128  H70   S    
C68   C72   A    
C39   H51   S    
C80   C100  A    
Cr5   O25   S    
C53   C61   S    
C14   C30   A    
C72   C88   S    
Cr10  O14   S    
C2    O22   A    
C95   O59   S    
C20   C24   A    
C36   C40   S    
Cr1   O45   S    
C127  H68   S    
Cr2   O22   S    
C47   O31   A    
C43   C91   S    
C49   C58   A    
C55   C63   S    
C108  O12   A    
C7    H27   S    
C52   C59   A    
Cr3   O43   S    
C85   H17   S    
C67   C83   A    
C93   H21   S    
C18   C34   S    
C82   H14   S    
C48   C115  S    
C84   H16   S    
Cr3   O23   S    
C96   H24   S    
Cr8   O20   S    
C71   C87   S    
C126  H64   S    
C70   C86   S    
Cr12  O16   S    
C8    C120  A    
Cr10  O10   S    
Cr6   O50   S    
C34   C38   S    
C12   H32   S    
Cr5   O5    S    
C11   C12   A    
C2    O26   A    
C4    O24   A    
C71   C75   A    
C22   C42   A    
C23   C39   S    
C24   C40   S    
C77   H57   S    
C33   H39   S    
C128  H72   S    
C34   H40   S    
Cr8   O8    S    
Cr1   O1    S    
C65   C104  S    
C6    C118  A    
C52   C56   A    
C67   C102  S    
