data_mof_unit_7158.cif
_audit_creation_date              2012-10-26T18:56:59-0400
_audit_creation_method            fapswitch 2.2
_symmetry_space_group_name_H-M    P1
_symmetry_Int_Tables_number       1
_space_group_crystal_system       triclinic
_cell_length_a                    23.528225
_cell_length_b                    15.878327
_cell_length_c                    14.650069
_cell_angle_alpha                 90.605865
_cell_angle_beta                  89.94159
_cell_angle_gamma                 90.005038
_cell_volume                      5472.79358495

loop_
_atom_site_label
_atom_site_type_symbol
_atom_type_description
_atom_site_fract_x
_atom_site_fract_y
_atom_site_fract_z
_atom_type_partial_charge
C1    C     C_R   0.500037 0.339477 0.499527 0.546643
C2    C     C_R   0.702731 0.494341 0.580972 -0.126808
C3    C     C_R   0.237343 0.497650 0.580876 0.322977
C4    C     C_R   0.762321 0.494589 0.579763 0.314960
C5    C     C_R   0.208886 0.495942 0.496609 0.257797
C6    C     C_R   0.791140 0.498131 0.495831 0.238221
C7    C     C_3   0.502412 0.974642 0.585213 0.295743
C8    C     C_3   0.497629 0.025362 0.414788 0.295789
C9    C     C_3   0.548535 0.028867 0.539413 -0.138055
C10   C     C_3   0.451506 0.971136 0.460588 -0.136188
C11   C     C_1   0.500132 0.249861 0.498462 0.001179
C12   C     C_R   0.499966 0.660523 0.500473 0.547103
C13   C     C_1   0.499885 0.750140 0.501540 0.001392
C14   C     C_3   0.454163 0.029346 0.546516 -0.129512
C15   C     C_3   0.545877 0.970657 0.453485 -0.131341
C16   C     C_R   0.390660 0.499811 0.500008 0.548493
C17   C     C_R   0.609332 0.500026 0.499884 0.547469
C18   C     C_3   0.500225 0.082855 0.499078 0.024484
C19   C     C_3   0.499815 0.917147 0.500923 0.024409
C20   C     C_1   0.500203 0.174390 0.498122 -0.009262
C21   C     C_1   0.499826 0.825612 0.501880 -0.009141
C22   C     C_3   0.482419 0.574238 0.969800 0.213828
C23   C     C_R   0.239646 0.494242 0.414878 -0.111945
C24   C     C_3   0.517567 0.425831 0.030156 0.214779
C25   C     C_3   0.446857 0.514759 0.030603 -0.039459
C26   C     C_3   0.553131 0.485320 0.969354 -0.040808
C27   C     C_3   0.535127 0.560516 0.031000 -0.034186
C28   C     C_3   0.464855 0.439561 0.968959 -0.031968
C29   C     C_3   0.499676 0.500644 0.092346 0.006243
C30   C     C_3   0.500310 0.499428 0.907625 0.006149
C31   C     C_1   0.499902 0.500112 0.194487 0.283486
C32   C     C_1   0.500090 0.499921 0.805504 0.282700
C33   C     C_R   0.880533 0.568859 0.472234 0.412264
C34   C     C_R   0.760467 0.504029 0.414414 -0.108146
C35   C     C_R   0.119725 0.421946 0.511601 0.442432
C36   C     C_R   0.879789 0.422426 0.506361 0.443683
C37   C     C_R   0.120047 0.566175 0.468012 0.423661
C38   C     C_R   0.939514 0.418280 0.499454 0.019143
C39   C     C_R   0.060439 0.566218 0.459013 0.023110
C40   C     C_R   0.969926 0.492502 0.478552 -0.106968
C41   C     C_R   0.030119 0.491660 0.478845 -0.105508
C42   C     C_R   0.940121 0.567982 0.459318 -0.004471
C43   C     C_R   0.059994 0.416900 0.500914 -0.009551
C44   C     C_R   0.969276 0.341716 0.510993 0.228865
C45   C     C_R   0.298715 0.495215 0.416144 -0.148401
C46   C     C_R   0.030719 0.638265 0.429082 0.230249
C47   C     C_R   0.029052 0.340758 0.512663 0.007049
C48   C     C_R   0.970974 0.639733 0.429683 0.011931
C49   C     C_3   0.930470 0.230055 0.435015 0.009148
C50   C     C_3   0.897098 0.148805 0.446204 -0.336064
C51   C     C_3   0.070430 0.699675 0.304751 0.008306
C52   C     C_3   0.103852 0.775553 0.271985 -0.336622
C53   C     C_2   0.386891 0.529603 0.061338 0.198831
C54   C     C_2   0.613104 0.470537 0.938573 0.199656
C55   C     C_3   0.444171 0.705998 0.002068 0.005439
C56   C     C_R   0.701346 0.505047 0.415916 -0.150767
C57   C     C_3   0.452044 0.797039 0.973611 -0.370424
C58   C     C_3   0.555780 0.294068 0.997817 0.005712
C59   C     C_3   0.547948 0.203024 0.026292 -0.370467
C60   C     C_2   0.425353 0.370907 0.938175 0.208643
C61   C     C_2   0.574580 0.629237 0.061754 0.213944
C62   C     C_2   0.056723 0.257359 0.522388 0.298920
C63   C     C_2   0.943197 0.716343 0.393391 0.300620
C64   C     C_3   0.222721 0.441756 0.723745 0.003623
C65   C     C_3   0.174297 0.425717 0.790160 -0.344337
C66   C     C_3   0.795289 0.565792 0.703788 -0.008574
C67   C     C_R   0.328071 0.498551 0.499450 -0.036373
C68   C     C_3   0.833224 0.559364 0.787381 -0.346842
C69   C     C_3   0.511584 0.008859 0.737665 -0.000355
C70   C     C_3   0.505924 0.975196 0.834032 -0.365206
C71   C     C_3   0.488477 0.991148 0.262331 -0.000177
C72   C     C_3   0.494109 0.024830 0.165967 -0.364980
C73   C     C_R   0.671903 0.499967 0.499121 -0.041913
C74   C     C_R   0.297213 0.500602 0.581665 -0.138796
Cu1   Cu    Cu3+1 0.500010 0.500000 0.590220 1.054560
Cu2   Cu    Cu3+1 0.499990 0.500000 0.409780 1.057879
H1    H     H_    0.217515 0.492098 0.350109 0.133064
H2    H     H_    0.417264 0.054500 0.585422 0.121755
H3    H     H_    0.971298 0.214640 0.400168 0.139066
H4    H     H_    0.905355 0.272896 0.390792 0.146539
H5    H     H_    0.855602 0.162231 0.479516 0.194089
H6    H     H_    0.889283 0.119386 0.378265 0.101929
H7    H     H_    0.921501 0.104093 0.488822 0.163509
H8    H     H_    0.029942 0.696419 0.265576 0.135026
H9    H     H_    0.095891 0.641998 0.289687 0.144889
H10   H     H_    0.145014 0.779790 0.308804 0.194735
H11   H     H_    0.112346 0.769250 0.197649 0.098079
H12   H     H_    0.782645 0.507381 0.349741 0.142619
H13   H     H_    0.079150 0.834126 0.284705 0.163064
H14   H     H_    0.353596 0.537163 0.010952 0.118087
H15   H     H_    0.646392 0.462813 0.988936 0.121846
H16   H     H_    0.465479 0.697970 0.069332 0.155446
H17   H     H_    0.397948 0.694062 0.010322 0.149517
H18   H     H_    0.430010 0.808111 0.907819 0.174101
H19   H     H_    0.433937 0.839910 0.026492 0.093717
H20   H     H_    0.498010 0.811112 0.965593 0.155724
H21   H     H_    0.601993 0.306027 0.989469 0.150742
H22   H     H_    0.534417 0.302083 0.930595 0.155979
H23   H     H_    0.321351 0.493624 0.351739 0.180503
H24   H     H_    0.501991 0.188929 0.034399 0.155855
H25   H     H_    0.566024 0.160160 0.973377 0.094643
H26   H     H_    0.570034 0.191962 0.092042 0.173162
H27   H     H_    0.403799 0.332800 0.988518 0.129648
H28   H     H_    0.596218 0.667221 0.011392 0.128953
H29   H     H_    0.042866 0.215049 0.575689 0.132916
H30   H     H_    0.957825 0.778214 0.415071 0.133339
H31   H     H_    0.259877 0.465165 0.763368 0.135980
H32   H     H_    0.233689 0.380503 0.690020 0.162216
H33   H     H_    0.136510 0.401823 0.752559 0.180246
H34   H     H_    0.678735 0.509521 0.351797 0.163641
H35   H     H_    0.187473 0.378107 0.840931 0.106279
H36   H     H_    0.162841 0.484991 0.826671 0.163729
H37   H     H_    0.752267 0.586414 0.726616 0.139720
H38   H     H_    0.813794 0.614224 0.657866 0.160335
H39   H     H_    0.876701 0.539727 0.766558 0.169784
H40   H     H_    0.835689 0.621516 0.822625 0.106376
H41   H     H_    0.815589 0.512385 0.835391 0.176993
H42   H     H_    0.478931 0.058900 0.728722 0.131928
H43   H     H_    0.554719 0.036729 0.730391 0.132072
H44   H     H_    0.537855 0.924924 0.845604 0.165969
H45   H     H_    0.319568 0.505418 0.646015 0.136515
H46   H     H_    0.512961 0.026895 0.884418 0.091512
H47   H     H_    0.462631 0.949093 0.844188 0.157422
H48   H     H_    0.445357 0.963230 0.269614 0.131942
H49   H     H_    0.521157 0.941143 0.271257 0.132373
H50   H     H_    0.537385 0.050990 0.155803 0.157047
H51   H     H_    0.487096 0.973128 0.115577 0.091458
H52   H     H_    0.462147 0.075063 0.154410 0.166758
H53   H     H_    0.680846 0.489453 0.645789 0.172017
H54   H     H_    0.587789 0.053727 0.571887 0.112750
H55   H     H_    0.412252 0.946279 0.428112 0.114216
H56   H     H_    0.582777 0.945504 0.414581 0.121217
N1    N     N_R   0.852086 0.496565 0.492465 -0.395955
N2    N     N_R   0.147938 0.494892 0.493106 -0.385338
N3    N     N_1   0.499980 0.500000 0.274190 -0.166230
N4    N     N_1   0.500020 0.500000 0.725810 -0.166407
O1    O     O_R   0.500010 0.379080 0.576170 -0.487928
O2    O     O_2   0.149708 0.355711 0.542274 -0.455062
O3    O     O_2   0.849273 0.353496 0.527974 -0.423076
O4    O     O_2   0.150259 0.637118 0.453951 -0.439846
O5    O     O_3   0.940121 0.266654 0.522059 -0.527646
O6    O     O_3   0.059884 0.708722 0.399400 -0.526628
O7    O     O_2   0.375213 0.533231 0.142432 -0.518200
O8    O     O_2   0.624799 0.467169 0.857473 -0.514598
O9    O     O_3   0.466098 0.652441 0.932980 -0.556079
O10   O     O_3   0.533891 0.347618 0.066944 -0.556068
O11   O     O_2   0.417321 0.357458 0.857074 -0.521590
O12   O     O_R   0.499990 0.620920 0.423830 -0.487358
O13   O     O_2   0.582460 0.642900 0.142852 -0.511980
O14   O     O_2   0.091944 0.232899 0.466866 -0.464602
O15   O     O_2   0.906873 0.710974 0.334135 -0.468064
O16   O     O_3   0.205325 0.503075 0.660332 -0.535230
O17   O     O_3   0.792608 0.486375 0.659879 -0.521387
O18   O     O_3   0.504044 0.942131 0.674446 -0.536492
O19   O     O_3   0.495993 0.057877 0.325557 -0.536189
O20   O     O_R   0.500000 0.379080 0.423800 -0.485818
O21   O     O_R   0.500000 0.620920 0.576200 -0.486068
O22   O     O_R   0.417890 0.499980 0.576200 -0.497650
O23   O     O_R   0.582110 0.500020 0.423800 -0.494710
O24   O     O_R   0.417870 0.499970 0.423830 -0.490770
O25   O     O_R   0.582130 0.500030 0.576170 -0.493193
O26   O     O_2   0.850990 0.641472 0.468172 -0.460769

loop_
_geom_bond_atom_site_label_1
_geom_bond_atom_site_label_2
_ccdc_geom_bond_type
C66   C68   S    
Cu2   O23   S    
C34   C56   A    
C23   C45   A    
C66   H37   S    
C16   O24   A    
C14   C18   S    
C54   O8    D    
C58   H22   S    
C62   O14   D    
C55   H17   S    
C57   H20   S    
C36   N1    A    
C51   H9    S    
C47   C62   S    
C46   O6    S    
C62   H29   S    
C9    H54   S    
C25   C28   S    
C15   C19   S    
C26   C27   S    
C72   H52   S    
C33   C42   A    
C19   C21   S    
C25   C53   S    
C6    N1    S    
C35   O2    S    
C8    C10   S    
C55   O9    S    
C27   C29   S    
C69   H42   S    
C2    H53   S    
C8    O19   S    
C3    C74   A    
C10   H55   S    
C65   H35   S    
C27   C61   S    
C24   C29   S    
C70   H47   S    
C7    C14   S    
C15   H56   S    
C70   H44   S    
C44   O5    S    
C22   C25   S    
C49   O5    S    
C45   C67   A    
C60   O11   D    
C12   O21   A    
C60   H27   S    
C35   C43   A    
C18   C20   S    
C44   C47   A    
Cu1   O21   S    
C40   C42   A    
C4    O17   S    
C38   C40   A    
C17   C73   S    
C59   H24   S    
C41   C43   A    
C52   H13   S    
C58   H21   S    
C26   C54   S    
C35   N2    A    
C56   H34   S    
Cu2   N3    S    
C50   H7    S    
C64   H32   S    
C69   H43   S    
C28   C60   S    
C25   C29   S    
C5    N2    S    
C46   C48   A    
C11   C20   T    
C72   H51   S    
C16   O22   A    
C51   C52   S    
C59   H25   S    
C71   H48   S    
C61   H28   S    
C31   N3    T    
C45   H23   S    
C32   N4    T    
Cu1   N4    S    
C48   C63   S    
C42   C48   A    
C58   C59   S    
Cu2   O20   S    
C8    C18   S    
C6    C34   A    
Cu2   O12   S    
C72   H50   S    
C53   O7    D    
C1    O20   A    
C2    C4    A    
Cu1   Cu2   S    
C65   H36   S    
C38   C44   A    
C55   H16   S    
C68   H41   S    
C70   H46   S    
C5    C23   A    
C22   O9    S    
C10   C19   S    
C71   O19   S    
C3    O16   S    
C13   C21   T    
C16   C67   S    
C34   H12   S    
C23   H1    S    
C63   H30   S    
C63   O15   D    
C2    C73   A    
C17   O25   A    
C68   H40   S    
C39   C46   A    
Cu1   O22   S    
C4    C6    A    
C40   C41   A    
C64   O16   S    
C26   C30   S    
C8    C15   S    
C7    C19   S    
C57   H18   S    
C55   C57   S    
Cu1   O1    S    
C49   H3    S    
C1    O1    A    
C50   H6    S    
C64   H31   S    
C51   O6    S    
C7    C9    S    
Cu2   O24   S    
C56   C73   A    
C66   H38   S    
C59   H26   S    
C52   H11   S    
C24   C28   S    
C24   C26   S    
C3    C5    A    
C66   O17   S    
C58   O10   S    
C69   O18   S    
C49   H4    S    
Cu1   O25   S    
C22   C27   S    
C64   C65   S    
C12   O12   A    
C36   C38   A    
C33   O26   S    
C9    C15   S    
C54   H15   S    
C29   C31   S    
C22   C30   S    
C30   C32   S    
C65   H33   S    
C7    O18   S    
C43   C47   A    
C52   H10   S    
C28   C30   S    
C67   C74   A    
C14   H2    S    
C69   C70   S    
C17   O23   A    
C36   O3    S    
C68   H39   S    
C33   N1    A    
C9    C18   S    
C71   C72   S    
C74   H45   S    
C12   C13   S    
C39   C41   A    
C37   C39   A    
C49   C50   S    
C57   H19   S    
C53   H14   S    
C37   N2    A    
C71   H49   S    
C24   O10   S    
C1    C11   S    
C37   O4    S    
C61   O13   D    
C51   H8    S    
C50   H5    S    
C10   C14   S    
