data_mof_unit_15619.cif
_audit_creation_date              2012-12-11T16:05:01-0500
_audit_creation_method            fapswitch 2.2
_symmetry_space_group_name_H-M    P1
_symmetry_Int_Tables_number       1
_space_group_crystal_system       triclinic
_cell_length_a                    10.637959
_cell_length_b                    10.586202
_cell_length_c                    16.875223
_cell_angle_alpha                 98.244966
_cell_angle_beta                  98.592621
_cell_angle_gamma                 62.161248
_cell_volume                      1655.70420999

loop_
_atom_site_label
_atom_site_type_symbol
_atom_type_description
_atom_site_fract_x
_atom_site_fract_y
_atom_site_fract_z
_atom_type_partial_charge
C1    C     C_R   0.352611 0.779589 0.400341 0.550233
C2    C     C_3   0.644684 0.441031 0.233589 -0.136100
C3    C     C_3   0.749960 0.386212 0.308341 0.023503
C4    C     C_3   0.827885 0.236258 0.265197 -0.126827
C5    C     C_3   0.929334 0.285248 0.237902 -0.174121
C6    C     C_3   0.851828 0.434540 0.281904 -0.051687
C7    C     C_3   0.748808 0.487107 0.206515 0.266007
C8    C     C_3   0.825269 0.338519 0.163126 0.045536
C9    C     C_3   0.392564 0.782331 0.205834 -0.073709
C10   C     C_3   0.280884 0.774468 0.250372 -0.154890
C11   C     C_3   0.328623 0.846074 0.326627 0.048070
C12   C     C_R   0.373542 0.349545 0.357903 0.534142
C13   C     C_3   0.438989 0.854642 0.282529 0.290422
C14   C     C_3   0.326920 0.004045 0.258211 -0.112754
C15   C     C_3   0.215678 0.994452 0.304064 -0.181237
C16   C     C_3   0.168012 0.923407 0.226838 -0.126200
C17   C     C_3   0.280449 0.930771 0.182659 0.005858
C18   C     C_3   0.459162 0.271321 0.777358 -0.110949
C19   C     C_3   0.389700 0.410531 0.734487 -0.106343
C20   C     C_3   0.337741 0.332849 0.663149 0.052349
C21   C     C_3   0.407230 0.194502 0.705383 -0.108464
C22   C     C_3   0.265059 0.245382 0.741718 -0.116184
C23   C     C_R   0.708502 0.414800 0.390053 0.563498
C24   C     C_3   0.195744 0.384735 0.698294 -0.126484
C25   C     C_3   0.247509 0.461296 0.771238 -0.117751
C26   C     C_3   0.317880 0.322332 0.812989 0.053826
C27   C     C_1   0.846866 0.328592 0.705697 -0.048209
C28   C     C_1   0.893175 0.295442 0.773074 -0.047229
C29   C     C_1   0.338412 0.812451 0.709739 -0.046888
C30   C     C_1   0.313198 0.839358 0.778531 -0.046572
C31   C     C_R   0.885942 0.312786 0.087923 0.569887
C32   C     C_R   0.320628 0.301266 0.119265 0.527397
C33   C     C_R   0.254370 0.963395 0.098824 0.561619
C34   C     C_R   0.356663 0.771983 0.627117 0.541348
C35   C     C_R   0.942626 0.276444 0.855949 0.551793
C36   C     C_R   0.308252 0.294723 0.892196 0.535619
C37   C     C_R   0.280014 0.884508 0.859069 0.549372
C38   C     C_R   0.367260 0.345021 0.584990 0.542848
C39   C     C_R   0.779174 0.377066 0.628663 0.547370
C40   C     C_1   0.348717 0.342745 0.273878 -0.054661
C41   C     C_1   0.336333 0.331999 0.202526 -0.049845
C42   C     C_3   0.723834 0.290032 0.189017 -0.157155
Cr1   Cr    Cr6+3 0.608340 0.611040 0.520430 1.065120
Cr2   Cr    Cr6+3 0.287650 0.601120 0.489350 1.040445
Cr3   Cr    Cr6+3 0.604040 0.287870 0.490280 1.061155
Cr4   Cr    Cr6+3 0.054020 0.052700 0.970850 1.024687
Cr5   Cr    Cr6+3 0.059230 0.375120 0.993390 1.062920
Cr6   Cr    Cr6+3 0.374950 0.061200 0.992340 1.062357
H1    H     H_    0.527576 0.500451 0.235630 0.090227
H2    H     H_    0.347624 0.096809 0.259407 0.137747
H3    H     H_    0.145869 0.078628 0.347175 0.128346
H4    H     H_    0.056299 0.951381 0.202182 0.154674
H5    H     H_    0.441568 0.478575 0.729316 0.120610
H6    H     H_    0.566322 0.227142 0.811484 0.139081
H7    H     H_    0.470609 0.085423 0.676661 0.136521
H8    H     H_    0.213599 0.177052 0.747020 0.101976
H9    H     H_    0.089049 0.428864 0.663701 0.134139
H10   H     H_    0.184213 0.569875 0.800509 0.137821
H11   H     H_    0.672837 0.230793 0.148906 0.152110
H12   H     H_    0.860880 0.133463 0.291105 0.157043
H13   H     H_    0.046076 0.228417 0.234914 0.110539
H14   H     H_    0.904400 0.493673 0.320695 0.176453
H15   H     H_    0.261951 0.679196 0.247882 0.138583
H16   H     H_    0.451942 0.697415 0.160061 0.175153
O1    O     O_R   0.751220 0.499230 0.435170 -0.490337
O2    O     O_R   0.297880 0.469080 0.560050 -0.498045
O3    O     O_R   0.489720 0.254590 0.564810 -0.506899
O4    O     O_R   0.725220 0.304230 0.585080 -0.488584
O5    O     O_3   0.500010 0.500010 0.500020 -0.295317
O6    O     O_R   0.171830 0.913880 0.057510 -0.510042
O7    O     O_R   0.940690 0.186050 0.054730 -0.528842
O8    O     O_R   0.920470 0.405720 0.075010 -0.446963
O9    O     O_R   0.196690 0.370460 0.084120 -0.490494
O10   O     O_R   0.412990 0.180750 0.091610 -0.509114
O11   O     O_R   0.366620 0.943130 0.065760 -0.453707
O12   O     O_R   0.477220 0.727600 0.436870 -0.475168
O13   O     O_R   0.160510 0.906330 0.879210 -0.512871
O14   O     O_R   0.930190 0.179050 0.889450 -0.494682
O15   O     O_R   0.909140 0.398170 0.896710 -0.490148
O16   O     O_R   0.186190 0.363460 0.918830 -0.515852
O17   O     O_R   0.401670 0.173200 0.913310 -0.513753
O18   O     O_R   0.356120 0.936130 0.900470 -0.485542
O19   O     O_3   0.162740 0.163010 0.985530 -0.316252
O20   O     O_R   0.258650 0.745120 0.411470 -0.513305
O21   O     O_R   0.297070 0.467240 0.395960 -0.501465
O22   O     O_R   0.488830 0.252610 0.387790 -0.485509
O23   O     O_R   0.724400 0.302390 0.420980 -0.500945
O24   O     O_R   0.752100 0.501210 0.612190 -0.506606
O25   O     O_R   0.478040 0.729440 0.600970 -0.497331
O26   O     O_R   0.259530 0.747110 0.588490 -0.504024
Cl1   Cl    Cl    0.717176 0.645185 0.162977 -0.536934
Cl2   Cl    Cl    0.611988 0.824770 0.328145 -0.525419

loop_
_geom_bond_atom_site_label_1
_geom_bond_atom_site_label_2
_ccdc_geom_bond_type
C18   C21   S    
C39   O4    A    
Cr2   O2    S    
C19   C20   S    
C1    C11   S    
Cr5   O15   S    
C3    C6    S    
C10   H15   S    
C7    C8    S    
C1    O20   A    
Cr1   O25   S    
C12   O21   A    
Cr1   O24   S    
Cr5   O16   S    
Cr3   O23   S    
C8    C42   S    
C32   O10   A    
C5    C6    S    
C15   C16   S    
C9    H16   S    
Cr6   O17   S    
C18   C19   S    
C3    C23   S    
C9    C13   S    
C2    C7    S    
C11   C15   S    
C33   O11   A    
C38   O2    A    
C28   C35   S    
C27   C39   S    
C24   H9    S    
C18   C26   S    
Cr3   O3    S    
C32   C41   S    
C15   H3    S    
C9    C10   S    
C19   H5    S    
C31   O7    A    
Cr1   O5    S    
C23   O23   A    
C21   C22   S    
C8    C31   S    
Cr6   O11   S    
C17   C33   S    
C39   O24   A    
Cr3   O5    S    
Cr6   O10   S    
C24   C25   S    
Cr5   O9    S    
C36   O16   A    
C32   O9    A    
C21   H7    S    
C16   C17   S    
C22   H8    S    
C25   C26   S    
C37   O13   A    
C29   C34   S    
C30   C37   S    
C12   C40   S    
C34   O26   A    
C29   C30   T    
C2    H1    S    
C5    C8    S    
C20   C38   S    
C36   O17   A    
Cr1   O1    S    
C7    Cl1   S    
C4    H12   S    
Cr3   O4    S    
C5    H13   S    
Cr2   O5    S    
C20   C21   S    
Cr4   O7    S    
C33   O6    A    
C9    C17   S    
C31   O8    A    
Cr5   O19   S    
C13   Cl2   S    
C22   C24   S    
C37   O18   A    
C25   H10   S    
C3    C4    S    
Cr2   O26   S    
Cr4   O14   S    
C26   C36   S    
Cr1   O12   S    
C40   C41   T    
C1    O12   A    
C16   H4    S    
C4    C5    S    
Cr2   O20   S    
C42   H11   S    
Cr4   O13   S    
C6    C7    S    
C35   O14   A    
Cr6   O19   S    
C12   O22   A    
C23   O1    A    
C2    C3    S    
C34   O25   A    
C10   C16   S    
C11   C13   S    
C6    H14   S    
C14   H2    S    
C4    C42   S    
C2    C42   S    
C35   O15   A    
Cr6   O18   S    
Cr3   O22   S    
C19   C25   S    
Cr5   O8    S    
Cr4   O6    S    
C10   C11   S    
C18   H6    S    
Cr4   O19   S    
C38   O3    A    
C22   C26   S    
C27   C28   T    
C14   C15   S    
C13   C14   S    
C20   C24   S    
Cr2   O21   S    
C14   C17   S    
