data_mof_unit_15037.cif
_audit_creation_date              2012-12-10T17:28:37-0500
_audit_creation_method            fapswitch 2.2
_symmetry_space_group_name_H-M    P1
_symmetry_Int_Tables_number       1
_space_group_crystal_system       triclinic
_cell_length_a                    10.645858
_cell_length_b                    11.944057
_cell_length_c                    12.877724
_cell_angle_alpha                 93.238204
_cell_angle_beta                  91.227583
_cell_angle_gamma                 85.471884
_cell_volume                      1629.5094927

loop_
_atom_site_label
_atom_site_type_symbol
_atom_type_description
_atom_site_fract_x
_atom_site_fract_y
_atom_site_fract_z
_atom_type_partial_charge
C1    C     C_R   0.492141 0.522040 0.700267 0.895262
C2    C     C_R   0.496856 0.562166 0.132021 -0.279851
C3    C     C_R   0.479407 0.447638 0.973621 0.186134
C4    C     C_R   0.488252 0.554217 0.025351 0.183960
C5    C     C_R   0.384366 0.955936 0.399521 -0.287802
C6    C     C_R   0.618068 0.043523 0.598386 -0.288695
C7    C     C_R   0.395074 0.839294 0.409731 0.011246
C8    C     C_R   0.606657 0.160197 0.588643 0.042532
C9    C     C_R   0.550769 0.857160 0.542947 -0.048218
C10   C     C_R   0.449485 0.142733 0.456817 -0.036783
C11   C     C_R   0.543069 0.974861 0.535656 0.072328
C12   C     C_R   0.501056 0.478076 0.299316 0.899110
C13   C     C_R   0.458088 0.024831 0.463310 0.095011
C14   C     C_R   0.741793 0.500449 0.503314 0.924826
C15   C     C_R   0.262952 0.503869 0.519420 0.916335
C16   C     C_R   0.883595 0.367457 0.664180 0.178917
C17   C     C_R   0.097478 0.724718 0.543487 0.222497
C18   C     C_R   0.952307 0.276379 0.709784 0.154335
C19   C     C_R   0.029923 0.812357 0.491853 0.129396
C20   C     C_R   0.081584 0.259256 0.695062 -0.150120
C21   C     C_R   0.927755 0.787946 0.427333 -0.203177
C22   C     C_R   0.143813 0.336168 0.642221 -0.198759
C23   C     C_R   0.496556 0.465323 0.187841 -0.058785
C24   C     C_R   0.881281 0.682065 0.426029 -0.187768
C25   C     C_R   0.075026 0.423682 0.591090 0.031702
C26   C     C_R   0.936965 0.599086 0.490517 0.022405
C27   C     C_R   0.942761 0.429177 0.590306 0.039379
C28   C     C_R   0.057342 0.613550 0.529876 0.025440
C29   C     C_R   0.132335 0.514161 0.551075 -0.199919
C30   C     C_R   0.876161 0.505821 0.523417 -0.176144
C31   C     C_3   0.790457 0.517806 0.778285 -0.755199
C32   C     C_3   0.167186 0.738744 0.723750 -0.757169
C33   C     C_R   0.482639 0.535582 0.811209 -0.046285
C34   C     C_R   0.490104 0.651158 0.969728 -0.215357
C35   C     C_R   0.478732 0.350638 0.029407 -0.195840
C36   C     C_R   0.487776 0.641798 0.862260 -0.220668
C37   C     C_R   0.487623 0.359435 0.136917 -0.190019
C38   C     C_R   0.474564 0.439425 0.866746 -0.285898
H1    H     H_    0.879224 0.853035 0.382955 0.179499
H2    H     H_    0.493485 0.716671 0.819428 0.164914
H3    H     H_    0.496265 0.733221 0.009134 0.145019
H4    H     H_    0.472180 0.268596 0.990053 0.148286
H5    H     H_    0.384439 0.182795 0.401967 0.137123
H6    H     H_    0.615526 0.817095 0.598028 0.134432
H7    H     H_    0.664840 0.212914 0.636396 0.147127
H8    H     H_    0.337623 0.786130 0.361049 0.144346
H9    H     H_    0.718675 0.361800 0.747680 0.249746
H10   H     H_    0.738546 0.591035 0.743411 0.239919
H11   H     H_    0.891438 0.535365 0.786669 0.239217
H12   H     H_    0.135885 0.192708 0.733625 0.180905
H13   H     H_    0.754341 0.509217 0.857538 0.248027
H14   H     H_    0.242017 0.819798 0.603339 0.255501
H15   H     H_    0.250670 0.756358 0.773317 0.239447
H16   H     H_    0.142383 0.652208 0.737197 0.236668
H17   H     H_    0.087475 0.800190 0.746861 0.255460
H18   H     H_    0.318605 0.991849 0.342819 0.165378
H19   H     H_    0.684930 0.007459 0.654202 0.179390
H20   H     H_    0.245259 0.329661 0.648873 0.179844
H21   H     H_    0.800554 0.667729 0.376161 0.175545
H22   H     H_    0.504128 0.644271 0.171271 0.161431
H23   H     H_    0.468717 0.357351 0.827076 0.161258
H24   H     H_    0.486561 0.284164 0.179938 0.163572
I1    I     I_    0.872428 0.172682 0.815223 -0.450125
I2    I     I_    0.070592 0.983475 0.511514 -0.440991
N1    N     N_R   0.523130 0.207800 0.519340 -0.113537
N2    N     N_R   0.476870 0.792200 0.480660 -0.108318
N3    N     N_2   0.772492 0.416644 0.713162 -0.294231
N4    N     N_2   0.196607 0.748875 0.615714 -0.276097
O1    O     O_R   0.506170 0.421700 0.658830 -0.644478
O2    O     O_R   0.493830 0.578300 0.341170 -0.632707
O3    O     O_R   0.491330 0.609310 0.646410 -0.625548
O4    O     O_R   0.508670 0.390690 0.353590 -0.620514
O5    O     O_R   0.690650 0.406190 0.506220 -0.599153
O6    O     O_R   0.309350 0.593810 0.493780 -0.604907
O7    O     O_R   0.675800 0.593810 0.493800 -0.629025
O8    O     O_R   0.324200 0.406190 0.506200 -0.630299
Zn1   Zn    Zn3+2 0.509910 0.374730 0.508290 0.947674
Zn2   Zn    Zn3+2 0.490090 0.625270 0.491710 0.941841

loop_
_geom_bond_atom_site_label_1
_geom_bond_atom_site_label_2
_ccdc_geom_bond_type
O2    Zn2   S    
C5    H18   S    
O1    Zn1   S    
C37   H24   S    
C1    C33   S    
C31   N3    S    
C12   C23   S    
C1    O3    A    
C28   C29   A    
C35   C37   A    
C14   C30   S    
C2    H22   S    
C18   I1    S    
C33   C36   A    
C32   H16   S    
C35   H4    S    
C8    H7    S    
C20   H12   S    
C9    N2    A    
C3    C38   A    
C17   N4    S    
C22   C25   A    
C32   H17   S    
C18   C20   A    
H14   N4    S    
C32   N4    S    
C38   H23   S    
C16   C27   A    
C15   O8    A    
C12   O4    A    
C8    N1    A    
C27   C30   A    
C6    H19   S    
C34   H3    S    
C31   H11   S    
H9    N3    S    
C15   C29   S    
C25   C29   A    
N2    Zn2   S    
C4    C34   A    
N1    Zn1   S    
C7    H8    S    
C36   H2    S    
O8    Zn1   S    
C6    C11   A    
C5    C7    A    
C6    C8    A    
C23   C37   A    
C1    O1    A    
C2    C4    A    
C14   O5    A    
O4    Zn1   S    
C21   H1    S    
C3    C35   A    
C19   I2    S    
C16   N3    S    
C9    C11   A    
C20   C22   A    
C26   C30   A    
C31   H10   S    
C3    C4    A    
C32   H15   S    
C10   N1    A    
C12   O2    A    
C9    H6    S    
C19   C21   A    
C10   H5    S    
C17   C28   A    
C5    C13   A    
C24   C26   A    
C31   H13   S    
C10   C13   A    
C22   H20   S    
C25   C27   A    
C26   C28   A    
C33   C38   A    
C14   O7    A    
C7    N2    A    
C11   C13   A    
C24   H21   S    
C17   C19   A    
C34   C36   A    
O7    Zn2   S    
C15   O6    A    
C16   C18   A    
O6    Zn2   S    
C21   C24   A    
C2    C23   A    
O5    Zn1   S    
O3    Zn2   S    
