data_mof_unit_33280.cif
_audit_creation_date              2012-12-11T15:55:44-0500
_audit_creation_method            fapswitch 2.2
_symmetry_space_group_name_H-M    P1
_symmetry_Int_Tables_number       1
_space_group_crystal_system       triclinic
_cell_length_a                    6.933802
_cell_length_b                    14.665334
_cell_length_c                    16.012572
_cell_angle_alpha                 90.083778
_cell_angle_beta                  89.503252
_cell_angle_gamma                 90.440159
_cell_volume                      1628.1519321

loop_
_atom_site_label
_atom_site_type_symbol
_atom_type_description
_atom_site_fract_x
_atom_site_fract_y
_atom_site_fract_z
_atom_type_partial_charge
O1    O     O_R   0.505680 0.583900 0.413320 -0.504115
O2    O     O_R   0.176010 0.594950 0.586080 -0.541172
O3    O     O_R   0.005680 0.416100 0.586680 -0.549485
C1    C     C_R   0.345236 0.614939 0.616876 0.696289
O4    O     O_R   0.175960 0.594930 0.413930 -0.521555
O5    O     O_R   0.005640 0.416080 0.413300 -0.530890
C2    C     C_R   0.347661 0.618851 0.386576 0.802195
O6    O     O_R   0.505720 0.583920 0.586700 -0.528385
O7    O     O_3   0.339190 0.441320 0.500000 -0.393714
V1    V     V_3+5 0.064350 0.510890 0.500000 1.497452
O8    O     O_R   0.675920 0.405050 0.413920 -0.542566
C3    C     C_R   0.845392 0.387211 0.381605 0.726564
O9    O     O_R   0.675960 0.405070 0.586070 -0.544081
C4    C     C_R   0.844407 0.379776 0.612271 0.708347
V2    V     V_3+5 0.564340 0.489110 0.500000 1.485568
O10   O     O_3   0.839370 0.558680 0.500000 -0.344849
C5    C     C_R   0.005680 0.245547 0.684098 0.008738
C6    C     C_R   0.850303 0.306388 0.676530 -0.132252
C7    C     C_R   0.699161 0.297435 0.735484 -0.066265
H1    H     H_    0.576298 0.341975 0.732089 0.151569
C8    C     C_R   0.711711 0.235886 0.802986 -0.137639
H2    H     H_    0.596268 0.231730 0.848276 0.163464
C9    C     C_R   0.878655 0.184564 0.816030 -0.083303
C10   C     C_R   0.024913 0.192849 0.756188 0.033056
C11   C     C_3   0.228324 0.223794 0.766985 -0.064267
C12   C     C_3   0.217946 0.264504 0.679766 0.207779
H3    H     H_    0.329435 0.165826 0.773225 0.142253
H4    H     H_    0.261580 0.337472 0.675183 0.108153
C13   C     C_R   0.031548 0.261075 0.185879 0.158136
C14   C     C_R   0.020442 0.325487 0.251984 0.106629
C15   C     C_R   0.858773 0.325251 0.307511 -0.128176
C16   C     C_R   0.704963 0.265824 0.290729 -0.168916
H5    H     H_    0.577830 0.265800 0.330155 0.153109
C17   C     C_R   0.713761 0.204053 0.224599 -0.147646
H6    H     H_    0.591056 0.159414 0.214820 0.157275
C18   C     C_R   0.879847 0.196681 0.174323 -0.124130
C19   C     C_R   0.207860 0.744283 0.700238 -0.164054
H7    H     H_    0.083119 0.743920 0.659985 0.138361
C20   C     C_R   0.217310 0.809144 0.764443 -0.135715
H8    H     H_    0.099220 0.856410 0.772225 0.120736
C21   C     C_R   0.378629 0.814129 0.816871 -0.074619
C22   C     C_R   0.528284 0.751733 0.804646 -0.167101
H9    H     H_    0.651740 0.753033 0.845638 0.146052
C23   C     C_R   0.518619 0.685131 0.741921 0.157756
C24   C     C_R   0.358143 0.681708 0.687187 -0.077690
C25   C     C_R   0.218036 0.757293 0.313364 0.330599
C26   C     C_R   0.212746 0.812641 0.241341 0.350242
C27   C     C_R   0.375994 0.818078 0.187472 -0.244723
C28   C     C_R   0.536158 0.763829 0.205022 -0.338538
H10   H     H_    0.664713 0.774169 0.167911 0.188521
C29   C     C_R   0.531866 0.697964 0.269364 0.412688
C30   C     C_R   0.366345 0.692284 0.322297 -0.292631
O11   O     O_R   0.229200 0.915950 0.913350 -0.544199
O12   O     O_R   0.559090 0.905000 0.086080 -0.544278
O13   O     O_R   0.729280 0.083880 0.086680 -0.538805
C31   C     C_R   0.388633 0.883852 0.116086 0.754553
O14   O     O_R   0.558920 0.904980 0.913920 -0.548518
O15   O     O_R   0.729110 0.083860 0.913300 -0.545250
C32   C     C_R   0.389845 0.883041 0.884902 0.685019
O16   O     O_R   0.229360 0.915970 0.086730 -0.521974
O17   O     O_3   0.395680 0.058580 0.000030 -0.354410
V3    V     V_3+5 0.670570 0.989070 0.999990 1.451368
O18   O     O_R   0.058820 0.094950 0.913870 -0.530506
C33   C     C_R   0.890340 0.118048 0.885824 0.716069
O19   O     O_R   0.058990 0.094970 0.086020 -0.530806
C34   C     C_R   0.889699 0.122229 0.110476 0.718521
V4    V     V_3+5 0.170560 0.010930 0.999930 1.493421
O20   O     O_3   0.895590 0.941310 0.999960 -0.369568
I1    I     I_    0.748018 0.589416 0.742338 -0.386384
O21   O     O_3   0.075233 0.768783 0.373862 -0.551028
C35   C     C_3   0.151594 0.796156 0.452862 0.103172
H11   H     H_    0.219953 0.738928 0.485646 0.113490
H12   H     H_    0.027291 0.815356 0.493248 0.130850
C36   C     C_3   0.293346 0.877872 0.450437 -0.427252
H13   H     H_    0.419358 0.862372 0.409803 0.196827
H14   H     H_    0.220905 0.939205 0.426192 0.197066
C37   C     C_3   0.368807 0.899551 0.537582 -0.807220
H15   H     H_    0.247738 0.917595 0.580233 0.232265
H16   H     H_    0.470894 0.958136 0.534233 0.234838
H17   H     H_    0.446555 0.839994 0.563200 0.232715
O22   O     O_3   0.039793 0.852079 0.218786 -0.562813
C38   C     C_3   0.009305 0.935486 0.261203 0.174229
H18   H     H_    0.969682 0.985774 0.213156 0.135577
H19   H     H_    0.140724 0.964156 0.291185 0.034369
C39   C     C_3   0.842354 0.925998 0.325013 -0.259676
H20   H     H_    0.757465 0.863076 0.312899 0.240830
H21   H     H_    0.900157 0.921223 0.388972 0.191969
C40   C     C_3   0.706386 0.006845 0.323625 -0.915491
H22   H     H_    0.788485 0.070583 0.335812 0.245111
H23   H     H_    0.594791 0.999211 0.373182 0.237983
H24   H     H_    0.633348 0.010074 0.262315 0.234802
O23   O     O_3   0.693867 0.646641 0.289726 -0.538451
C41   C     C_3   0.798704 0.611992 0.220340 0.125913
H25   H     H_    0.929725 0.579474 0.245710 0.161655
H26   H     H_    0.855647 0.665774 0.178240 0.122417
C42   C     C_3   0.685176 0.538281 0.173191 -0.368955
H27   H     H_    0.654718 0.480679 0.216314 0.234392
H28   H     H_    0.546242 0.566039 0.150870 0.217564
C43   C     C_3   0.798832 0.502531 0.098144 -0.705230
H29   H     H_    0.827146 0.558419 0.052820 0.232289
H30   H     H_    0.714222 0.448071 0.066632 0.265318
H31   H     H_    0.938136 0.473465 0.118357 0.252626
I2    I     I_    0.240935 0.330416 0.860548 -0.377405
O24   O     O_3   0.313391 0.205833 0.622646 -0.576236
C44   C     C_3   0.278773 0.231054 0.539026 0.124054
H32   H     H_    0.396481 0.277253 0.517727 0.147372
H33   H     H_    0.137628 0.265268 0.530485 0.119070
C45   C     C_3   0.281809 0.145545 0.484292 -0.335774
H34   H     H_    0.432582 0.121042 0.478125 0.192153
H35   H     H_    0.193329 0.090957 0.514246 0.218262
C46   C     C_3   0.201008 0.164214 0.397680 -0.842410
H36   H     H_    0.043024 0.175323 0.401993 0.229723
H37   H     H_    0.228480 0.105076 0.356164 0.225037
H38   H     H_    0.269993 0.225528 0.369835 0.247388
I3    I     I_    0.271287 0.268879 0.099763 -0.330045
I4    I     I_    0.244610 0.426424 0.261574 -0.460646

loop_
_geom_bond_atom_site_label_1
_geom_bond_atom_site_label_2
_ccdc_geom_bond_type
O15   V3    S    
O13   V3    S    
C41   H25   S    
C21   C22   A    
C4    C6    S    
C7    H1    S    
C1    O6    A    
O22   C38   S    
O11   C32   A    
O14   V3    S    
C20   C21   A    
C14   I4    S    
C37   H15   S    
O19   C34   A    
C44   H33   S    
C13   C18   A    
C19   H7    S    
C36   H14   S    
C5    C12   S    
C7    C8    A    
C2    C30   S    
C6    C7    A    
O5    C3    A    
C14   C15   A    
C18   C34   S    
C37   H17   S    
V2    O10   S    
C42   C43   S    
C25   C30   A    
C45   H34   S    
C17   H6    S    
C12   O24   S    
O8    V2    S    
C43   H29   S    
O16   V4    S    
O19   V4    S    
C36   C37   S    
C42   H28   S    
C9    C10   A    
O21   C35   S    
O1    V2    S    
O7    V1    S    
C37   H16   S    
C13   I3    S    
C41   H26   S    
O9    C4    A    
C22   C23   A    
O4    V1    S    
O24   C44   S    
O18   V4    S    
C1    C24   S    
C39   H21   S    
O15   C33   A    
C44   C45   S    
O12   C31   A    
C5    C10   A    
C36   H13   S    
V4    O20   S    
C10   C11   S    
C21   C32   S    
C20   H8    S    
C35   H12   S    
C11   I2    S    
O6    V2    S    
O12   V3    S    
C28   C29   A    
C11   C12   S    
C39   H20   S    
C31   O16   A    
C16   C17   A    
O2    C1    A    
C13   C14   A    
C29   O23   S    
O17   V4    S    
C26   C27   A    
C40   H24   S    
C42   H27   S    
C5    C6    A    
C23   I1    S    
C46   H37   S    
O3    C4    A    
C9    C33   S    
C43   H30   S    
C40   H23   S    
C38   H18   S    
C41   C42   S    
C38   H19   S    
C8    C9    A    
C3    C15   S    
C22   H9    S    
C19   C24   A    
O2    V1    S    
O13   C34   A    
C23   C24   A    
O4    C2    A    
C39   C40   S    
C27   C31   S    
C25   C26   A    
C27   C28   A    
C46   H36   S    
O1    C2    A    
C15   C16   A    
O5    V1    S    
C35   C36   S    
O8    C3    A    
C11   H3    S    
C38   C39   S    
C44   H32   S    
C12   H4    S    
C45   C46   S    
V3    O20   S    
C16   H5    S    
O9    V2    S    
O7    V2    S    
C29   C30   A    
C19   C20   A    
O3    V1    S    
V1    O10   S    
O23   C41   S    
C45   H35   S    
C46   H38   S    
C17   C18   A    
C26   O22   S    
O17   V3    S    
O11   V4    S    
C25   O21   S    
O14   C32   A    
O18   C33   A    
C35   H11   S    
C43   H31   S    
C40   H22   S    
C28   H10   S    
C8    H2    S    
