data_mof_unit_47125.cif
_audit_creation_date              2013-03-05T15:47:02-0500
_audit_creation_method            fapswitch 2.2
_symmetry_space_group_name_H-M    P1
_symmetry_Int_Tables_number       1
_space_group_crystal_system       triclinic
_cell_length_a                    8.231004
_cell_length_b                    17.334099
_cell_length_c                    18.983097
_cell_angle_alpha                 98.031928
_cell_angle_beta                  94.36326
_cell_angle_gamma                 97.287445
_cell_volume                      2648.05979308

loop_
_atom_site_label
_atom_site_type_symbol
_atom_site_description
_atom_site_fract_x
_atom_site_fract_y
_atom_site_fract_z
_atom_type_partial_charge
P1    P     P_3+3 0.992230 0.679190 0.566750 0.504796
O1    O     O_2   0.166667 0.691630 0.546720 -0.304604
O2    O     O_3   0.893830 0.593690 0.541700 -0.423093
O3    O     O_3   0.390350 0.644650 0.417800 -0.389503
O4    O     O_2   0.347679 0.785529 0.483680 -0.309114
O5    O     O_3   0.020930 0.697361 0.660275 -0.539079
O6    O     O_3   0.355445 0.771833 0.343862 -0.527207
H1    H     H_    0.315430 0.662049 0.281495 0.151260
C1    C     C_3   0.373115 0.753121 0.217291 -0.936721
H2    H     H_    0.243545 0.762867 0.206577 0.291977
H3    H     H_    0.454812 0.809971 0.221021 0.255650
P2    P     P_3+3 0.339610 0.439630 0.337240 0.483882
P3    P     P_3+3 0.932294 0.601831 0.287311 0.430283
O7    O     O_2   0.171750 0.463380 0.328050 -0.380388
O8    O     O_3   0.965290 0.605410 0.380210 -0.393711
O9    O     O_2   0.054322 0.551409 0.251810 -0.400038
O10   O     O_3   0.305736 0.337351 0.312607 -0.529412
O11   O     O_3   0.993113 0.695611 0.266165 -0.521235
C2    C     C_3   0.935203 0.751009 0.315792 0.459575
H4    H     H_    0.998240 0.752757 0.370069 0.121833
H5    H     H_    0.800476 0.736956 0.316598 0.004002
C3    C     C_3   0.970317 0.832299 0.294242 -0.943099
H6    H     H_    0.104914 0.849784 0.294780 0.287785
H7    H     H_    0.910413 0.832237 0.239794 0.260897
C4    C     C_3   0.766504 0.365011 0.308318 0.226965
H8    H     H_    0.633101 0.368449 0.306523 0.107132
H9    H     H_    0.835872 0.421136 0.337023 0.091447
C5    C     C_3   0.818437 0.354777 0.232132 -0.073934
H10   H     H_    0.788805 0.405056 0.205634 0.092119
H11   H     H_    0.953951 0.355238 0.235085 0.144715
Ba1   Ba    Ba6+2 0.162080 0.538580 0.468810 1.587483
C6    C     C_3   0.051032 0.628896 0.687268 0.463092
H12   H     H_    0.936646 0.586451 0.681291 0.102143
C7    C     C_3   0.110781 0.650489 0.766574 -0.951276
H13   H     H_    0.229624 0.689973 0.773991 0.304826
H14   H     H_    0.021770 0.681399 0.796394 0.250531
C8    C     C_3   0.246131 0.301684 0.368897 0.414551
H15   H     H_    0.129640 0.322751 0.382457 0.083700
H16   H     H_    0.337311 0.314220 0.416647 0.125497
C9    C     C_3   0.214049 0.213189 0.344856 -0.880945
H17   H     H_    0.118982 0.199013 0.298476 0.276192
H18   H     H_    0.170190 0.182608 0.388705 0.205545
H19   H     H_    0.329346 0.191433 0.329163 0.279357
P4    P     P_3+3 0.818060 0.320800 0.433200 0.488899
O12   O     O_2   0.643630 0.308330 0.453260 -0.355715
O13   O     O_3   0.916470 0.406310 0.458240 -0.408991
O14   O     O_3   0.419940 0.355340 0.582140 -0.383421
O15   O     O_3   0.799397 0.299459 0.339799 -0.540005
P5    P     P_3+3 0.866349 0.390501 0.711468 0.487281
O16   O     O_3   0.383960 0.539280 0.585630 -0.375464
O17   O     O_3   0.845010 0.394580 0.619730 -0.400779
O18   O     O_2   0.742619 0.440177 0.746752 -0.360328
O19   O     O_3   0.800218 0.294331 0.725534 -0.465235
Ba2   Ba    Ba6+2 0.648090 0.461410 0.531130 1.572370
P6    P     P_3+3 0.438986 0.745827 0.423283 0.502301
C10   C     C_3   0.396302 0.719241 0.286479 0.469911
H20   H     H_    0.526308 0.708554 0.293176 -0.003014
H21   H     H_    0.404917 0.711468 0.172128 0.216913
O20   O     O_3   0.426330 0.460710 0.414310 -0.401417
C11   C     C_3   0.583435 0.706558 0.673428 0.836875
H22   H     H_    0.636323 0.673116 0.628370 -0.012808
C12   C     C_3   0.720816 0.745106 0.730378 -0.930885
H23   H     H_    0.775733 0.698607 0.754096 0.230153
H24   H     H_    0.815832 0.782540 0.707138 0.260347
H25   H     H_    0.670625 0.782508 0.773594 0.258284
P7    P     P_3+3 0.459775 0.558373 0.675513 0.435380
O21   O     O_2   0.638540 0.536570 0.671920 -0.383569
O22   O     O_3   0.470147 0.659264 0.706725 -0.617767
H26   H     H_    0.921172 0.876008 0.332469 0.217120
C13   C     C_3   0.844597 0.241789 0.669319 0.448334
H27   H     H_    0.770769 0.245142 0.618738 0.146208
H28   H     H_    0.977058 0.254511 0.662104 -0.004496
C14   C     C_3   0.811333 0.158314 0.686053 -0.817571
H29   H     H_    0.678538 0.142633 0.691890 0.297273
H30   H     H_    0.846773 0.116430 0.642019 0.203267
H31   H     H_    0.884350 0.153281 0.736461 0.257587
P8    P     P_3+3 0.382107 0.253636 0.577780 0.456409
C15   C     C_3   0.366908 0.284529 0.713232 0.302161
H32   H     H_    0.241780 0.295146 0.694772 -0.029183
O23   O     O_2   0.506690 0.217010 0.530909 -0.391413
O24   O     O_3   0.427780 0.230239 0.663214 -0.522350
H33   H     H_    0.449686 0.341524 0.722141 0.150519
C16   C     C_3   0.354578 0.252255 0.783778 -0.102900
H34   H     H_    0.292574 0.190342 0.772997 0.142617
C17   C     C_2   0.741607 0.724940 0.490313 -0.303955
C18   C     C_3   0.666756 0.772000 0.438433 0.081566
C19   C     C_2   0.720767 0.859045 0.458076 -0.144810
C20   C     C_2   0.860870 0.886319 0.501257 0.124905
C21   C     C_2   0.949209 0.827845 0.535261 -0.224107
C22   C     C_1   0.885775 0.752151 0.526642 0.248827
C23   C     C_R   0.106591 0.139168 0.529661 -0.278046
C24   C     C_R   0.170074 0.218985 0.539466 0.248150
C25   C     C_R   0.922691 0.248821 0.477124 0.309701
C26   C     C_R   0.859158 0.168350 0.466334 -0.257768
C27   C     C_R   0.948683 0.112895 0.493965 0.105431
C28   C     C_2   0.928602 0.972146 0.516906 -0.149644
C29   C     C_2   0.878963 0.027786 0.479646 -0.152142
C30   C     C_R   0.075597 0.273668 0.515920 -0.527020
H35   H     H_    0.782698 0.011527 0.436056 0.130770
H36   H     H_    0.183661 0.098206 0.547382 0.156325
H37   H     H_    0.024421 0.989172 0.560762 0.141888
H38   H     H_    0.648843 0.897659 0.433089 0.128654
H39   H     H_    0.741145 0.148887 0.435611 0.164315
H40   H     H_    0.680590 0.666340 0.493244 0.151851
H41   H     H_    0.126075 0.335289 0.523521 0.173842
C31   C     C_R   0.614386 0.532774 0.300798 -0.539475
C32   C     C_R   0.458924 0.492059 0.276235 0.308918
C33   C     C_R   0.403388 0.483314 0.203625 -0.179221
C34   C     C_R   0.507108 0.511036 0.154179 0.059681
C35   C     C_R   0.666453 0.549969 0.179671 -0.265040
C36   C     C_R   0.719866 0.560122 0.252826 0.225668
C37   C     C_R   0.477861 0.561607 0.037599 -0.193254
C38   C     C_R   0.423390 0.553458 0.965047 -0.149191
C39   C     C_R   0.338200 0.481873 0.928832 0.121849
C40   C     C_R   0.307839 0.418695 0.966960 -0.209344
C41   C     C_R   0.365094 0.425347 0.039655 0.333685
C42   C     C_R   0.450423 0.498298 0.076142 -0.002130
C43   C     C_R   0.127283 0.434545 0.822728 -0.294564
C44   C     C_R   0.078141 0.428855 0.749499 0.238791
C45   C     C_R   0.342302 0.498409 0.731571 0.296001
C46   C     C_R   0.392128 0.504571 0.804478 -0.227870
C47   C     C_R   0.285758 0.472404 0.850908 0.043154
C48   C     C_R   0.188262 0.458205 0.704043 -0.513688
H42   H     H_    0.446255 0.603746 0.937370 0.133495
H43   H     H_    0.540197 0.618218 0.064022 0.141858
H44   H     H_    0.245522 0.362685 0.939212 0.170498
H45   H     H_    0.040749 0.412227 0.857735 0.182092
H46   H     H_    0.750421 0.570039 0.142692 0.160610
H47   H     H_    0.149375 0.455270 0.647865 0.165548
H48   H     H_    0.657500 0.538727 0.356845 0.179589
N1    N     N_R   0.738754 0.281423 0.188537 0.305412
O25   O     O_R   0.782620 0.262298 0.124746 -0.274809
O26   O     O_R   0.619707 0.236770 0.210634 -0.291641
H49   H     H_    0.145942 0.601155 0.658828 0.102058
H50   H     H_    0.125993 0.596982 0.790516 0.214006
N2    N     N_R   0.502819 0.768552 0.646441 0.229589
O27   O     O_R   0.584095 0.817595 0.611501 -0.425668
O28   O     O_R   0.361558 0.783550 0.667224 -0.333855
H51   H     H_    0.277876 0.287027 0.818009 0.074328
N3    N     N_R   0.517111 0.256446 0.821674 0.300564
O29   O     O_R   0.575259 0.192276 0.832480 -0.313076
O30   O     O_R   0.598109 0.324315 0.850499 -0.339518
H52   H     H_    0.063184 0.848306 0.569142 0.176552
H53   H     H_    0.511826 0.536474 0.825146 0.153164
H54   H     H_    0.281140 0.452765 0.185537 0.161794
N4    N     N_R   0.342160 0.356498 0.074004 0.236127
O31   O     O_R   0.210920 0.304976 0.056288 -0.330685
O32   O     O_R   0.461423 0.339563 0.115464 -0.337517

loop_
_geom_bond_atom_site_label_1
_geom_bond_atom_site_label_2
_geom_bond_distance
_ccdc_geom_bond_type
O5    C6    1.399157 S    
C19   C20   1.354558 D    
C20   C28   1.501105 S    
P8    C24   1.831516 S    
P1    C22   1.842751 S    
C14   H29   1.110118 S    
P7    O22   1.755481 S    
C2    H4    1.112499 S    
O6    P6    1.749268 S    
O7    Ba1   2.816158 S    
H1    C10   1.109804 S    
C16   H51   1.110688 S    
C39   C40   1.401877 A    
C24   C30   1.398392 A    
C17   C18   1.508181 S    
C41   C42   1.424083 A    
C4    C5    1.532139 S    
O16   Ba2   2.883630 S    
C40   H44   1.082969 S    
P3    O11   1.749495 S    
C5    H10   1.108981 S    
C2    H5    1.106529 S    
C8    H15   1.104130 S    
N3    O30   1.301366 A    
C7    H13   1.107880 S    
C8    C9    1.521306 S    
C37   C42   1.406153 A    
O2    Ba2   2.832351 S    
C31   C32   1.393215 A    
C40   C41   1.408012 A    
P1    Ba1   3.368299 S    
C33   C34   1.408812 A    
C11   C12   1.521294 S    
P1    O1    1.509968 D    
C43   C47   1.413108 A    
Ba1   O20   2.884459 S    
C43   C44   1.404197 A    
C37   C38   1.397661 A    
C12   H24   1.109550 S    
P4    C25   1.856808 S    
C35   C36   1.404262 A    
P2    O20   1.552097 S    
C15   C16   1.527198 S    
C9    H19   1.110849 S    
P5    O17   1.749171 S    
Ba1   O13   2.831583 S    
P2    O10   1.750059 S    
C32   C33   1.399993 A    
C13   H27   1.109215 S    
C23   H36   1.080866 S    
C1    H2    1.108882 S    
C11   N2    1.463059 S    
C3    H26   1.110425 S    
C10   H20   1.109832 S    
C45   C48   1.392695 A    
Ba2   O20   2.760547 S    
C9    H18   1.106645 S    
P7    O21   1.568979 D    
P7    C45   1.832604 S    
C28   H37   1.083785 S    
C48   H47   1.082159 S    
C14   H30   1.110029 S    
C46   H53   1.082942 S    
O6    C10   1.409525 S    
O19   C13   1.404930 S    
C16   N3    1.458360 S    
C29   H35   1.081839 S    
P4    O13   1.587143 S    
N4    O32   1.299755 A    
C31   C36   1.394391 A    
C3    H6    1.109755 S    
C8    H16   1.110037 S    
N4    O31   1.301406 A    
C34   C42   1.496064 S    
P1    O5    1.751595 S    
C2    C3    1.520581 S    
N3    O29   1.300896 A    
N2    O28   1.301144 A    
C23   C24   1.397056 A    
C15   H32   1.108430 S    
O11   C2    1.403030 S    
Ba2   O21   2.816277 S    
N1    O26   1.302346 A    
C4    H8    1.105385 S    
C21   H52   1.086082 S    
C11   H22   1.113220 S    
P1    O2    1.586996 S    
C6    C7    1.526960 S    
C12   H23   1.104347 S    
C19   H38   1.081665 S    
C1    H3    1.110616 S    
C15   H33   1.110816 S    
C30   H41   1.081480 S    
C16   H34   1.112609 S    
P8    O24   1.750933 S    
P5    O18   1.546723 D    
C28   C29   1.357962 D    
O13   Ba2   2.887505 S    
C13   C14   1.520120 S    
C37   H43   1.083217 S    
C1    C10   1.520595 S    
O10   C8    1.397209 S    
O2    Ba1   2.886664 S    
O16   P7    1.743003 S    
C4    O15   1.401700 S    
C46   C47   1.408968 A    
C17   H40   1.085240 S    
O14   Ba2   2.782628 S    
C9    H17   1.110764 S    
P2    O7    1.495523 D    
O12   Ba2   2.845779 S    
P3    O8    1.754945 S    
O3    P6    1.735357 S    
C14   H31   1.110671 S    
C3    H7    1.110605 S    
C43   H45   1.082851 S    
O14   P8    1.740067 S    
Ba1   O16   2.761139 S    
N1    O25   1.300529 A    
P4    O12   1.510140 D    
C38   C39   1.404114 A    
P8    O23   1.546744 D    
C31   H48   1.082185 S    
C1    H21   1.110834 S    
C12   H25   1.111258 S    
C18   C19   1.503563 S    
O4    P6    1.547494 D    
N2    O27   1.300383 A    
C33   H54   1.082696 S    
C26   H39   1.083133 S    
P2    C32   1.836363 S    
C17   C22   1.322412 D    
C27   C29   1.493018 S    
O8    Ba1   2.720375 S    
C44   C48   1.396309 A    
C4    H9    1.110406 S    
C25   C26   1.407113 A    
C5    N1    1.464099 S    
C6    H12   1.106940 S    
O17   Ba2   2.721020 S    
P6    C18   1.862542 S    
C5    H11   1.111509 S    
P2    Ba1   3.362925 S    
C34   C35   1.413308 A    
C6    H49   1.104495 S    
C41   N4    1.436703 S    
C15   O24   1.407304 S    
P5    C44   1.839153 S    
C38   H42   1.082935 S    
C7    H50   1.105028 S    
P5    O19   1.750111 S    
C7    H14   1.105544 S    
Ba1   Ba2   4.502379 S    
C26   C27   1.415603 A    
O3    Ba1   2.783234 S    
C23   C27   1.409068 A    
C39   C47   1.489433 S    
P4    Ba2   3.368749 S    
C20   C21   1.507029 S    
C11   O22   1.407705 S    
P3    C36   1.838848 S    
P3    O9    1.545328 D    
C45   C46   1.398672 A    
O1    Ba1   2.845475 S    
C13   H28   1.107369 S    
C21   C22   1.331968 D    
C25   C30   1.394517 A    
P4    O15   1.750706 S    
C35   H46   1.082846 S    
