data_mof_unit_37112.cif
_audit_creation_date              2012-12-10T18:06:37-0500
_audit_creation_method            fapswitch 2.2
_symmetry_space_group_name_H-M    P1
_symmetry_Int_Tables_number       1
_space_group_crystal_system       triclinic
_cell_length_a                    12.627846
_cell_length_b                    13.053816
_cell_length_c                    15.406662
_cell_angle_alpha                 84.614509
_cell_angle_beta                  101.356953
_cell_angle_gamma                 95.4845
_cell_volume                      2471.19508585

loop_
_atom_site_label
_atom_site_type_symbol
_atom_type_description
_atom_site_fract_x
_atom_site_fract_y
_atom_site_fract_z
_atom_type_partial_charge
C1    C     C_R   0.441080 0.308079 0.504032 0.865607
C2    C     C_R   0.674819 0.455978 0.947144 0.009242
C3    C     C_R   0.563363 0.439566 0.908794 -0.022008
C4    C     C_R   0.432486 0.508601 0.335933 0.853369
C5    C     C_R   0.749472 0.487141 0.890066 0.249115
C6    C     C_R   0.710621 0.499269 0.798740 -0.306126
C7    C     C_R   0.535377 0.421003 0.817864 0.173431
C8    C     C_R   0.656539 0.942147 0.376225 -0.215384
C9    C     C_R   0.575441 0.801919 0.462905 -0.077241
C10   C     C_R   0.300751 0.157190 0.525538 0.105969
C11   C     C_R   0.258340 0.055312 0.507626 0.200034
C12   C     C_R   0.433706 0.474038 0.100716 0.110039
C13   C     C_R   0.319166 0.990924 0.472259 0.112259
C14   C     C_R   0.420613 0.030318 0.452277 -0.005255
C15   C     C_R   0.443736 0.137087 0.442913 0.009015
C16   C     C_R   0.554067 0.692151 0.487675 0.857603
C17   C     C_R   0.499626 0.967347 0.439458 0.111213
C18   C     C_R   0.580348 0.007124 0.390926 0.175359
C19   C     C_R   0.582431 0.110918 0.358738 -0.261338
C20   C     C_R   0.514951 0.175864 0.385467 -0.164369
C21   C     C_R   0.504389 0.868253 0.480456 -0.221158
C22   C     C_R   0.652865 0.838960 0.410882 -0.198078
C23   C     C_R   0.330564 0.502853 0.056921 0.171426
C24   C     C_R   0.394644 0.200034 0.490801 -0.181331
C25   C     C_R   0.139198 0.682191 0.582177 0.068155
C26   C     C_R   0.757007 0.367265 0.406209 0.014944
C27   C     C_R   0.849443 0.342061 0.379383 -0.282618
C28   C     C_R   0.565249 0.483354 0.664806 0.855074
C29   C     C_R   0.946782 0.400486 0.404083 -0.181744
C30   C     C_R   0.951193 0.485630 0.454860 0.015163
C31   C     C_R   0.853917 0.510365 0.478303 0.193688
C32   C     C_R   0.049374 0.542131 0.490734 -0.057363
C33   C     C_R   0.045140 0.635006 0.530735 0.089484
C34   C     C_R   0.515599 0.461509 0.052009 -0.033047
C35   C     C_R   0.943965 0.670963 0.527645 -0.271542
C36   C     C_R   0.858021 0.597054 0.527443 0.183414
C37   C     C_R   0.150854 0.505907 0.495030 -0.127579
C38   C     C_R   0.237016 0.636147 0.589697 0.361004
C39   C     C_R   0.388422 0.501946 0.241341 -0.075767
C40   C     C_R   0.604946 0.465255 0.761226 -0.170159
C41   C     C_R   0.258487 0.535274 0.106058 -0.204739
C42   C     C_R   0.289882 0.539697 0.198182 -0.204481
C43   C     C_R   0.451555 0.458148 0.192490 -0.211389
C44   C     C_3   0.942645 0.482976 0.895063 -0.818800
C45   C     C_R   0.483732 0.451669 0.959575 0.034128
C46   C     C_3   0.243457 0.218798 0.578488 -0.838560
C47   C     C_3   0.245331 0.874921 0.356797 -0.746600
C48   C     C_3   0.063269 0.051314 0.460001 -0.787048
C49   C     C_3   0.348955 0.655951 0.735667 -0.764759
C50   C     C_3   0.438543 0.251510 0.833125 -0.804954
C51   C     C_3   0.132651 0.773601 0.634346 -0.989481
C52   C     C_3   0.824892 0.583211 0.615659 -0.822959
C53   C     C_3   0.819663 0.429584 0.087169 -0.874155
C54   C     C_3   0.679467 0.612390 0.180322 -0.745292
C55   C     C_R   0.375402 0.468599 0.918189 -0.171409
C56   C     C_R   0.301763 0.498362 0.965476 -0.263471
C57   C     C_R   0.628315 0.465555 0.091653 0.150945
C58   C     C_R   0.705871 0.451433 0.040490 0.136048
H1    H     H_    0.222135 0.517372 0.930341 0.143561
H2    H     H_    0.016645 0.378787 0.381634 0.137358
H3    H     H_    0.845452 0.277443 0.339328 0.145346
H4    H     H_    0.763163 0.538967 0.758379 0.171725
H5    H     H_    0.180286 0.560384 0.073064 0.137777
H6    H     H_    0.237580 0.571071 0.235178 0.157484
H7    H     H_    0.516774 0.413090 0.226923 0.167169
H8    H     H_    0.347878 0.467188 0.847656 0.184654
H9    H     H_    0.864637 0.608212 0.917777 0.222991
H10   H     H_    0.021680 0.509909 0.935076 0.233909
H11   H     H_    0.943581 0.506341 0.824012 0.235129
H12   H     H_    0.708549 0.788148 0.395634 0.161474
H13   H     H_    0.932662 0.397430 0.904954 0.253301
H14   H     H_    0.182117 0.173128 0.611149 0.221831
H15   H     H_    0.302504 0.252100 0.633219 0.238736
H16   H     H_    0.200773 0.279976 0.534405 0.249075
H17   H     H_    0.217097 0.856674 0.485446 0.258230
H18   H     H_    0.178907 0.923904 0.325118 0.231373
H19   H     H_    0.217028 0.792761 0.347538 0.234020
H20   H     H_    0.315888 0.894456 0.323597 0.249333
H21   H     H_    0.145411 0.013686 0.589497 0.220746
H22   H     H_    0.987463 0.008663 0.474287 0.235115
H23   H     H_    0.639010 0.142624 0.316817 0.133334
H24   H     H_    0.071635 0.036464 0.391961 0.246728
H25   H     H_    0.057137 0.135130 0.463150 0.247649
H26   H     H_    0.355675 0.754427 0.621964 0.202786
H27   H     H_    0.353322 0.728365 0.769204 0.216538
H28   H     H_    0.426064 0.619505 0.760405 0.254379
H29   H     H_    0.280820 0.603767 0.754347 0.229849
H30   H     H_    0.427672 0.346366 0.718302 0.239543
H31   H     H_    0.364152 0.205283 0.803108 0.235481
H32   H     H_    0.435155 0.257548 0.903842 0.259524
H33   H     H_    0.510281 0.210467 0.828824 0.241459
H34   H     H_    0.717601 0.970635 0.337488 0.136708
H35   H     H_    0.084677 0.749096 0.686917 0.254461
H36   H     H_    0.212168 0.808609 0.666421 0.251030
H37   H     H_    0.092579 0.835421 0.589467 0.253283
H38   H     H_    0.753040 0.625492 0.615245 0.253328
H39   H     H_    0.816936 0.499634 0.636618 0.249877
H40   H     H_    0.888982 0.615194 0.669021 0.193027
H41   H     H_    0.862007 0.390223 0.044922 0.263040
H42   H     H_    0.866951 0.502106 0.108365 0.252482
H43   H     H_    0.817064 0.373923 0.145919 0.212788
H44   H     H_    0.728226 0.464626 0.218119 0.239499
H45   H     H_    0.452031 0.841856 0.526732 0.164061
H46   H     H_    0.700505 0.632721 0.250397 0.240282
H47   H     H_    0.603145 0.647425 0.148493 0.247391
H48   H     H_    0.745768 0.644543 0.145395 0.229125
H49   H     H_    0.515664 0.255360 0.358960 0.146320
H50   H     H_    0.936919 0.742364 0.555705 0.177657
H51   H     H_    0.162182 0.441539 0.459887 0.140540
H52   H     H_    0.681907 0.323190 0.385475 0.132269
N1    N     N_R   0.239390 0.551900 0.544730 -0.130845
N2    N     N_R   0.759950 0.448600 0.455730 -0.120525
N3    N     N_2   0.856556 0.528633 0.923852 -0.303692
N4    N     N_2   0.275037 0.889414 0.450703 -0.313700
N5    N     N_2   0.154587 0.015957 0.524374 -0.323643
N6    N     N_2   0.335186 0.678411 0.640353 -0.254306
N7    N     N_2   0.443412 0.352526 0.785580 -0.312020
N8    N     N_2   0.665645 0.501342 0.178142 -0.309453
O1    O     O_R   0.374950 0.371210 0.521360 -0.614313
O2    O     O_R   0.542050 0.338030 0.492790 -0.612973
O3    O     O_R   0.368720 0.526070 0.390200 -0.611635
O4    O     O_R   0.535820 0.492890 0.361630 -0.611911
O5    O     O_R   0.457950 0.661970 0.507210 -0.592323
O6    O     O_R   0.625050 0.628790 0.478640 -0.612282
O7    O     O_R   0.464180 0.507110 0.638370 -0.586028
O8    O     O_R   0.631280 0.473930 0.609800 -0.604038
Zn1   Zn    Zn3+2 0.388420 0.522150 0.519080 0.943947
Zn2   Zn    Zn3+2 0.611580 0.477850 0.480920 0.929442

loop_
_geom_bond_atom_site_label_1
_geom_bond_atom_site_label_2
_ccdc_geom_bond_type
C47   N4    S    
C55   C56   A    
H21   N5    S    
C27   C29   A    
C50   N7    S    
C41   C42   A    
C49   H29   S    
C19   C20   A    
C9    C21   A    
C23   C56   A    
H30   N7    S    
C53   H41   S    
C12   C23   A    
C26   C27   A    
C54   H46   S    
C16   O5    A    
C47   H18   S    
O3    Zn1   S    
C12   C43   A    
C3    C7    A    
C30   C31   A    
C9    C22   A    
C28   C40   S    
C52   H39   S    
C44   H13   S    
C18   C19   A    
C1    O1    A    
C7    N7    S    
C35   H50   S    
C27   H3    S    
C50   H32   S    
C35   C36   A    
C53   H43   S    
C10   C46   S    
C34   C57   A    
C8    C22   A    
C7    C40   A    
C29   H2    S    
C8    H34   S    
C11   N5    S    
C26   H52   S    
C46   H14   S    
C13   N4    S    
H44   N8    S    
O6    Zn2   S    
C20   H49   S    
C31   N2    A    
H26   N6    S    
C13   C14   A    
C14   C17   A    
C48   H25   S    
C28   O8    A    
C39   C42   A    
C53   H42   S    
C15   C20   A    
C37   N1    A    
C54   H48   S    
C49   H27   S    
H17   N4    S    
C39   C43   A    
C10   C24   A    
C3    C45   A    
C8    C18   A    
C1    O2    A    
C25   C51   S    
C29   C30   A    
C25   C38   A    
C38   N6    S    
C50   H31   S    
O5    Zn1   S    
C4    C39   S    
C43   H7    S    
O2    Zn2   S    
C17   C18   A    
C4    O4    A    
C44   H11   S    
C34   C45   A    
C32   C37   A    
C51   H35   S    
C48   N5    S    
C15   C24   A    
C44   N3    S    
C54   N8    S    
N1    Zn1   S    
C6    C40   A    
C44   H10   S    
C2    C5    A    
C41   H5    S    
C12   C34   A    
C26   N2    A    
C46   H16   S    
C55   H8    S    
C28   O7    A    
O8    Zn2   S    
C54   H47   S    
C5    N3    S    
C14   C15   A    
C37   H51   S    
C49   H28   S    
C9    C16   S    
C36   C52   S    
C42   H6    S    
C53   C58   S    
C2    C58   A    
C23   C41   A    
C56   H1    S    
C32   C33   A    
C6    H4    S    
C2    C3    A    
H9    N3    S    
C19   H23   S    
C30   C32   A    
C11   C13   A    
C48   H22   S    
C57   C58   A    
C5    C6    A    
C52   H40   S    
C33   C35   A    
C48   H24   S    
C4    O3    A    
C52   H38   S    
O4    Zn2   S    
C17   C21   A    
N2    Zn2   S    
C10   C11   A    
C51   H36   S    
C21   H45   S    
C50   H33   S    
C49   N6    S    
C45   C55   A    
C1    C24   S    
C51   H37   S    
O7    Zn1   S    
C47   H19   S    
C31   C36   A    
C47   H20   S    
C38   N1    A    
C16   O6    A    
C22   H12   S    
C46   H15   S    
C25   C33   A    
C57   N8    S    
O1    Zn1   S    
