data_mof_unit_35128.cif
_audit_creation_date              2012-12-10T17:36:21-0500
_audit_creation_method            fapswitch 2.2
_symmetry_space_group_name_H-M    P1
_symmetry_Int_Tables_number       1
_space_group_crystal_system       triclinic
_cell_length_a                    12.454173
_cell_length_b                    13.307323
_cell_length_c                    15.807593
_cell_angle_alpha                 75.502479
_cell_angle_beta                  101.61572
_cell_angle_gamma                 117.265618
_cell_volume                      2243.1258363

loop_
_atom_site_label
_atom_site_type_symbol
_atom_type_description
_atom_site_fract_x
_atom_site_fract_y
_atom_site_fract_z
_atom_type_partial_charge
C1    C     C_R   0.855443 0.287819 0.503662 0.788135
C2    C     C_3   0.026859 0.405913 0.072034 0.221017
C3    C     C_3   0.998351 0.505426 0.081192 0.080035
C4    C     C_3   0.101015 0.621364 0.041928 -0.537453
C5    C     C_3   0.108566 0.625088 0.944793 -0.476093
C6    C     C_1   0.999630 0.505665 0.173994 0.033735
C7    C     C_1   0.012494 0.515620 0.823227 -0.006777
C8    C     C_1   0.010033 0.511228 0.748094 -0.225414
C9    C     C_R   0.272442 0.031636 0.402972 -0.175073
C10   C     C_R   0.228565 0.835758 0.472986 -0.040985
C11   C     C_R   0.815935 0.084000 0.548263 -0.207343
C12   C     C_R   0.003062 0.503403 0.659091 0.856970
C13   C     C_R   0.736875 0.968732 0.564745 -0.170393
C14   C     C_R   0.613700 0.932488 0.538397 -0.159587
C15   C     C_R   0.566186 0.012038 0.492713 0.078717
C16   C     C_R   0.648918 0.128637 0.468400 0.006569
C17   C     C_R   0.439446 0.979847 0.471017 0.004578
C18   C     C_R   0.397673 0.062812 0.422450 0.058167
C19   C     C_R   0.481194 0.174749 0.391683 0.379028
C20   C     C_R   0.604916 0.205128 0.411651 -0.281513
C21   C     C_R   0.352361 0.867702 0.497696 -0.228051
C22   C     C_R   0.188489 0.918621 0.427277 -0.230624
C23   C     C_R   0.145080 0.713381 0.488028 0.780095
C24   C     C_R   0.773289 0.165571 0.502668 -0.109829
C25   C     C_R   0.343504 0.333560 0.647776 0.380288
C26   C     C_R   0.755599 0.639823 0.377268 -0.032553
C27   C     C_R   0.655786 0.664570 0.346763 0.401399
C28   C     C_R   0.553119 0.608160 0.392447 -0.247648
C29   C     C_R   0.549295 0.529138 0.471242 -0.075684
C30   C     C_R   0.652032 0.502159 0.499897 0.183695
C31   C     C_R   0.445174 0.474050 0.520929 -0.042618
C32   C     C_R   0.446308 0.396863 0.600105 -0.010762
C33   C     C_R   0.548977 0.381590 0.631788 -0.383241
C34   C     C_R   0.000344 0.501682 0.340334 0.796702
C35   C     C_R   0.641984 0.415518 0.579561 0.468213
C36   C     C_R   0.340010 0.494153 0.497825 0.006908
C37   C     C_R   0.245310 0.359135 0.621856 -0.013780
C38   C     C_3   0.029862 0.410302 0.972909 0.228068
C39   C     C_3   0.881568 0.504207 0.928401 0.217104
C40   C     C_3   0.871617 0.492622 0.030089 0.796169
C41   C     C_1   0.000144 0.504349 0.250057 -0.200581
C42   C     C_3   0.007656 0.513946 0.915306 0.084603
Cu1   Cu    Cu3+1 0.098280 0.475420 0.519630 0.927117
Cu2   Cu    Cu3+1 0.901720 0.524580 0.480370 0.961239
H1    H     H_    0.239400 0.093773 0.366101 0.180148
H2    H     H_    0.559078 0.841399 0.554762 0.123341
H3    H     H_    0.167151 0.315589 0.659023 0.140253
H4    H     H_    0.833891 0.681655 0.340348 0.139845
H5    H     H_    0.099721 0.702371 0.903187 0.239428
N1    N     N_R   0.246300 0.438200 0.549400 -0.214378
N2    N     N_R   0.754300 0.561180 0.451130 -0.223520
O1    O     O_R   0.972520 0.318130 0.524690 -0.588621
O2    O     O_R   0.806530 0.359650 0.491530 -0.527358
O3    O     O_R   0.083030 0.479240 0.637150 -0.585827
O4    O     O_R   0.917040 0.520750 0.603990 -0.523349
O5    O     O_R   0.193470 0.640350 0.508470 -0.586494
O6    O     O_R   0.027480 0.681870 0.475310 -0.591393
O7    O     O_R   0.082960 0.479250 0.396010 -0.581531
O8    O     O_R   0.916970 0.520760 0.362850 -0.580383
O9    O     O_3   0.939299 0.296492 0.108786 -0.552591
C43   C     C_3   0.972294 0.259826 0.198186 0.101756
H6    H     H_    0.896964 0.240860 0.235999 0.172075
H7    H     H_    0.056090 0.324344 0.228663 0.114845
C44   C     C_3   0.988368 0.150548 0.207623 -0.376517
H8    H     H_    0.907803 0.087433 0.173967 0.220148
H9    H     H_    0.069639 0.170965 0.175911 0.206442
C45   C     C_3   0.004128 0.097940 0.304044 -0.955428
H10   H     H_    0.086170 0.159237 0.338030 0.263218
H11   H     H_    0.013707 0.017885 0.308663 0.247146
H12   H     H_    0.924021 0.076504 0.337351 0.261489
H13   H     H_    0.123957 0.427616 0.963575 0.051561
H14   H     H_    0.120501 0.421536 0.103717 0.035335
H15   H     H_    0.085241 0.695339 0.047069 0.245683
H16   H     H_    0.092792 0.895276 0.408238 0.153868
O10   O     O_3   0.442049 0.258458 0.349694 -0.609897
C46   C     C_3   0.441441 0.272857 0.258134 0.034856
H17   H     H_    0.396418 0.188381 0.235600 0.138678
H18   H     H_    0.536278 0.319910 0.240016 0.142725
C47   C     C_3   0.371269 0.343769 0.211987 -0.309345
H19   H     H_    0.279899 0.302581 0.235838 0.219753
H20   H     H_    0.420175 0.431381 0.228518 0.228876
C48   C     C_3   0.356077 0.353286 0.112416 -0.976814
H21   H     H_    0.445985 0.396585 0.086385 0.259087
H22   H     H_    0.304557 0.404868 0.081407 0.249364
H23   H     H_    0.305247 0.266622 0.094451 0.258904
H24   H     H_    0.378149 0.802313 0.537206 0.150317
H25   H     H_    0.910062 0.109561 0.574767 0.155740
H26   H     H_    0.770676 0.907542 0.601953 0.151407
O11   O     O_3   0.942563 0.306263 0.944972 -0.594515
C49   C     C_3   0.991850 0.225796 0.957401 0.119658
H27   H     H_    0.916474 0.138152 0.968827 0.157200
H28   H     H_    0.058922 0.231568 0.016657 0.135052
C50   C     C_3   0.049039 0.239724 0.875386 -0.394450
H29   H     H_    0.977557 0.218965 0.819363 0.218826
H30   H     H_    0.117059 0.329903 0.857395 0.224085
C51   C     C_3   0.111789 0.160647 0.890744 -0.912141
H31   H     H_    0.183971 0.179757 0.946543 0.257028
H32   H     H_    0.154451 0.174747 0.831069 0.281644
H33   H     H_    0.044879 0.069248 0.904891 0.251549
H34   H     H_    0.665064 0.289747 0.381052 0.189544
H35   H     H_    0.551812 0.333525 0.697398 0.193706
O12   O     O_3   0.338683 0.248935 0.720915 -0.637579
C52   C     C_3   0.315198 0.146099 0.694052 0.040277
H36   H     H_    0.346702 0.093512 0.750317 0.168638
H37   H     H_    0.366888 0.161558 0.638535 0.141882
C53   C     C_3   0.179057 0.076622 0.669667 -0.373917
H38   H     H_    0.127308 0.060845 0.724903 0.221716
H39   H     H_    0.146716 0.125548 0.610996 0.209496
C54   C     C_3   0.153701 0.961425 0.648718 -0.908637
H40   H     H_    0.208204 0.974921 0.595900 0.274700
H41   H     H_    0.056075 0.916307 0.625967 0.255124
H42   H     H_    0.176520 0.906649 0.708147 0.248630
H43   H     H_    0.331041 0.555159 0.440860 0.130335
H44   H     H_    0.477085 0.627572 0.364057 0.140229
O13   O     O_3   0.654397 0.737355 0.267575 -0.625480
C55   C     C_3   0.703940 0.851719 0.281655 0.039485
H45   H     H_    0.752317 0.908092 0.223685 0.172594
H46   H     H_    0.772533 0.869138 0.340261 0.128334
C56   C     C_3   0.602641 0.883841 0.288006 -0.336409
H47   H     H_    0.533426 0.862816 0.230610 0.226440
H48   H     H_    0.558069 0.833912 0.348905 0.210366
C57   C     C_3   0.652234 0.011566 0.289606 -0.918805
H49   H     H_    0.716402 0.033116 0.349207 0.269230
H50   H     H_    0.576280 0.033125 0.290490 0.253423
H51   H     H_    0.699936 0.063819 0.230446 0.255730
O14   O     O_3   0.725023 0.368912 0.610290 -0.561085
C58   C     C_3   0.679952 0.254467 0.659513 0.053796
H52   H     H_    0.718286 0.206463 0.637498 0.161070
H53   H     H_    0.580039 0.203924 0.647772 0.122933
C59   C     C_3   0.725010 0.254616 0.757311 -0.354445
H54   H     H_    0.824991 0.285817 0.765521 0.228490
H55   H     H_    0.704626 0.313528 0.782952 0.201666
C60   C     C_3   0.668230 0.134385 0.812071 -0.910384
H56   H     H_    0.568006 0.102150 0.806433 0.245903
H57   H     H_    0.703809 0.137186 0.882145 0.271030
H58   H     H_    0.691108 0.074412 0.789657 0.253448
O15   O     O_3   0.869810 0.605667 0.881348 -0.593525
C61   C     C_3   0.798033 0.591654 0.799719 0.047108
H59   H     H_    0.702695 0.568349 0.808732 0.136690
H60   H     H_    0.798119 0.523983 0.770339 0.149888
C62   C     C_3   0.848445 0.705996 0.735946 -0.311759
H61   H     H_    0.833942 0.771727 0.757654 0.213001
H62   H     H_    0.947721 0.735719 0.736202 0.229076
C63   C     C_3   0.789098 0.694188 0.642609 -0.933790
H63   H     H_    0.801491 0.627370 0.621773 0.286888
H64   H     H_    0.833920 0.775730 0.596794 0.241688
H65   H     H_    0.690708 0.671220 0.638578 0.253809
H66   H     H_    0.813318 0.427349 0.901721 0.035385
O16   O     O_3   0.782703 0.385569 0.072606 -0.627351
C64   C     C_3   0.683519 0.318752 0.018220 0.017885
H67   H     H_    0.711757 0.268028 0.988771 0.201675
H68   H     H_    0.647625 0.372069 0.966024 0.104340
C65   C     C_3   0.581033 0.233736 0.074339 -0.335448
H69   H     H_    0.613166 0.176526 0.125283 0.232461
H70   H     H_    0.554639 0.281727 0.107672 0.205290
C66   C     C_3   0.470095 0.160839 0.018835 -0.915105
H71   H     H_    0.434491 0.216453 0.968892 0.268552
H72   H     H_    0.397695 0.099862 0.061805 0.249799
H73   H     H_    0.494088 0.110936 0.985246 0.260149
O17   O     O_3   0.856724 0.588135 0.043062 -0.604304
C67   C     C_3   0.734876 0.569630 0.039258 0.112562
H74   H     H_    0.688647 0.499553 0.093256 0.166215
H75   H     H_    0.685342 0.550014 0.974368 0.135307
C68   C     C_3   0.734221 0.679710 0.051491 -0.339852
H76   H     H_    0.790570 0.705561 0.113318 0.235439
H77   H     H_    0.774460 0.749864 0.995758 0.223085
C69   C     C_3   0.605872 0.663510 0.055995 -0.899651
H78   H     H_    0.546467 0.634708 0.995971 0.243726
H79   H     H_    0.608553 0.746337 0.061188 0.270539
H80   H     H_    0.567270 0.599054 0.114765 0.276755
H81   H     H_    0.199438 0.633648 0.937042 0.171633
H82   H     H_    0.190061 0.632309 0.079991 0.181038

loop_
_geom_bond_atom_site_label_1
_geom_bond_atom_site_label_2
_ccdc_geom_bond_type
C30   N2    A    
C39   O15   S    
C9    H1    S    
C50   H29   S    
C35   O14   S    
C19   C20   A    
C46   C47   S    
Cu1   Cu2   S    
C3    C6    S    
C67   H74   S    
C7    C8    T    
C14   H2    S    
C10   C22   A    
C38   O11   S    
C26   C27   A    
O14   C58   S    
C30   C35   A    
C33   H35   S    
C68   H76   S    
C46   H18   S    
C38   C42   S    
C54   H41   S    
C2    O9    S    
C25   O12   S    
C53   H38   S    
Cu2   O8    S    
C15   C16   A    
C51   H33   S    
C11   C24   A    
C55   H45   S    
C13   H26   S    
C23   O6    A    
C18   C19   A    
C7    C42   S    
C43   H7    S    
C1    O2    A    
C66   H72   S    
C52   H36   S    
Cu1   O7    S    
C25   C37   A    
C21   H24   S    
Cu2   O2    S    
C11   H25   S    
C6    C41   T    
C51   H32   S    
C39   H66   S    
C60   H58   S    
C37   H3    S    
C31   C36   A    
C8    C12   S    
C25   C32   A    
C16   C24   A    
C13   C14   A    
C69   H79   S    
C5    H5    S    
C43   H6    S    
C34   C41   S    
C63   H65   S    
C2    H14   S    
C36   H43   S    
C67   H75   S    
C39   C42   S    
C56   H48   S    
C10   C21   A    
C45   H10   S    
C44   C45   S    
C23   O5    A    
C46   H17   S    
C63   H64   S    
C54   H42   S    
C69   H78   S    
C47   H20   S    
C63   H63   S    
C64   C65   S    
C17   C21   A    
O9    C43   S    
C45   H11   S    
C62   H62   S    
C44   H9    S    
C43   C44   S    
C59   H55   S    
O10   C46   S    
C58   H53   S    
C29   C30   A    
C2    C38   S    
Cu1   O3    S    
C49   H28   S    
C31   C32   A    
C20   H34   S    
Cu2   O6    S    
C16   C20   A    
C51   H31   S    
C17   C18   A    
C5    H81   S    
C52   H37   S    
C65   C66   S    
C4    H15   S    
C61   H60   S    
C69   H80   S    
Cu2   N2    S    
C3    C40   S    
C48   H21   S    
C50   C51   S    
C48   H22   S    
C34   O8    A    
C64   H68   S    
C62   C63   S    
C59   C60   S    
C65   H70   S    
C22   H16   S    
C57   H50   S    
C3    C4    S    
C39   C40   S    
C67   C68   S    
C36   N1    A    
C49   C50   S    
C34   O7    A    
Cu1   O5    S    
C56   C57   S    
C15   C17   A    
C38   H13   S    
C28   C29   A    
C4    H82   S    
C64   H67   S    
C40   O17   S    
C66   H73   S    
C4    C5    S    
C61   C62   S    
C47   C48   S    
C56   H47   S    
Cu1   N1    S    
C26   H4    S    
C10   C23   S    
C48   H23   S    
O15   C61   S    
C26   N2    A    
C55   C56   S    
C45   H12   S    
C32   C33   A    
C57   H51   S    
C68   H77   S    
C2    C3    S    
C57   H49   S    
C58   C59   S    
C29   C31   A    
O16   C64   S    
O17   C67   S    
C37   N1    A    
C11   C13   A    
Cu2   O4    S    
C49   H27   S    
C60   H56   S    
C53   H39   S    
C28   H44   S    
C44   H8    S    
C19   O10   S    
C5    C42   S    
C33   C35   A    
C55   H46   S    
C40   O16   S    
C59   H54   S    
C52   C53   S    
C68   C69   S    
O12   C52   S    
Cu1   O1    S    
C1    O1    A    
C12   O4    A    
C61   H59   S    
C47   H19   S    
C9    C18   A    
C66   H71   S    
C1    C24   S    
C50   H30   S    
C9    C22   A    
C54   H40   S    
C27   C28   A    
C60   H57   S    
C14   C15   A    
O13   C55   S    
O11   C49   S    
C62   H61   S    
C12   O3    A    
C58   H52   S    
C65   H69   S    
C53   C54   S    
C27   O13   S    
