data_mof_unit_54745.cif
_audit_creation_date              2012-12-10T17:21:15-0500
_audit_creation_method            fapswitch 2.2
_symmetry_space_group_name_H-M    P1
_symmetry_Int_Tables_number       1
_space_group_crystal_system       triclinic
_cell_length_a                    9.732123
_cell_length_b                    10.805571
_cell_length_c                    13.79141
_cell_angle_alpha                 90.676711
_cell_angle_beta                  84.907054
_cell_angle_gamma                 89.198642
_cell_volume                      1444.32928376

loop_
_atom_site_label
_atom_site_type_symbol
_atom_type_description
_atom_site_fract_x
_atom_site_fract_y
_atom_site_fract_z
_atom_type_partial_charge
C1    C     C_R   0.496660 0.736837 0.513911 0.831097
C2    C     C_1   0.466203 0.522679 0.785226 -0.071195
C3    C     C_R   0.233413 0.881358 0.587175 0.259417
C4    C     C_R   0.110923 0.948193 0.576475 0.464740
C5    C     C_R   0.112050 0.075880 0.584247 -0.253375
C6    C     C_R   0.237054 0.135305 0.586699 -0.227314
C7    C     C_R   0.363661 0.070157 0.563038 0.057289
C8    C     C_R   0.362288 0.938378 0.564161 -0.023744
C9    C     C_R   0.488870 0.870840 0.542367 -0.079715
C10   C     C_R   0.612485 0.935119 0.545025 -0.191041
C11   C     C_R   0.613836 0.063591 0.544132 -0.193689
C12   C     C_R   0.477706 0.503519 0.682546 0.832152
C13   C     C_R   0.491160 0.131557 0.540929 -0.092314
C14   C     C_R   0.895529 0.415966 0.331973 0.409391
C15   C     C_R   0.965997 0.441622 0.240672 0.049551
C16   C     C_R   0.097792 0.492062 0.236651 0.385776
C17   C     C_R   0.146276 0.539587 0.321755 0.309656
C18   C     C_R   0.081411 0.506820 0.413799 -0.110514
C19   C     C_R   0.939055 0.475579 0.415642 0.006996
C20   C     C_R   0.914018 0.506239 0.583314 -0.058651
C21   C     C_R   0.059040 0.491968 0.584123 0.504794
C22   C     C_R   0.498088 0.263910 0.513297 0.772891
C23   C     C_R   0.522637 0.502022 0.317428 0.854210
C24   C     C_1   0.536078 0.506004 0.213835 -0.075519
C25   C     C_2   0.550128 0.503151 0.022331 -0.210107
C26   C     C_2   0.458872 0.566879 0.974768 0.443308
C27   C     C_1   0.461058 0.543027 0.871161 -0.164930
C28   C     C_1   0.544455 0.506739 0.126528 0.191841
Cu1   Cu    Cu3+1 0.359340 0.500010 0.500010 1.041084
Cu2   Cu    Cu3+1 0.640660 0.499990 0.499990 0.993488
H1    H     H_    0.623767 0.439454 0.983608 0.152576
H2    H     H_    0.709630 0.885995 0.543968 0.213341
H3    H     H_    0.016566 0.129093 0.587326 0.179833
H4    H     H_    0.230823 0.231857 0.606408 0.230846
H5    H     H_    0.712218 0.109499 0.540617 0.182536
H6    H     H_    0.850620 0.511087 0.651667 0.183281
N1    N     N_R   0.852210 0.498790 0.499090 -0.201368
N2    N     N_R   0.148080 0.498710 0.499060 -0.189480
O1    O     O_R   0.381190 0.680360 0.500010 -0.513244
O2    O     O_R   0.618760 0.680340 0.500000 -0.608023
O3    O     O_R   0.364420 0.499990 0.637850 -0.488284
O4    O     O_R   0.601990 0.499960 0.637840 -0.612452
O5    O     O_R   0.381240 0.319660 0.500000 -0.596896
O6    O     O_R   0.618810 0.319640 0.499990 -0.522356
O7    O     O_R   0.398010 0.500040 0.362160 -0.540955
O8    O     O_R   0.635580 0.500010 0.362150 -0.527699
O9    O     O_3   0.366507 0.648980 0.026840 -0.532304
C29   C     C_3   0.268094 0.700483 0.968951 0.152708
H7    H     H_    0.206003 0.626360 0.937927 0.190572
H8    H     H_    0.319664 0.756397 0.909318 0.158347
C30   C     C_3   0.170321 0.785516 0.031970 -0.662721
H9    H     H_    0.229105 0.860405 0.064521 0.240756
H10   H     H_    0.093539 0.827732 0.986865 0.199504
H11   H     H_    0.114800 0.732230 0.091235 0.290392
O10   O     O_3   0.797375 0.323185 0.344535 -0.522749
C31   C     C_3   0.821808 0.222697 0.277772 0.098754
H12   H     H_    0.933337 0.206847 0.254454 0.138626
H13   H     H_    0.762998 0.237782 0.213518 0.206769
C32   C     C_3   0.769586 0.104600 0.324554 -0.830709
H14   H     H_    0.657478 0.113640 0.346815 0.257244
H15   H     H_    0.786563 0.026375 0.271695 0.217739
H16   H     H_    0.827784 0.085873 0.388448 0.249951
Cl1   Cl    Cl    0.879684 0.435487 0.133395 -0.677896
O11   O     O_3   0.182194 0.497189 0.150299 -0.506683
C33   C     C_3   0.210266 0.376562 0.109386 0.152465
H17   H     H_    0.287448 0.385740 0.046058 0.163552
H18   H     H_    0.119066 0.336625 0.078943 0.197555
C34   C     C_3   0.269107 0.283586 0.178995 -0.913555
H19   H     H_    0.188734 0.256046 0.236524 0.225689
H20   H     H_    0.305866 0.198835 0.137654 0.231435
H21   H     H_    0.356659 0.323219 0.213868 0.254554
Cl2   Cl    Cl    0.236893 0.680169 0.305063 -0.625431
Cl3   Cl    Cl    0.107776 0.452764 0.699637 -0.609998
Cl4   Cl    Cl    0.216198 0.752377 0.663747 -0.587789
O12   O     O_3   0.993718 0.891033 0.549233 -0.585836
C35   C     C_3   0.030145 0.833579 0.457567 0.066092
H22   H     H_    0.092287 0.749304 0.469015 0.227029
H23   H     H_    0.089320 0.896650 0.406091 0.170397
C36   C     C_3   0.904443 0.793837 0.408974 -0.786074
H24   H     H_    0.848878 0.726546 0.455896 0.284321
H25   H     H_    0.935998 0.748937 0.337520 0.231976
H26   H     H_    0.836723 0.873763 0.396758 0.238091

loop_
_geom_bond_atom_site_label_1
_geom_bond_atom_site_label_2
_ccdc_geom_bond_type
C25   H1    S    
O10   C31   S    
C23   O7    A    
C35   C36   S    
C2    C12   S    
C7    C8    A    
C25   C28   S    
C26   C27   S    
C12   O3    A    
C35   H23   S    
C5    C6    A    
C15   C16   A    
C21   Cl3   S    
C31   H12   S    
C18   C19   A    
C3    Cl4   S    
C4    O12   S    
C12   O4    A    
C19   N1    A    
C1    O2    A    
C29   C30   S    
C22   O6    A    
C21   N2    A    
O9    C29   S    
C8    C9    A    
C33   H18   S    
C5    H3    S    
Cu1   N2    S    
C23   C24   S    
C2    C27   T    
C9    C10   A    
C29   H8    S    
C14   O10   S    
C32   H14   S    
C23   O8    A    
Cu1   O5    S    
Cu2   O6    S    
C32   H15   S    
C30   H9    S    
C1    C9    S    
C35   H22   S    
C3    C8    A    
C36   H25   S    
C34   H19   S    
C25   C26   D    
C6    H4    S    
Cu2   N1    S    
Cu1   O7    S    
C30   H10   S    
O12   C35   S    
Cu1   Cu2   S    
C22   O5    A    
C33   C34   S    
Cu1   O1    S    
C17   C18   A    
Cu2   O2    S    
C26   O9    S    
C29   H7    S    
C3    C4    A    
C32   H16   S    
Cu1   O3    S    
C14   C19   A    
Cu2   O8    S    
C24   C28   T    
C4    C5    A    
C36   H26   S    
C6    C7    A    
C31   C32   S    
C30   H11   S    
O11   C33   S    
C11   H5    S    
C18   N2    A    
C20   N1    A    
C11   C13   A    
C16   C17   A    
C34   H21   S    
C31   H13   S    
C13   C22   S    
C10   C11   A    
C1    O1    A    
C36   H24   S    
C20   H6    S    
C10   H2    S    
C7    C13   A    
C20   C21   A    
C17   Cl2   S    
C34   H20   S    
C33   H17   S    
C15   Cl1   S    
C14   C15   A    
Cu2   O4    S    
C16   O11   S    
