data_mof_unit_22875.cif
_audit_creation_date              2012-12-11T17:57:06-0500
_audit_creation_method            fapswitch 2.2
_symmetry_space_group_name_H-M    P1
_symmetry_Int_Tables_number       1
_space_group_crystal_system       triclinic
_cell_length_a                    8.213832
_cell_length_b                    12.64325
_cell_length_c                    17.287503
_cell_angle_alpha                 98.326001
_cell_angle_beta                  96.997854
_cell_angle_gamma                 98.631674
_cell_volume                      1737.24137433

loop_
_atom_site_label
_atom_site_type_symbol
_atom_type_description
_atom_site_fract_x
_atom_site_fract_y
_atom_site_fract_z
_atom_type_partial_charge
Ba1   Ba    Ba6+2 0.843240 0.548600 0.461650 1.649889
Ba2   Ba    Ba6+2 0.346590 0.451490 0.538360 1.648202
C1    C     C_3   0.552412 0.856133 0.178572 -0.426053
C2    C     C_3   0.341415 0.596406 0.228603 -0.037905
C3    C     C_2   0.285087 0.563287 0.141234 -0.172935
C4    C     C_3   0.114974 0.787394 0.248354 0.346115
C5    C     C_2   0.140482 0.494829 0.113361 -0.046656
C6    C     C_2   0.046995 0.442385 0.171561 -0.081571
C7    C     C_1   0.108196 0.460219 0.248172 0.025764
C8    C     C_R   0.883683 0.462817 0.861782 -0.083346
C9    C     C_R   0.820544 0.446458 0.781629 -0.032736
C10   C     C_R   0.079409 0.541198 0.752708 0.058189
C11   C     C_R   0.143449 0.558956 0.833978 -0.120439
C12   C     C_3   0.635964 0.811535 0.247353 0.310631
C13   C     C_R   0.047919 0.516139 0.888866 0.052581
C14   C     C_2   0.075176 0.468942 0.026614 0.606417
C15   C     C_2   0.115708 0.536761 0.974803 -0.079982
C16   C     C_3   0.078590 0.818524 0.167061 -0.358431
C17   C     C_R   0.920157 0.481338 0.727158 -0.296256
C18   C     C_R   0.768308 0.183559 0.533512 -0.269853
C19   C     C_R   0.422719 0.806838 0.467961 -0.284704
C20   C     C_R   0.390028 0.984294 0.440465 -0.096777
C21   C     C_R   0.325099 0.875779 0.436684 -0.016183
C22   C     C_R   0.580714 0.847950 0.510883 0.072782
C23   C     C_3   0.411136 0.277269 0.298586 0.292646
C24   C     C_R   0.645225 0.960595 0.519872 -0.058156
C25   C     C_R   0.549188 0.028684 0.482299 -0.065541
C26   C     C_R   0.613334 0.140004 0.488967 0.036978
C27   C     C_R   0.866434 0.117201 0.567626 -0.005405
C28   C     C_3   0.269096 0.787151 0.631689 0.273374
C29   C     C_R   0.803562 0.007147 0.563279 -0.090544
C30   C     C_3   0.264694 0.907760 0.645172 -0.335116
C31   C     C_3   0.924775 0.212966 0.367774 0.297053
C32   C     C_3   0.875777 0.090500 0.346675 -0.387090
C33   C     C_3   0.777043 0.705994 0.699306 0.308452
C34   C     C_3   0.371741 0.243853 0.209368 -0.348895
C35   C     C_3   0.814708 0.743069 0.788319 -0.393409
C36   C     C_2   0.165839 0.274222 0.800681 0.601144
C37   C     C_3   0.086478 0.165436 0.753217 0.336933
C38   C     C_3   0.083068 0.074810 0.803240 -0.294242
C39   C     C_3   0.594892 0.179850 0.724273 0.352428
C40   C     C_3   0.635539 0.091816 0.771048 -0.376977
C41   C     C_2   0.252470 0.523284 0.277392 -0.231631
F1    F     F_    0.971926 0.372435 0.000180 -0.705546
H1    H     H_    0.748090 0.870758 0.275171 0.099864
H2    H     H_    0.890633 0.684498 0.677358 0.015476
H3    H     H_    0.676546 0.633927 0.686673 0.066989
H4    H     H_    0.514147 0.934254 0.200707 0.096949
H5    H     H_    0.921001 0.811611 0.802815 0.119718
H6    H     H_    0.847115 0.675884 0.818383 0.057886
H7    H     H_    0.703825 0.769749 0.810741 0.130297
H8    H     H_    0.552670 0.807392 0.293526 -0.040548
H9    H     H_    0.440500 0.797967 0.148275 0.105787
H10   H     H_    0.296242 0.295801 0.321306 0.012545
H11   H     H_    0.508300 0.351237 0.311772 0.079022
H12   H     H_    0.343380 0.946902 0.701450 0.118827
H13   H     H_    0.270966 0.171889 0.194129 0.121511
H14   H     H_    0.330440 0.311468 0.182160 0.085841
H15   H     H_    0.484539 0.223688 0.185117 0.139872
H16   H     H_    0.640170 0.870052 0.135581 0.131814
H17   H     H_    0.139315 0.903399 0.167849 0.117163
H18   H     H_    0.955661 0.169378 0.731597 -0.160436
H19   H     H_    0.018696 0.093731 0.855128 0.112472
H20   H     H_    0.014922 0.997542 0.767020 0.087275
H21   H     H_    0.211756 0.063746 0.824318 0.131819
H22   H     H_    0.707107 0.209606 0.698574 -0.063618
H23   H     H_    0.310962 0.945704 0.596442 0.080884
H24   H     H_    0.493258 0.144478 0.674769 0.079249
H25   H     H_    0.741181 0.125872 0.818770 0.135287
H26   H     H_    0.669474 0.023709 0.731511 0.078499
H27   H     H_    0.057063 0.701209 0.245027 0.059456
H28   H     H_    0.527098 0.061318 0.798973 0.131865
H29   H     H_    0.201315 0.612369 0.995498 -0.009029
H30   H     H_    0.929259 0.388282 0.150500 0.134452
H31   H     H_    0.801795 0.437790 0.902689 0.148858
H32   H     H_    0.361497 0.599581 0.101952 0.074613
H33   H     H_    0.266779 0.605745 0.854290 0.087744
H34   H     H_    0.135160 0.920726 0.648487 0.130881
H35   H     H_    0.301718 0.533366 0.339640 0.068555
H36   H     H_    0.869320 0.468313 0.665144 0.077385
H37   H     H_    0.311228 0.033226 0.412620 0.110463
H38   H     H_    0.252235 0.797744 0.264497 -0.066972
H39   H     H_    0.882040 0.959156 0.591995 0.097363
H40   H     H_    0.818254 0.268593 0.536779 0.060609
H41   H     H_    0.370768 0.721917 0.463456 0.064299
H42   H     H_    0.127194 0.763623 0.122723 0.057841
H43   H     H_    0.942332 0.811447 0.149571 0.144491
H44   H     H_    0.395472 0.774322 0.622532 0.008318
H45   H     H_    0.822634 0.247292 0.392420 0.003255
H46   H     H_    0.178363 0.749823 0.578195 0.066853
H47   H     H_    0.178081 0.344031 0.771029 -0.018074
H48   H     H_    0.037986 0.232197 0.412565 0.078100
H49   H     H_    0.755257 0.069503 0.306517 0.111237
H50   H     H_    0.862944 0.054190 0.400626 0.092339
H51   H     H_    0.973039 0.056152 0.316852 0.153982
O1    O     O_2   0.825360 0.427200 0.308020 -0.449326
O2    O     O_2   0.186723 0.119157 0.542757 -0.474573
O3    O     O_3   0.178676 0.140280 0.691695 -0.619582
O4    O     O_3   0.099050 0.435020 0.406000 -0.505485
O5    O     O_3   0.588300 0.633530 0.539940 -0.490733
O6    O     O_2   0.332090 0.232110 0.462130 -0.462784
O7    O     O_3   0.467485 0.191976 0.331797 -0.648644
O8    O     O_2   0.485694 0.459825 0.781486 -0.471641
O9    O     O_3   0.542273 0.261344 0.774862 -0.562249
O10   O     O_3   0.623690 0.628090 0.355970 -0.474181
O11   O     O_2   0.628401 0.501944 0.218575 -0.470746
O12   O     O_3   0.727633 0.791412 0.664506 -0.646448
O13   O     O_3   0.954585 0.254255 0.299165 -0.630700
O14   O     O_3   0.686588 0.712774 0.219214 -0.577875
O15   O     O_2   0.857620 0.767930 0.537920 -0.471304
O16   O     O_3   0.055170 0.686660 0.395490 -0.483241
O17   O     O_2   0.992629 0.881948 0.448863 -0.476237
O18   O     O_2   0.217803 0.285617 0.871195 -0.553882
O19   O     O_3   0.047066 0.854519 0.303060 -0.605996
O20   O     O_2   0.364350 0.572830 0.692030 -0.461367
O21   O     O_3   0.090660 0.565070 0.594010 -0.503050
O22   O     O_3   0.566030 0.372000 0.644040 -0.484739
O23   O     O_3   0.230857 0.745928 0.699338 -0.636430
O24   O     O_3   0.601410 0.366560 0.460070 -0.479590
O25   O     O_3   0.134540 0.313430 0.604520 -0.482021
P1    P     P_3+3 0.996360 0.395990 0.320310 0.980952
P2    P     P_3+3 0.688190 0.753610 0.561600 0.968150
P3    P     P_3+3 0.105799 0.825585 0.397238 0.956160
P4    P     P_3+3 0.193350 0.604100 0.679700 0.981435
P5    P     P_3+3 0.087802 0.172839 0.603030 0.943098
P6    P     P_3+3 0.569889 0.606860 0.253793 0.984075
P7    P     P_3+3 0.506740 0.230407 0.434613 0.935527
P8    P     P_3+3 0.602896 0.386913 0.746632 0.990901

loop_
_geom_bond_atom_site_label_1
_geom_bond_atom_site_label_2
_ccdc_geom_bond_type
C12   O14   S    
C4    H38   S    
C27   P5    S    
C39   C40   S    
C32   H49   S    
O13   P1    S    
C28   H46   S    
C34   H15   S    
C33   H3    S    
Ba1   O4    S    
C5    C6    S    
C9    C17   A    
C24   C25   A    
C16   H42   S    
C38   H19   S    
O10   P6    S    
C33   C35   S    
C22   C24   A    
C34   H14   S    
C8    C13   A    
C36   C37   S    
C35   H7    S    
C23   O7    S    
C41   H35   S    
C1    H4    S    
C40   H26   S    
C29   H39   S    
Ba1   Ba2   S    
Ba1   O24   S    
Ba1   P2    S    
C4    O19   S    
Ba2   O21   S    
O3    P5    S    
C12   H8    S    
C14   C15   D    
C10   P4    S    
C7    P1    S    
Ba1   O21   S    
C12   H1    S    
C14   F1    S    
C26   P7    S    
O4    P1    S    
C1    H16   S    
Ba2   O5    S    
C24   C29   A    
C15   H29   S    
C31   O13   S    
Ba1   O5    S    
C40   H28   S    
Ba2   O22   S    
C39   H24   S    
C11   H33   S    
C18   C27   A    
C4    H27   S    
C4    C16   S    
C19   H41   S    
C7    C41   D    
O16   P3    S    
C20   H37   S    
C32   H50   S    
C32   H51   S    
O17   P3    D    
O2    P5    D    
O7    P7    S    
C31   H48   S    
C37   C38   S    
C3    C5    D    
C36   O18   D    
Ba2   O25   S    
O25   P5    S    
C6    C7    D    
C37   O3    S    
C21   P3    S    
C18   C26   A    
Ba2   O6    S    
C36   H47   S    
C40   H25   S    
C31   H45   S    
Ba1   O15   S    
C35   H5    S    
Ba2   O20   S    
O9    P8    S    
C11   C13   A    
C6    H30   S    
C31   C32   S    
O23   P4    S    
C23   H10   S    
O8    P8    D    
C1    C12   S    
C30   H23   S    
O19   P3    S    
O1    P1    D    
C5    C14   S    
Ba2   O4    S    
C34   H13   S    
C20   C25   A    
C18   H40   S    
C28   H44   S    
C13   C15   S    
C37   H18   S    
O20   P4    D    
O21   P4    S    
C23   H11   S    
C2    C3    S    
Ba2   O24   S    
C16   H17   S    
C39   H22   S    
C2    C41   S    
Ba2   P4    S    
C28   O23   S    
C22   P2    S    
O11   P6    D    
C16   H43   S    
C38   H20   S    
C39   O9    S    
C2    P6    S    
C38   H21   S    
C3    H32   S    
C19   C21   A    
C9    P8    S    
C27   C29   A    
O15   P2    D    
C28   C30   S    
C35   H6    S    
C1    H9    S    
Ba1   O1    S    
C10   C17   A    
O6    P7    D    
O5    P2    S    
C17   H36   S    
O22   P8    S    
Ba1   P1    S    
C33   O12   S    
C8    C9    A    
C23   C34   S    
C30   H34   S    
O14   P6    S    
C10   C11   A    
C19   C22   A    
C25   C26   A    
C20   C21   A    
O12   P2    S    
C33   H2    S    
C30   H12   S    
Ba1   O16   S    
Ba1   O10   S    
C8    H31   S    
O24   P7    S    
