data_mof_unit_45111.cif
_audit_creation_date              2012-12-10T16:56:30-0500
_audit_creation_method            fapswitch 2.2
_symmetry_space_group_name_H-M    P1
_symmetry_Int_Tables_number       1
_space_group_crystal_system       triclinic
_cell_length_a                    10.800388
_cell_length_b                    10.929597
_cell_length_c                    9.764277
_cell_angle_alpha                 89.470265
_cell_angle_beta                  90.564642
_cell_angle_gamma                 90.26473
_cell_volume                      1152.49616936

loop_
_atom_site_label
_atom_site_type_symbol
_atom_type_description
_atom_site_fract_x
_atom_site_fract_y
_atom_site_fract_z
_atom_type_partial_charge
C1    C     C_R   0.492829 0.265773 0.500589 0.837675
C2    C     C_3   0.878471 0.505030 0.503271 -0.187811
C3    C     C_3   0.929038 0.640972 0.528851 -0.173461
C4    C     C_3   0.925877 0.460765 0.359548 0.151229
C5    C     C_2   0.483064 0.935156 0.386289 0.479736
C6    C     C_2   0.512030 0.866781 0.497213 -0.226567
C7    C     C_2   0.497674 0.068589 0.393498 -0.261786
C8    C     C_2   0.463437 0.135861 0.501656 -0.169638
C9    C     C_2   0.512982 0.403706 0.926460 0.488624
C10   C     C_2   0.473100 0.405607 0.074596 0.133241
C11   C     C_R   0.260413 0.500361 0.499279 0.878995
C12   C     C_R   0.502138 0.734512 0.499105 0.853068
C13   C     C_R   0.739880 0.500829 0.500941 0.795498
C14   C     C_3   0.075049 0.407043 0.606354 0.086597
C15   C     C_3   0.931751 0.410442 0.612628 -0.188410
C16   C     C_3   0.076053 0.634248 0.537294 -0.313159
C17   C     C_3   0.068880 0.465658 0.355673 0.237821
C18   C     C_3   0.122544 0.502741 0.499265 -0.146339
Cu1   Cu    Cu3+1 0.500030 0.500020 0.638630 1.026259
Cu2   Cu    Cu3+1 0.499970 0.499980 0.361370 1.079552
H1    H     H_    0.116156 0.429313 0.708466 0.128035
H2    H     H_    0.888002 0.520924 0.276572 0.131564
H3    H     H_    0.116806 0.697720 0.460117 0.231837
H4    H     H_    0.544658 0.909656 0.590915 0.112553
H5    H     H_    0.543354 0.112039 0.306927 0.155964
H6    H     H_    0.895601 0.318349 0.584061 0.261418
H7    H     H_    0.103178 0.372422 0.332315 0.258739
N1    N     N_2   0.498630 0.498660 0.846910 -0.248275
N2    N     N_2   0.498590 0.498630 0.153040 -0.010200
O1    O     O_R   0.500020 0.321960 0.617040 -0.539621
O2    O     O_R   0.499980 0.321920 0.382900 -0.566064
O3    O     O_R   0.317710 0.500000 0.617070 -0.616276
O4    O     O_R   0.317670 0.499960 0.382930 -0.483187
O5    O     O_R   0.500020 0.678080 0.617100 -0.625571
O6    O     O_R   0.499980 0.678040 0.382960 -0.547910
O7    O     O_R   0.682330 0.500040 0.617070 -0.570227
O8    O     O_R   0.682290 0.500000 0.382930 -0.586484
C19   C     C_2   0.888844 0.725331 0.410687 0.380465
H8    H     H_    0.806990 0.704531 0.349926 0.045169
O9    O     O_2   0.941927 0.822443 0.388687 -0.453974
O10   O     O_3   0.446388 0.881261 0.264775 -0.678448
H9    H     H_    0.429045 0.947026 0.196663 0.330530
C20   C     C_2   0.383238 0.089760 0.614546 0.410212
H10   H     H_    0.386575 0.133519 0.713842 0.096508
O11   O     O_2   0.307767 0.007977 0.595728 -0.452304
O12   O     O_3   0.566980 0.300407 0.873872 -0.673655
H11   H     H_    0.582783 0.242060 0.950261 0.294307
C21   C     C_2   0.417251 0.594249 0.888344 0.645942
H12   H     H_    0.444606 0.688966 0.873549 0.087077
O13   O     O_2   0.314281 0.571162 0.932941 -0.565672
C22   C     C_2   0.390972 0.304327 0.119012 0.363442
H13   H     H_    0.395677 0.216312 0.068923 0.023769
O14   O     O_2   0.311576 0.319569 0.204784 -0.471940
O15   O     O_3   0.115105 0.288957 0.571625 -0.692351
H14   H     H_    0.103520 0.236193 0.653894 0.362116
O16   O     O_3   0.584812 0.575100 0.101665 -0.680646
H15   H     H_    0.610363 0.628380 0.177987 0.379883
C23   C     C_2   0.892745 0.428932 0.759578 0.362338
H16   H     H_    0.927633 0.505649 0.818051 0.057996
O17   O     O_2   0.825974 0.354137 0.816357 -0.465452
C24   C     C_2   0.129858 0.676638 0.673584 0.532379
H17   H     H_    0.103614 0.632063 0.768568 0.073258
O18   O     O_2   0.202721 0.762287 0.677824 -0.465326
C25   C     C_2   0.872763 0.700822 0.655074 0.326076
H18   H     H_    0.806814 0.654067 0.719429 0.092482
O19   O     O_2   0.899281 0.806224 0.684856 -0.453873
O20   O     O_3   0.111056 0.542027 0.248294 -0.675278
H19   H     H_    0.069820 0.622462 0.254258 0.335337
O21   O     O_3   0.884190 0.340723 0.333583 -0.692549
H20   H     H_    0.895443 0.326087 0.234243 0.354763

loop_
_geom_bond_atom_site_label_1
_geom_bond_atom_site_label_2
_ccdc_geom_bond_type
C2    C4    S    
C20   H10   S    
C11   C18   S    
C2    C15   S    
N2    O16   S    
C4    O21   S    
C1    C8    S    
C4    H2    S    
C9    C10   S    
C14   C18   S    
C13   O8    A    
Cu1   Cu2   S    
C7    H5    S    
C8    C20   S    
C1    O2    A    
Cu2   N2    S    
C6    H4    S    
C25   H18   S    
C21   O13   D    
C17   C18   S    
C9    N1    D    
C9    O12   S    
C3    C25   S    
C12   O6    A    
C19   O9    D    
Cu2   O8    S    
C20   O11   D    
C10   N2    D    
C19   H8    S    
Cu1   O1    S    
O20   H19   S    
C5    C6    D    
Cu1   O3    S    
C6    C12   S    
C16   C18   S    
C21   H12   S    
C14   O15   S    
C11   O3    A    
C2    C3    S    
C16   H3    S    
Cu1   O7    S    
Cu1   N1    S    
C24   H17   S    
C15   C23   S    
O21   H20   S    
C17   O20   S    
C7    C8    D    
C16   C24   S    
C4    C17   S    
C12   O5    A    
C22   H13   S    
C17   H7    S    
C10   C22   S    
C11   O4    A    
O16   H15   S    
C14   H1    S    
C13   O7    A    
Cu2   O4    S    
O10   H9    S    
C5    C7    S    
C2    C13   S    
C5    O10   S    
O15   H14   S    
C1    O1    A    
C15   H6    S    
C23   H16   S    
O12   H11   S    
Cu2   O6    S    
C23   O17   D    
Cu1   O5    S    
C24   O18   D    
N1    C21   S    
C3    C16   S    
C14   C15   S    
C3    C19   S    
C22   O14   D    
Cu2   O2    S    
C25   O19   D    
