data_mof_unit_55004.cif
_audit_creation_date              2012-12-10T19:46:40-0500
_audit_creation_method            fapswitch 2.2
_symmetry_space_group_name_H-M    P1
_symmetry_Int_Tables_number       1
_space_group_crystal_system       triclinic
_cell_length_a                    12.865798
_cell_length_b                    14.959588
_cell_length_c                    14.124525
_cell_angle_alpha                 90.23284
_cell_angle_beta                  98.230282
_cell_angle_gamma                 90.219959
_cell_volume                      2690.45774863

loop_
_atom_site_label
_atom_site_type_symbol
_atom_type_description
_atom_site_fract_x
_atom_site_fract_y
_atom_site_fract_z
_atom_type_partial_charge
C1    C     C_R   0.502939 0.327617 0.500047 0.856293
C2    C     C_R   0.502194 0.950415 0.504121 0.075456
C3    C     C_R   0.435753 0.436771 0.096289 0.409712
C4    C     C_R   0.474085 0.577567 0.892751 0.381018
C5    C     C_R   0.436247 0.441577 0.197155 -0.115310
C6    C     C_R   0.476463 0.576310 0.793089 -0.082804
C7    C     C_R   0.562331 0.557908 0.211979 -0.020734
C8    C     C_R   0.522059 0.423406 0.798435 -0.040499
C9    C     C_R   0.561721 0.558809 0.112611 -0.304724
C10   C     C_R   0.522599 0.421882 0.897967 -0.284612
C11   C     C_R   0.498555 0.498172 0.053424 0.058245
C12   C     C_R   0.499565 0.671702 0.500161 0.883915
C13   C     C_R   0.498836 0.499420 0.946912 0.072261
C14   C     C_R   0.297777 0.498630 0.480390 0.939200
C15   C     C_R   0.702445 0.499768 0.519665 0.939576
C16   C     C_R   0.815453 0.501892 0.532737 -0.243641
C17   C     C_R   0.185127 0.496837 0.466913 -0.235288
C18   C     C_R   0.016907 0.457755 0.377735 0.364678
C19   C     C_R   0.982326 0.551289 0.617550 0.394726
C20   C     C_R   0.126655 0.456305 0.386143 0.380213
C21   C     C_R   0.875213 0.533122 0.617881 0.359108
C22   C     C_R   0.136665 0.531783 0.540855 -0.299787
C23   C     C_R   0.506378 0.231366 0.499940 -0.040387
C24   C     C_R   0.862974 0.476573 0.454368 -0.304634
C25   C     C_R   0.029720 0.523565 0.538590 -0.035412
C26   C     C_R   0.969625 0.485791 0.456578 -0.050521
C27   C     C_R   0.453503 0.094388 0.568189 -0.186489
C28   C     C_R   0.595805 0.903307 0.504066 -0.172719
C29   C     C_R   0.454457 0.186481 0.566423 -0.249958
C30   C     C_R   0.593613 0.811214 0.502003 -0.250046
C31   C     C_3   0.859702 0.497300 0.774132 0.120464
C32   C     C_3   0.806753 0.405154 0.759981 -0.367619
C33   C     C_3   0.833184 0.347045 0.848615 -0.980980
C34   C     C_R   0.498148 0.766668 0.500751 -0.011629
C35   C     C_3   0.160140 0.326047 0.307108 0.108521
C36   C     C_3   0.254150 0.276056 0.360485 -0.377688
C37   C     C_3   0.239362 0.175033 0.350088 -0.974714
C38   C     C_3   0.939153 0.493987 0.228190 0.088881
C39   C     C_3   0.856082 0.463416 0.145936 -0.321598
C40   C     C_3   0.836048 0.534769 0.068616 -0.996831
C41   C     C_3   0.018269 0.682489 0.701788 0.108591
C42   C     C_3   0.100889 0.738247 0.660493 -0.397650
C43   C     C_3   0.082917 0.838157 0.672385 -0.955606
C44   C     C_3   0.623154 0.228803 0.366737 -0.891432
C45   C     C_R   0.560272 0.183528 0.435422 0.183216
C46   C     C_3   0.300260 0.764140 0.499627 -0.960266
C47   C     C_3   0.355262 0.294408 0.076082 0.085292
C48   C     C_3   0.457422 0.240023 0.094005 -0.400658
C49   C     C_3   0.440326 0.151970 0.143854 -0.943851
C50   C     C_3   0.339159 0.662734 0.927528 0.086681
C51   C     C_3   0.311036 0.743345 0.985355 -0.302283
C52   C     C_3   0.192336 0.755277 0.976759 -0.977880
C53   C     C_R   0.403345 0.812838 0.501487 0.193982
C54   C     C_R   0.557687 0.090783 0.437591 -0.177374
C55   C     C_R   0.406249 0.905681 0.502947 -0.166966
C56   C     C_R   0.504480 0.046759 0.503436 0.071917
H1    H     H_    0.816063 0.448886 0.391048 0.227369
H2    H     H_    0.666163 0.774557 0.502007 0.138744
H3    H     H_    0.596486 0.052487 0.387601 0.137445
H4    H     H_    0.334179 0.943237 0.501858 0.134347
H5    H     H_    0.385461 0.400311 0.232695 0.149731
H6    H     H_    0.458151 0.636568 0.752192 0.149896
H7    H     H_    0.836340 0.528614 0.839298 0.165325
H8    H     H_    0.946404 0.489418 0.788517 0.169700
H9    H     H_    0.720510 0.413466 0.745286 0.252320
H10   H     H_    0.833037 0.370476 0.697909 0.210163
H11   H     H_    0.919447 0.337573 0.865247 0.272000
H12   H     H_    0.183608 0.562506 0.602387 0.223163
H13   H     H_    0.795070 0.280562 0.835432 0.268444
H14   H     H_    0.803791 0.378455 0.910971 0.269594
H15   H     H_    0.151868 0.307703 0.230097 0.156484
H16   H     H_    0.087231 0.302295 0.333403 0.165368
H17   H     H_    0.326399 0.295191 0.331177 0.235581
H18   H     H_    0.264079 0.294339 0.437599 0.213140
H19   H     H_    0.170031 0.153114 0.382795 0.267562
H20   H     H_    0.309933 0.140547 0.386785 0.284404
H21   H     H_    0.228310 0.155402 0.273357 0.261251
H22   H     H_    0.013351 0.509654 0.199471 0.174772
H23   H     H_    0.612233 0.604193 0.256878 0.145229
H24   H     H_    0.909945 0.555699 0.260287 0.129389
H25   H     H_    0.882583 0.401090 0.113725 0.228162
H26   H     H_    0.781443 0.448883 0.174142 0.225669
H27   H     H_    0.812163 0.598521 0.099653 0.265320
H28   H     H_    0.771880 0.512325 0.012384 0.266238
H29   H     H_    0.908021 0.546315 0.035233 0.266619
H30   H     H_    0.020558 0.699997 0.778534 0.166548
H31   H     H_    0.938222 0.700638 0.665713 0.149453
H32   H     H_    0.180360 0.720844 0.697392 0.227246
H33   H     H_    0.097216 0.722731 0.583106 0.227324
H34   H     H_    0.540202 0.362915 0.762177 0.145111
H35   H     H_    0.004827 0.857432 0.634005 0.263893
H36   H     H_    0.144429 0.876455 0.642097 0.267351
H37   H     H_    0.087208 0.855749 0.749313 0.264326
H38   H     H_    0.569944 0.264447 0.310832 0.258856
H39   H     H_    0.679937 0.276802 0.406014 0.240271
H40   H     H_    0.668570 0.179957 0.329859 0.229395
H41   H     H_    0.303287 0.721152 0.563840 0.240342
H42   H     H_    0.233716 0.811284 0.499044 0.245012
H43   H     H_    0.284912 0.721585 0.434484 0.245315
H44   H     H_    0.299528 0.256803 0.022916 0.169414
H45   H     H_    0.611149 0.606215 0.082017 0.189051
H46   H     H_    0.315077 0.298599 0.140288 0.128069
H47   H     H_    0.485110 0.225715 0.024532 0.222514
H48   H     H_    0.519986 0.278246 0.139332 0.210995
H49   H     H_    0.415504 0.164964 0.214791 0.275453
H50   H     H_    0.514826 0.113699 0.154884 0.268209
H51   H     H_    0.379323 0.111108 0.099558 0.262999
H52   H     H_    0.303643 0.601786 0.955406 0.158616
H53   H     H_    0.305645 0.672460 0.851060 0.136479
H54   H     H_    0.343688 0.733995 0.061892 0.230835
H55   H     H_    0.346470 0.804725 0.959137 0.226976
H56   H     H_    0.542276 0.360519 0.936635 0.164881
H57   H     H_    0.158693 0.767362 0.901098 0.264106
H58   H     H_    0.174520 0.813668 0.020377 0.266440
H59   H     H_    0.155133 0.694843 0.003027 0.268557
H60   H     H_    0.413139 0.060253 0.619927 0.145299
H61   H     H_    0.670257 0.937859 0.505957 0.140821
H62   H     H_    0.413220 0.222737 0.616152 0.163789
N1    N     N_R   0.500000 0.499980 0.252470 -0.108360
N2    N     N_R   0.500000 0.500020 0.747530 -0.108774
O1    O     O_R   0.500010 0.369070 0.579480 -0.639726
O2    O     O_3   0.176896 0.419856 0.314362 -0.634615
O3    O     O_3   0.956428 0.424621 0.296032 -0.664184
O4    O     O_3   0.042258 0.590415 0.696450 -0.671129
O5    O     O_3   0.370105 0.379555 0.036164 -0.651242
O6    O     O_3   0.449542 0.655608 0.937023 -0.655300
O7    O     O_R   0.499990 0.630930 0.420520 -0.621067
O8    O     O_R   0.500010 0.369060 0.420520 -0.628522
O9    O     O_R   0.499990 0.630940 0.579480 -0.622177
O10   O     O_R   0.346360 0.499990 0.566340 -0.629341
O11   O     O_R   0.653640 0.500010 0.433660 -0.639753
O12   O     O_R   0.346360 0.499980 0.407390 -0.570344
O13   O     O_R   0.653640 0.500020 0.592610 -0.576758
O14   O     O_3   0.826507 0.555139 0.696369 -0.633740
Zn1   Zn    Zn3+2 0.500000 0.500010 0.606140 0.950680
Zn2   Zn    Zn3+2 0.500000 0.499990 0.393860 0.947620

loop_
_geom_bond_atom_site_label_1
_geom_bond_atom_site_label_2
_ccdc_geom_bond_type
C46   H43   S    
C16   C21   A    
C23   C45   A    
C27   C29   A    
C41   C42   S    
C40   H28   S    
C35   C36   S    
C18   C26   A    
C1    O8    A    
C49   H51   S    
C12   O7    A    
C14   O12   A    
C52   H57   S    
C41   H30   S    
C33   H11   S    
C5    N1    A    
C23   C29   A    
C41   O4    S    
C32   H10   S    
C36   C37   S    
C19   C21   A    
C24   C26   A    
C28   H61   S    
O8    Zn2   S    
C38   C39   S    
C15   O11   A    
C15   C16   S    
C48   H48   S    
C17   C20   A    
C4    C13   A    
O9    Zn1   S    
C31   C32   S    
C24   H1    S    
C22   C25   A    
C10   H56   S    
C50   O6    S    
C20   O2    S    
C38   O3    S    
C33   H13   S    
C18   O3    S    
C27   H60   S    
C46   H42   S    
C35   H15   S    
C16   C24   A    
C47   H46   S    
C55   H4    S    
C50   H52   S    
C40   H27   S    
C31   O14   S    
C6    N2    A    
C47   O5    S    
C54   H3    S    
C53   C55   A    
C41   H31   S    
C54   C56   A    
C19   O4    S    
C12   O9    A    
C30   C34   A    
C51   C52   S    
C31   H7    S    
C3    C11   A    
O7    Zn2   S    
C39   H25   S    
C4    C6    A    
O11   Zn2   S    
C39   C40   S    
C27   C56   A    
C49   H49   S    
C38   H22   S    
C25   C26   A    
C48   H47   S    
C37   H21   S    
C50   H53   S    
C43   H35   S    
C47   H44   S    
C40   H29   S    
C44   H40   S    
C7    N1    A    
C47   C48   S    
O12   Zn2   S    
C50   C51   S    
C5    H5    S    
O1    Zn1   S    
C9    C11   A    
C22   H12   S    
C36   H18   S    
C33   H14   S    
C9    H45   S    
C48   C49   S    
C37   H20   S    
C35   H16   S    
C1    C23   S    
C51   H54   S    
C42   H32   S    
C42   C43   S    
C12   C34   S    
C21   O14   S    
C44   C45   S    
C8    N2    A    
C7    H23   S    
C14   O10   A    
C52   H59   S    
C7    C9    A    
C51   H55   S    
C31   H8    S    
C46   H41   S    
C35   O2    S    
C43   H36   S    
C39   H26   S    
C3    C5    A    
C10   C13   A    
C45   C54   A    
C3    O5    S    
C49   H50   S    
C15   O13   A    
C52   H58   S    
C29   H62   S    
C17   C22   A    
C4    O6    S    
C2    C55   A    
N2    Zn1   S    
C32   C33   S    
C42   H33   S    
C28   C30   A    
C44   H39   S    
C2    C56   S    
N1    Zn2   S    
C11   C13   S    
C6    H6    S    
C38   H24   S    
C30   H2    S    
C46   C53   S    
C43   H37   S    
C18   C20   A    
C37   H19   S    
C19   C25   A    
C1    O1    A    
O10   Zn1   S    
C44   H38   S    
C36   H17   S    
C8    H34   S    
C34   C53   A    
C8    C10   A    
O13   Zn1   S    
C2    C28   A    
C32   H9    S    
C14   C17   S    
