data_mof_unit_59999.cif
_audit_creation_date              2013-03-05T15:53:28-0500
_audit_creation_method            fapswitch 2.2
_symmetry_space_group_name_H-M    P1
_symmetry_Int_Tables_number       1
_space_group_crystal_system       triclinic
_cell_length_a                    24.534434
_cell_length_b                    17.205667
_cell_length_c                    15.548914
_cell_angle_alpha                 89.802479
_cell_angle_beta                  129.208613
_cell_angle_gamma                 90.492728
_cell_volume                      5085.66171253

loop_
_atom_site_label
_atom_site_type_symbol
_atom_site_description
_atom_site_fract_x
_atom_site_fract_y
_atom_site_fract_z
_atom_type_partial_charge
C1    C     C_R   0.832815 0.891949 0.198046 -0.064791
C2    C     C_R   0.160273 0.874116 0.784466 -0.081459
C3    C     C_R   0.332968 0.391647 0.198227 -0.054199
C4    C     C_R   0.666784 0.392038 0.801548 -0.067352
H1    H     H_    0.779729 0.893408 0.169795 0.147206
H2    H     H_    0.212705 0.867317 0.811511 0.156762
H3    H     H_    0.279844 0.393064 0.169722 0.154261
H4    H     H_    0.719872 0.393886 0.829852 0.162197
N1    N     N_R   0.888400 0.921830 0.294620 -0.062434
N2    N     N_R   0.111600 0.921830 0.705380 -0.057348
N3    N     N_R   0.388400 0.421830 0.294620 -0.056278
N4    N     N_R   0.611600 0.421830 0.705380 -0.057140
C5    C     C_R   0.085879 0.857263 0.405110 -0.068738
C6    C     C_R   0.911256 0.857716 0.592658 -0.066137
C7    C     C_R   0.589499 0.356733 0.408080 -0.011318
C8    C     C_R   0.409792 0.356913 0.591808 -0.080788
H5    H     H_    0.057612 0.842992 0.318781 0.128206
H6    H     H_    0.937317 0.843265 0.677590 0.136781
H7    H     H_    0.563259 0.341378 0.322661 0.140779
H8    H     H_    0.438803 0.341044 0.677645 0.166433
N5    N     N_R   0.079940 0.922160 0.443410 -0.052663
N6    N     N_R   0.920060 0.922160 0.556590 -0.051094
N7    N     N_R   0.579940 0.422160 0.443410 -0.063301
N8    N     N_R   0.420060 0.422160 0.556590 -0.059574
C9    C     C_R   0.164183 0.857760 0.590217 0.013174
C10   C     C_R   0.835681 0.857061 0.407515 0.013023
C11   C     C_R   0.663031 0.358104 0.593773 -0.043763
C12   C     C_R   0.334355 0.358067 0.406692 -0.003262
H9    H     H_    0.210250 0.844497 0.673531 0.151164
H10   H     H_    0.793138 0.842102 0.322058 0.156289
H11   H     H_    0.704287 0.343954 0.679811 0.160834
H12   H     H_    0.292449 0.345099 0.320523 0.184318
N9    N     N_R   0.125650 0.922400 0.556620 -0.061975
N10   N     N_R   0.874350 0.922400 0.443380 -0.068773
N11   N     N_R   0.625650 0.422400 0.556620 -0.054739
N12   N     N_R   0.374350 0.422400 0.443380 -0.061985
C13   C     C_R   0.070412 0.875201 0.787515 -0.081084
C14   C     C_R   0.923534 0.892908 0.197406 -0.103892
C15   C     C_R   0.575980 0.392004 0.802001 -0.063706
C16   C     C_R   0.423915 0.392118 0.198034 -0.095184
H13   H     H_    0.041693 0.869009 0.818356 0.140392
H14   H     H_    0.952462 0.896333 0.166453 0.153095
H15   H     H_    0.546831 0.394293 0.832584 0.152186
H16   H     H_    0.453254 0.394788 0.167752 0.146163
N13   N     N_R   0.054230 0.922730 0.705400 -0.049943
N14   N     N_R   0.945770 0.922730 0.294600 -0.056890
N15   N     N_R   0.554230 0.422730 0.705400 -0.058898
N16   N     N_R   0.445770 0.422730 0.294600 -0.057804
C17   C     C_R   0.853257 0.873418 0.135537 0.103094
C18   C     C_R   0.133464 0.839827 0.831075 0.094363
C19   C     C_R   0.353537 0.372719 0.136027 0.095638
C20   C     C_R   0.646131 0.372692 0.863673 0.092223
C21   C     C_R   0.137975 0.815356 0.495866 0.139554
C22   C     C_R   0.859566 0.815184 0.501292 0.138829
C23   C     C_R   0.641329 0.315548 0.502307 0.142693
C24   C     C_R   0.357050 0.313808 0.498745 0.137531
C25   C     C_R   0.811187 0.100892 0.410236 0.272737
C26   C     C_R   0.190084 0.099162 0.592656 0.271882
C27   C     C_R   0.310696 0.599037 0.406903 0.255105
C28   C     C_R   0.690532 0.592298 0.591956 0.233764
N17   N     N_R   0.873790 0.077030 0.443380 -0.125892
N18   N     N_R   0.126210 0.077030 0.556620 -0.124210
N19   N     N_R   0.373790 0.577030 0.443380 -0.113923
N20   N     N_R   0.626210 0.577030 0.556620 -0.120180
C29   C     C_R   0.941767 0.140996 0.242040 -0.009121
C30   C     C_R   0.056737 0.142265 0.753983 0.016610
C31   C     C_R   0.427577 0.618041 0.207102 -0.008865
C32   C     C_R   0.557462 0.642382 0.754491 -0.010384
H17   H     H_    0.977969 0.156798 0.227980 0.192284
H18   H     H_    0.018838 0.158403 0.764452 0.163413
H19   H     H_    0.456567 0.619766 0.176487 0.191339
H20   H     H_    0.520833 0.658662 0.767265 0.185179
N21   N     N_R   0.945200 0.076700 0.294600 -0.057302
N22   N     N_R   0.054800 0.076700 0.705400 -0.046039
N23   N     N_R   0.445200 0.576700 0.294600 -0.065397
N24   N     N_R   0.554800 0.576700 0.705400 -0.056646
C33   C     C_R   0.147693 0.143175 0.754189 -0.101218
C34   C     C_R   0.851446 0.141628 0.243342 -0.101610
C35   C     C_R   0.647411 0.643693 0.752054 -0.071712
C36   C     C_R   0.337921 0.620635 0.210148 -0.118110
H21   H     H_    0.194581 0.158921 0.766835 0.169691
H22   H     H_    0.804137 0.156363 0.229861 0.156668
H23   H     H_    0.693519 0.659730 0.761478 0.128968
H24   H     H_    0.286280 0.627177 0.186189 0.154510
N25   N     N_R   0.111030 0.077600 0.705380 -0.042437
N26   N     N_R   0.888970 0.077600 0.294620 -0.042373
N27   N     N_R   0.611030 0.577600 0.705380 -0.033313
N28   N     N_R   0.388970 0.577600 0.294620 -0.042135
C37   C     C_R   0.884762 0.094703 0.593501 0.225626
C38   C     C_R   0.117124 0.099984 0.409781 0.295756
C39   C     C_R   0.384926 0.603621 0.591025 0.265095
C40   C     C_R   0.615966 0.601141 0.408932 0.287167
N29   N     N_R   0.919490 0.077280 0.556590 -0.125818
N30   N     N_R   0.080510 0.077280 0.443410 -0.133414
N31   N     N_R   0.419490 0.577280 0.556590 -0.126844
N32   N     N_R   0.580510 0.577280 0.443410 -0.126981
Ni1   Ni    Ni4+2 0.882160 0.999430 0.370180 0.286942
Ni2   Ni    Ni4+2 0.117840 0.999430 0.629820 0.301108
Ni3   Ni    Ni4+2 0.382160 0.499430 0.370180 0.284554
Ni4   Ni    Ni4+2 0.617840 0.499430 0.629820 0.304396
Ni5   Ni    Ni4+2 0.012460 0.999430 0.370180 0.292407
Ni6   Ni    Ni4+2 0.987540 0.999430 0.629820 0.307845
Ni7   Ni    Ni4+2 0.512460 0.499430 0.370180 0.280277
Ni8   Ni    Ni4+2 0.487540 0.499430 0.629820 0.292981
C41   C     C_R   0.816535 0.111781 0.503339 -0.076683
C42   C     C_R   0.188033 0.111774 0.502180 -0.119544
C43   C     C_R   0.316541 0.617925 0.498263 -0.102956
C44   C     C_R   0.685806 0.609216 0.501117 -0.083562
C45   C     C_R   0.884017 0.183765 0.210638 -0.080358
C46   C     C_R   0.114380 0.185857 0.784589 -0.095452
C47   C     C_R   0.360216 0.645658 0.152135 -0.059444
C48   C     C_R   0.614596 0.686289 0.783362 -0.092324
C49   C     C_R   0.826604 0.747316 0.597105 -0.150953
C50   C     C_R   0.186063 0.765066 0.414345 -0.131489
C51   C     C_R   0.351269 0.211353 0.603136 -0.060488
C52   C     C_R   0.753485 0.256854 0.590780 -0.049594
C53   C     C_R   0.828559 0.747873 0.509641 -0.054992
C54   C     C_R   0.172490 0.753574 0.487546 -0.064511
C55   C     C_R   0.329396 0.238161 0.500804 -0.107919
C56   C     C_R   0.680975 0.251450 0.509856 -0.148363
C57   C     C_R   0.797545 0.686475 0.431692 0.334952
C58   C     C_R   0.195955 0.686174 0.553573 0.354077
C59   C     C_R   0.280618 0.192401 0.405053 0.329428
C60   C     C_R   0.650227 0.184436 0.442689 0.351244
C61   C     C_R   0.245042 0.130151 0.412440 0.368618
C62   C     C_R   0.694948 0.131105 0.443458 0.414226
C63   C     C_R   0.756093 0.630477 0.435942 0.424796
C64   C     C_R   0.239473 0.633832 0.550677 0.428391
C65   C     C_R   0.250433 0.124812 0.507877 -0.020969
C66   C     C_R   0.767726 0.148021 0.512449 0.022473
C67   C     C_R   0.742346 0.644166 0.509828 0.055640
C68   C     C_R   0.262961 0.656678 0.491858 0.057273
C69   C     C_R   0.312005 0.153806 0.606923 0.065005
C70   C     C_R   0.795831 0.206606 0.591276 0.036179
C71   C     C_R   0.782879 0.697607 0.595204 0.044893
C72   C     C_R   0.231995 0.718621 0.418993 0.036532
C73   C     C_3   0.762482 0.754410 0.643045 -0.691619
C74   C     C_3   0.263635 0.782302 0.397127 -0.683667
C75   C     C_3   0.376885 0.105794 0.686719 -0.536939
C76   C     C_3   0.851291 0.266517 0.627081 -0.653472
C77   C     C_3   0.810986 0.811168 0.645197 0.999092
C78   C     C_3   0.212683 0.835616 0.392697 1.005226
C79   C     C_3   0.418994 0.169498 0.685932 0.899065
C80   C     C_3   0.803814 0.323526 0.626111 0.966094
H25   H     H_    0.705906 0.770222 0.583520 0.205729
H26   H     H_    0.319913 0.793261 0.469075 0.215769
H27   H     H_    0.389950 0.098477 0.768846 0.266478
H28   H     H_    0.901223 0.254287 0.711402 0.263590
H29   H     H_    0.781405 0.736631 0.726671 0.203346
H30   H     H_    0.252148 0.774654 0.316088 0.205821
H31   H     H_    0.375720 0.050007 0.649536 0.182022
H32   H     H_    0.857200 0.277967 0.562881 0.181492
H33   H     H_    0.786682 0.277714 0.176122 0.147087
H34   H     H_    0.213342 0.280328 0.821529 0.151764
H35   H     H_    0.223442 0.627445 0.000964 0.158454
H36   H     H_    0.714502 0.780027 0.821987 0.132542
H37   H     H_    0.196630 0.725298 0.817446 0.194057
H38   H     H_    0.713675 0.884966 0.983993 0.169119
H39   H     H_    0.786053 0.383530 0.013396 0.172614
H40   H     H_    0.213910 0.384987 0.984788 0.167359
C81   C     C_2   0.164099 0.772625 0.903606 -0.206740
C82   C     C_2   0.807602 0.846250 0.020494 -0.177230
C83   C     C_2   0.691931 0.344375 0.978021 -0.172156
C84   C     C_2   0.307632 0.345419 0.021017 -0.172713
C85   C     C_2   0.197135 0.720644 0.887607 -0.024871
C86   C     C_2   0.737705 0.851725 0.956786 -0.003408
C87   C     C_2   0.761918 0.349436 0.040318 -0.017598
C88   C     C_2   0.237730 0.351336 0.957561 -0.029151
C89   C     C_2   0.858032 0.256123 0.145540 0.353463
C90   C     C_2   0.139672 0.259272 0.847742 0.361214
C91   C     C_2   0.315556 0.680539 0.041475 0.342029
C92   C     C_2   0.639624 0.759973 0.845815 0.356356
C93   C     C_2   0.805326 0.294749 0.131431 -0.296081
C94   C     C_2   0.193698 0.297732 0.864401 -0.286091
C95   C     C_2   0.245687 0.667345 0.976055 -0.306022
C96   C     C_2   0.694125 0.798014 0.863575 -0.296028
H41   H     H_    0.163033 0.767625 0.972239 0.160416
H42   H     H_    0.831425 0.813700 0.992144 0.154820
H43   H     H_    0.668129 0.310973 0.006321 0.168074
H44   H     H_    0.331172 0.312429 0.992543 0.171772
O1    O     O_3   0.209699 0.072080 0.333558 -0.664331
H45   H     H_    0.227259 0.070204 0.291182 0.341777
O2    O     O_3   0.669925 0.065863 0.376659 -0.677817
H46   H     H_    0.620254 0.074107 0.310808 0.353364
O3    O     O_3   0.728155 0.564817 0.369976 -0.675214
H47   H     H_    0.757632 0.551119 0.349287 0.330834
O4    O     O_3   0.260400 0.562983 0.604171 -0.694226
H48   H     H_    0.225538 0.545357 0.612692 0.329362
O5    O     O_3   0.775351 0.873986 0.572429 -0.709569
H49   H     H_    0.761944 0.908559 0.607195 0.355212
O6    O     O_3   0.246249 0.889823 0.479866 -0.726630
H50   H     H_    0.268163 0.929151 0.463108 0.343775
O7    O     O_3   0.462859 0.210129 0.786740 -0.729414
H51   H     H_    0.502941 0.175307 0.839353 0.348091
O8    O     O_3   0.832666 0.351365 0.731923 -0.669331
H52   H     H_    0.870471 0.388564 0.752943 0.374009
O9    O     O_3   0.869529 0.835255 0.752656 -0.733248
H53   H     H_    0.895628 0.788274 0.797121 0.304963
O10   O     O_3   0.161873 0.870250 0.288538 -0.707143
H54   H     H_    0.136977 0.828410 0.231702 0.306151
O11   O     O_3   0.454810 0.147258 0.646243 -0.735958
H55   H     H_    0.421988 0.116704 0.576896 0.301424
O12   O     O_3   0.777105 0.383688 0.547335 -0.721448
H56   H     H_    0.755745 0.359978 0.473948 0.304163
N33   N     N_R   0.882952 0.278269 0.086450 0.246351
O13   O     O_R   0.949079 0.295314 0.140974 -0.336179
O14   O     O_R   0.841693 0.272305 0.978822 -0.348750
N34   N     N_R   0.113240 0.282011 0.904061 0.244847
O15   O     O_R   0.047511 0.300918 0.846900 -0.389000
O16   O     O_R   0.152061 0.273899 0.011103 -0.357263
N35   N     N_R   0.346658 0.731948 0.009294 0.253913
O17   O     O_R   0.404029 0.770254 0.084694 -0.336412
O18   O     O_R   0.323194 0.733377 0.907288 -0.364446
N36   N     N_R   0.612306 0.783441 0.900560 0.243839
O19   O     O_R   0.546642 0.803101 0.841979 -0.349603
O20   O     O_R   0.649947 0.774653 0.007304 -0.357841
N37   N     N_R   0.746952 0.093148 0.299050 0.257122
O21   O     O_R   0.739094 0.036727 0.236483 -0.389825
O22   O     O_R   0.700431 0.148102 0.255340 -0.401071
N38   N     N_R   0.252357 0.083167 0.703116 0.233862
O23   O     O_R   0.292621 0.140532 0.767574 -0.420146
O24   O     O_R   0.259032 0.015944 0.747233 -0.390489
N39   N     N_R   0.246772 0.573100 0.302192 0.239015
O25   O     O_R   0.185503 0.593935 0.269674 -0.374131
O26   O     O_R   0.249285 0.519235 0.246352 -0.433638
N40   N     N_R   0.752722 0.562981 0.695660 0.248435
O27   O     O_R   0.748520 0.533192 0.768249 -0.419274
O28   O     O_R   0.810761 0.553751 0.710560 -0.349443
N41   N     N_R   0.906655 0.067751 0.698974 0.256188
O29   O     O_R   0.965398 0.030272 0.765853 -0.389323
O30   O     O_R   0.863734 0.068961 0.721298 -0.330253
N42   N     N_R   0.089567 0.092929 0.297241 0.270153
O31   O     O_R   0.050310 0.033311 0.238433 -0.360469
O32   O     O_R   0.090987 0.152883 0.247408 -0.328316
N43   N     N_R   0.408853 0.594107 0.701538 0.260558
O33   O     O_R   0.452328 0.538653 0.763947 -0.390669
O34   O     O_R   0.392727 0.644934 0.743801 -0.309127
N44   N     N_R   0.590383 0.592294 0.297681 0.259005
O35   O     O_R   0.557160 0.529040 0.242504 -0.399640
O36   O     O_R   0.598526 0.648175 0.250052 -0.323161
O37   O     O_3   0.804813 0.685947 0.350583 -0.738677
H57   H     H_    0.764493 0.657437 0.284950 0.353278
O38   O     O_3   0.179277 0.676188 0.622727 -0.752375
H58   H     H_    0.215283 0.643008 0.685942 0.347369
O39   O     O_3   0.268672 0.209017 0.307564 -0.733713
H59   H     H_    0.221117 0.189928 0.244324 0.373595
O40   O     O_3   0.578390 0.174104 0.377983 -0.727884
H60   H     H_    0.567832 0.117701 0.367921 0.336538

loop_
_geom_bond_atom_site_label_1
_geom_bond_atom_site_label_2
_geom_bond_distance
_ccdc_geom_bond_type
N24   Ni8   1.841991 S    
C42   C65   1.491550 S    
C25   C41   1.381761 A    
O12   H56   0.993290 S    
C26   N18   1.340105 A    
C28   C44   1.372546 A    
N19   N31   1.363982 A    
C64   O4    1.380320 S    
C78   O10   1.409134 S    
C6    H6    1.071241 S    
N21   Ni5   1.856569 S    
N39   O25   1.300346 A    
C36   H24   1.078012 S    
C73   H29   1.111903 S    
C76   H28   1.111701 S    
C35   N27   1.336340 A    
C34   C45   1.387096 A    
C12   C24   1.389524 A    
C31   N23   1.341178 A    
C80   O8    1.401632 S    
C66   C70   1.386297 A    
N33   O13   1.300554 A    
C74   H30   1.111770 S    
H40   C88   1.084566 S    
C7    H7    1.080170 S    
C92   C96   1.346113 D    
C75   H27   1.109680 S    
N8    N12   1.364005 A    
C35   C48   1.389399 A    
C4    C20   1.383617 A    
C81   C85   1.337039 D    
C1    H1    1.080317 S    
C50   C78   1.508247 S    
C73   H25   1.112590 S    
C88   C94   1.459323 S    
C9    C21   1.380096 A    
O37   H57   0.989659 S    
C3    H3    1.079792 S    
C15   N15   1.344014 A    
C89   N33   1.437699 S    
C11   C23   1.373086 A    
C68   C72   1.383482 A    
C59   C61   1.425487 A    
N5    N9    1.363986 A    
C62   C66   1.412540 A    
O38   H58   0.989663 S    
C30   N22   1.343521 A    
H33   C93   1.084539 S    
C40   N32   1.339627 A    
N10   Ni1   1.830216 S    
C29   N21   1.344290 A    
N3    Ni3   1.851527 S    
N9    Ni2   1.838266 S    
C54   C58   1.409356 A    
N2    Ni2   1.843772 S    
N26   Ni1   1.857579 S    
C53   C57   1.411735 A    
C44   C67   1.432783 S    
N19   Ni3   1.852292 S    
N25   Ni2   1.865511 S    
C2    C18   1.378017 A    
C28   N40   1.442104 S    
N18   Ni2   1.844069 S    
C75   C79   1.505084 S    
O10   H54   0.993318 S    
C40   C44   1.379123 A    
N7    Ni7   1.857165 S    
N30   Ni5   1.856531 S    
C45   C89   1.473109 S    
N34   O15   1.300478 A    
C35   H23   1.078255 S    
C1    C17   1.385310 A    
C16   N16   1.342436 A    
N43   O33   1.300858 A    
C47   C91   1.463545 S    
C39   N43   1.431279 S    
C33   H21   1.069784 S    
C4    N4    1.333735 A    
C76   H32   1.112423 S    
C5    C21   1.368724 A    
C84   H44   1.087375 S    
C4    H4    1.079719 S    
C87   C93   1.458466 S    
N5    Ni5   1.857165 S    
C34   N26   1.334260 A    
C7    N7    1.340043 A    
C15   C20   1.383186 A    
C33   N25   1.335445 A    
N1    N14   1.407692 A    
C8    N8    1.337503 A    
C82   C86   1.336179 D    
O39   H59   0.990551 S    
C18   C81   1.451894 S    
N23   Ni7   1.856569 S    
N43   O34   1.300672 A    
C38   N42   1.427650 S    
C62   O2    1.380504 S    
C2    H2    1.078715 S    
C77   O9    1.409587 S    
N4    N15   1.407955 A    
C92   N36   1.437062 S    
C10   C22   1.381440 A    
N38   O24   1.300347 A    
N38   O23   1.301089 A    
C10   N10   1.338658 A    
C38   N30   1.348849 A    
N44   O36   1.300622 A    
C23   C56   1.431572 S    
N33   O14   1.301333 A    
C9    H9    1.076552 S    
N6    N10   1.364005 A    
N14   Ni5   1.828188 S    
C51   C79   1.498867 S    
N4    Ni4   1.843772 S    
H34   C94   1.084595 S    
C61   O1    1.379664 S    
O6    H50   0.992228 S    
C39   C43   1.378796 A    
C12   H12   1.076340 S    
C1    N1    1.335365 A    
C38   C42   1.402776 A    
C52   C80   1.504927 S    
C72   C74   1.495067 S    
C74   C78   1.522934 S    
H37   C85   1.085812 S    
C59   O39   1.379192 S    
C3    C19   1.384964 A    
C21   C54   1.420811 S    
C15   H15   1.081538 S    
O8    H52   0.992329 S    
C51   C69   1.402404 A    
C11   N11   1.319782 A    
N37   O21   1.300817 A    
O1    H45   0.989983 S    
N16   Ni7   1.828190 S    
C91   C95   1.347233 D    
C37   N29   1.330051 A    
C27   C43   1.374403 A    
C52   C56   1.387296 A    
C51   C55   1.397184 A    
C32   H20   1.075135 S    
C26   C42   1.391859 A    
C7    C23   1.385136 A    
N20   N32   1.364007 A    
C83   C87   1.337690 D    
O2    H46   0.988942 S    
C8    C24   1.393535 A    
C90   N34   1.437071 S    
N41   O29   1.300338 A    
C80   O12   1.410447 S    
C91   N35   1.443293 S    
C34   H22   1.073566 S    
C67   C71   1.385752 A    
N35   O17   1.301228 A    
N20   Ni4   1.844068 S    
C8    H8    1.078100 S    
N35   O18   1.301253 A    
C40   N44   1.427198 S    
N2    N13   1.407955 A    
N42   O32   1.301424 A    
C77   O5    1.403549 S    
C19   C84   1.461972 S    
N40   O27   1.299800 A    
C30   C46   1.386511 A    
N3    N16   1.407692 A    
N24   N27   1.379719 A    
C29   C45   1.388601 A    
C17   C82   1.461671 S    
C50   C54   1.386357 A    
C27   N39   1.440250 S    
C49   C53   1.390771 A    
C46   C90   1.472938 S    
C84   C88   1.337183 D    
C31   C47   1.382923 A    
C6    C22   1.369473 A    
C69   C75   1.508054 S    
N40   O28   1.301173 A    
N18   N30   1.364007 A    
C11   H11   1.078670 S    
C83   H43   1.087339 S    
C24   C55   1.472220 S    
C65   C69   1.397741 A    
N32   Ni7   1.856531 S    
N37   O22   1.300783 A    
C13   N13   1.346883 A    
N11   Ni4   1.838267 S    
C2    N2    1.328723 A    
C14   C17   1.380573 A    
N31   Ni8   1.871522 S    
H38   C86   1.084646 S    
C60   C62   1.430600 A    
N27   Ni4   1.865510 S    
C57   O37   1.380860 S    
H35   C95   1.085430 S    
O5    H49   0.992296 S    
C71   C73   1.497669 S    
C73   C77   1.516831 S    
N44   O35   1.300765 A    
C64   C68   1.408189 A    
N1    Ni1   1.851527 S    
N15   Ni8   1.842600 S    
C79   O11   1.411519 S    
N36   O19   1.300575 A    
C27   N19   1.326597 A    
N17   Ni1   1.852292 S    
C76   C80   1.521995 S    
C43   C68   1.425356 S    
H36   C96   1.084719 S    
N29   Ni6   1.871523 S    
O40   H60   0.989366 S    
N39   O26   1.300299 A    
C57   C63   1.426404 A    
C25   N17   1.342345 A    
C58   O38   1.380941 S    
C90   C94   1.346830 D    
C55   C59   1.417009 A    
C32   N24   1.343754 A    
C16   C19   1.382029 A    
C30   H18   1.079019 S    
C26   N38   1.430475 S    
N6    Ni6   1.842342 S    
C86   C96   1.459737 S    
C5    H5    1.079570 S    
N22   Ni6   1.841993 S    
C28   N20   1.326251 A    
C37   N41   1.441684 S    
C6    N6    1.317328 A    
C60   O40   1.379904 S    
C85   C95   1.445749 S    
N36   O20   1.301256 A    
O4    H48   0.989756 S    
C36   N28   1.330973 A    
N34   O16   1.301264 A    
C5    N5    1.318996 A    
C14   N14   1.342753 A    
C70   C76   1.498675 S    
C13   C18   1.382350 A    
C89   C93   1.347962 D    
O3    H47   0.989776 S    
C48   C92   1.472590 S    
C25   N37   1.429540 S    
C74   H26   1.112481 S    
C29   H17   1.073114 S    
C78   O6    1.403364 S    
C36   C47   1.383971 A    
C75   H31   1.113038 S    
N42   O31   1.300774 A    
C63   O3    1.379858 S    
H39   C87   1.084317 S    
N12   Ni3   1.830216 S    
C31   H19   1.077475 S    
C49   C77   1.512656 S    
N22   N25   1.379719 A    
C13   H13   1.078580 S    
O9    H53   0.993369 S    
N7    N11   1.363986 A    
C63   C67   1.407907 A    
N21   N26   1.379990 A    
C82   H42   1.087509 S    
N28   Ni3   1.857579 S    
C3    N3    1.334843 A    
N13   Ni6   1.842599 S    
C41   C66   1.439037 S    
C39   N31   1.339218 A    
C58   C64   1.424994 A    
C14   H14   1.081554 S    
C61   C65   1.406825 A    
N23   N28   1.379990 A    
C16   H16   1.081536 S    
C52   C70   1.353587 A    
O11   H55   0.993148 S    
C12   N12   1.338454 A    
N41   O30   1.300915 A    
O7    H51   0.992428 S    
C49   C71   1.351879 A    
C22   C53   1.430216 S    
C37   C41   1.375647 A    
C50   C72   1.351239 A    
N8    Ni8   1.842343 S    
C20   C83   1.462458 S    
N17   N29   1.363982 A    
C81   H41   1.086996 S    
C33   C46   1.389926 A    
C32   C48   1.387696 A    
C56   C60   1.409449 A    
C9    N9    1.339130 A    
C10   H10   1.079617 S    
C79   O7    1.402054 S    
