data_mof_unit_22786.cif
_audit_creation_date              2012-12-10T20:46:49-0500
_audit_creation_method            fapswitch 2.2
_symmetry_space_group_name_H-M    P1
_symmetry_Int_Tables_number       1
_space_group_crystal_system       triclinic
_cell_length_a                    12.888843
_cell_length_b                    8.933815
_cell_length_c                    8.105383
_cell_angle_alpha                 90.025382
_cell_angle_beta                  97.414027
_cell_angle_gamma                 89.978089
_cell_volume                      925.503841544

loop_
_atom_site_label
_atom_site_type_symbol
_atom_type_description
_atom_site_fract_x
_atom_site_fract_y
_atom_site_fract_z
_atom_type_partial_charge
C1    C     C_R   0.499944 0.217981 0.499967 0.965502
C2    C     C_R   0.500056 0.782019 0.500032 0.965490
C3    C     C_R   0.297688 0.506234 0.467154 0.920018
C4    C     C_R   0.702312 0.493754 0.532846 0.920061
C5    C     C_R   0.814474 0.482811 0.553391 -0.138058
C6    C     C_R   0.185526 0.517172 0.446612 -0.138075
C7    C     C_R   0.019001 0.594952 0.302020 -0.205703
C8    C     C_R   0.981001 0.405030 0.697978 -0.205659
C9    C     C_R   0.127415 0.589848 0.309256 -0.048072
C10   C     C_R   0.872585 0.410112 0.690736 -0.048136
C11   C     C_R   0.136055 0.454753 0.573523 -0.228762
C12   C     C_R   0.863946 0.545244 0.426488 -0.228814
C13   C     C_R   0.029398 0.465041 0.568423 0.161433
C14   C     C_R   0.970602 0.534956 0.431585 0.161456
C15   C     C_1   0.499985 0.065187 0.499969 -0.165844
C16   C     C_1   0.500015 0.934813 0.500031 -0.165847
H1    H     H_    0.819028 0.601912 0.322245 0.170961
H2    H     H_    0.180972 0.398086 0.677768 0.170980
H3    H     H_    0.972616 0.650359 0.198427 0.174467
H4    H     H_    0.027389 0.349617 0.801563 0.174535
N1    N     N_1   0.500020 0.500000 0.073640 -0.026903
N2    N     N_1   0.499980 0.500000 0.926360 -0.026896
O1    O     O_R   0.499990 0.285340 0.636850 -0.602627
O2    O     O_R   0.500010 0.714660 0.363150 -0.602645
O3    O     O_R   0.500010 0.285340 0.363150 -0.622744
O4    O     O_R   0.499990 0.714660 0.636850 -0.622744
O5    O     O_R   0.346350 0.500000 0.614250 -0.624047
O6    O     O_R   0.653650 0.500000 0.385750 -0.624068
O7    O     O_R   0.346360 0.500000 0.340500 -0.603471
O8    O     O_R   0.653640 0.500000 0.659500 -0.603444
Zn1   Zn    Zn3+2 0.499990 0.500000 0.682780 1.018298
Zn2   Zn    Zn3+2 0.500010 0.500000 0.317220 1.018287
C17   C     C_2   0.823779 0.330480 0.821691 0.931189
O9    O     O_2   0.862880 0.339573 0.967113 -0.624499
O10   O     O_R   0.736098 0.239743 0.778485 -0.797377
H5    H     H_    0.710723 0.190656 0.878687 0.346206
C18   C     C_2   0.176228 0.669429 0.178279 0.931230
O11   O     O_2   0.137185 0.660191 0.032841 -0.624511
O12   O     O_R   0.263860 0.760265 0.221480 -0.797376
H6    H     H_    0.289259 0.809286 0.121259 0.346208

loop_
_geom_bond_atom_site_label_1
_geom_bond_atom_site_label_2
_ccdc_geom_bond_type
C12   H1    S    
O2    Zn2   S    
C11   H2    S    
C18   O11   D    
C1    C15   S    
O7    Zn2   S    
C2    C16   S    
O10   H5    S    
C3    C6    S    
O3    Zn2   S    
C3    O5    A    
C17   O9    D    
C5    C10   A    
C18   O12   S    
C13   C14   A    
C1    O3    A    
C11   C13   A    
C8    H4    S    
C6    C9    A    
C9    C18   S    
C4    O6    A    
C12   C14   A    
C1    O1    A    
C10   C17   S    
C7    H3    S    
C6    C11   A    
C2    O2    A    
O8    Zn1   S    
N1    Zn2   S    
C4    O8    A    
N2    Zn1   S    
O5    Zn1   S    
C15   C16   T    
C8    C13   A    
C7    C9    A    
O6    Zn2   S    
C5    C12   A    
C2    O4    A    
O12   H6    S    
C3    O7    A    
C17   O10   S    
N1    N2    T    
O4    Zn1   S    
C8    C10   A    
C7    C14   A    
C4    C5    S    
O1    Zn1   S    
