data_mof_unit_29920.cif
_audit_creation_date              2012-12-11T14:21:04-0500
_audit_creation_method            fapswitch 2.2
_symmetry_space_group_name_H-M    P1
_symmetry_Int_Tables_number       1
_space_group_crystal_system       triclinic
_cell_length_a                    11.542515
_cell_length_b                    11.690276
_cell_length_c                    19.542019
_cell_angle_alpha                 90.867891
_cell_angle_beta                  90.018366
_cell_angle_gamma                 60.404657
_cell_volume                      2292.54143918

loop_
_atom_site_label
_atom_site_type_symbol
_atom_type_description
_atom_site_fract_x
_atom_site_fract_y
_atom_site_fract_z
_atom_type_partial_charge
C1    C     C_R   0.640332 0.116557 0.599209 0.546099
C2    C     C_1   0.653121 0.148990 0.668602 0.003729
C3    C     C_R   0.688802 0.600762 0.204110 -0.005100
C4    C     C_R   0.612081 0.746801 0.598668 0.556450
C5    C     C_R   0.569697 0.629009 0.237790 0.022519
C6    C     C_R   0.522435 0.722576 0.290018 0.021977
C7    C     C_R   0.737854 0.711697 0.294796 -0.141651
C8    C     C_R   0.773596 0.641162 0.233447 -0.142366
C9    C     C_R   0.490893 0.574235 0.217045 -0.095238
C10   C     C_R   0.361071 0.626918 0.238588 -0.144460
C11   C     C_R   0.313072 0.722108 0.289578 -0.143785
C12   C     C_1   0.640848 0.704844 0.667982 0.001702
C13   C     C_R   0.388946 0.776378 0.310783 -0.094746
C14   C     C_R   0.612571 0.751187 0.323952 -0.005446
C15   C     C_R   0.131303 0.202046 0.198130 0.003921
C16   C     C_R   0.241722 0.144923 0.598100 0.544997
C17   C     C_R   0.135013 0.299594 0.240534 0.017665
C18   C     C_R   0.117288 0.297933 0.311580 0.033829
C19   C     C_R   0.144294 0.082347 0.302527 -0.152683
C20   C     C_R   0.135354 0.090998 0.230702 -0.004144
C21   C     C_R   0.153226 0.401167 0.215153 -0.102511
C22   C     C_R   0.121714 0.510726 0.255553 -0.163439
C23   C     C_1   0.126203 0.199469 0.859308 0.003782
C24   C     C_R   0.079687 0.519361 0.323106 -0.138050
C25   C     C_R   0.077499 0.412914 0.351271 -0.076804
C26   C     C_R   0.151649 0.178483 0.342104 -0.026318
C27   C     C_R   0.652865 0.172907 0.185725 -0.026882
C28   C     C_R   0.644071 0.111366 0.401042 0.525876
C29   C     C_R   0.737035 0.052362 0.215542 0.033969
C30   C     C_R   0.757901 0.049066 0.286515 0.017235
C31   C     C_R   0.551251 0.259021 0.297586 -0.003069
C32   C     C_R   0.550544 0.268958 0.225828 -0.152741
C33   C     C_R   0.811081 0.938213 0.175097 -0.075121
C34   C     C_1   0.171450 0.170673 0.727642 -0.030716
C35   C     C_R   0.921211 0.831645 0.202161 -0.136423
C36   C     C_R   0.956292 0.838915 0.269527 -0.164646
C37   C     C_R   0.878118 0.946697 0.311074 -0.104936
C38   C     C_R   0.658220 0.146697 0.329522 0.003809
C39   C     C_R   0.080876 0.231915 0.928626 0.546028
C40   C     C_R   0.584534 0.797357 0.394642 0.550666
C41   C     C_R   0.684316 0.603597 0.929440 0.556356
C42   C     C_R   0.708783 0.207022 0.930185 0.544767
C43   C     C_R   0.081083 0.237119 0.126682 0.525910
C44   C     C_R   0.708181 0.553549 0.133546 0.550174
C45   C     C_1   0.149883 0.182852 0.798909 -0.030856
C46   C     C_R   0.702450 0.208129 0.123827 0.526980
C47   C     C_R   0.235445 0.143642 0.404384 0.527007
C48   C     C_1   0.671028 0.645479 0.860111 0.001687
C49   C     C_1   0.654643 0.684118 0.728388 -0.030991
C50   C     C_1   0.663822 0.666174 0.799698 -0.030986
C51   C     C_3   0.439297 0.373069 0.337095 -0.249997
C52   C     C_3   0.490614 0.445593 0.382930 -0.395754
C53   C     C_3   0.136008 0.977153 0.191770 -0.250394
C54   C     C_3   0.259087 0.903541 0.145517 -0.395516
C55   C     C_1   0.195511 0.161038 0.667283 0.004380
C56   C     C_1   0.679071 0.191061 0.860847 0.004461
C57   C     C_1   0.658859 0.166621 0.729037 -0.030826
C58   C     C_1   0.666113 0.180438 0.800385 -0.030597
Cr1   Cr    Cr6+3 0.404720 0.198220 0.499960 1.003367
Cr2   Cr    Cr6+3 0.698290 0.897110 0.500380 1.016878
Cr3   Cr    Cr6+3 0.396970 0.904720 0.499610 1.007612
Cr4   Cr    Cr6+3 0.926180 0.151990 0.028120 1.003565
Cr5   Cr    Cr6+3 0.921330 0.451820 0.027470 1.017021
Cr6   Cr    Cr6+3 0.626260 0.446870 0.028710 1.007373
H1    H     H_    0.807790 0.734395 0.319676 0.157904
H2    H     H_    0.527801 0.493156 0.182107 0.163180
H3    H     H_    0.866356 0.618714 0.208837 0.157665
H4    H     H_    0.301908 0.590026 0.215815 0.093696
H5    H     H_    0.217588 0.757380 0.312831 0.093377
H6    H     H_    0.344180 0.857412 0.345792 0.162270
H7    H     H_    0.144671 0.001086 0.328054 0.104791
H8    H     H_    0.193466 0.397104 0.164701 0.139060
H9    H     H_    0.551906 0.475877 0.352670 0.174499
H10   H     H_    0.404908 0.534765 0.405805 0.144858
H11   H     H_    0.552607 0.383054 0.425112 0.163110
H12   H     H_    0.128158 0.588566 0.232516 0.096373
H13   H     H_    0.366299 0.443736 0.301886 0.138668
H14   H     H_    0.376381 0.343715 0.365859 0.207851
H15   H     H_    0.258248 0.965220 0.102841 0.163329
H16   H     H_    0.351250 0.873316 0.175275 0.174795
H17   H     H_    0.261747 0.814295 0.123295 0.144040
H18   H     H_    0.133873 0.907027 0.227434 0.138488
H19   H     H_    0.043127 0.007173 0.163384 0.207996
H20   H     H_    0.054287 0.604847 0.355014 0.106399
H21   H     H_    0.049881 0.418195 0.404703 0.131927
H22   H     H_    0.787575 0.934347 0.121709 0.131372
H23   H     H_    0.469871 0.351157 0.200758 0.104647
H24   H     H_    0.981402 0.747306 0.169539 0.106478
H25   H     H_    0.042671 0.761548 0.291239 0.096535
H26   H     H_    0.915249 0.949413 0.361472 0.139061
O1    O     O_R   0.267740 0.231960 0.575440 -0.505351
O2    O     O_R   0.596130 0.579390 0.952730 -0.501544
O3    O     O_R   0.639060 0.321160 0.958670 -0.494488
O4    O     O_R   0.527280 0.186640 0.570530 -0.492405
O5    O     O_R   0.821240 0.124200 0.104370 -0.530231
O6    O     O_R   0.036890 0.167040 0.097840 -0.510070
O7    O     O_R   0.056180 0.349610 0.102880 -0.535115
O8    O     O_R   0.797660 0.564870 0.097950 -0.501784
O9    O     O_R   0.595880 0.584250 0.104270 -0.527842
O10   O     O_R   0.638830 0.325670 0.099150 -0.534843
O11   O     O_3   0.824590 0.350230 0.028100 -0.268832
O12   O     O_R   0.685970 0.784660 0.430010 -0.502306
O13   O     O_R   0.728090 0.003450 0.576380 -0.505355
O14   O     O_R   0.682970 0.789190 0.570490 -0.489725
O15   O     O_R   0.499290 0.771880 0.575530 -0.501477
O16   O     O_R   0.285330 0.030870 0.569730 -0.494418
O17   O     O_R   0.270980 0.227080 0.423890 -0.531019
O18   O     O_R   0.530280 0.182120 0.430050 -0.510161
O19   O     O_R   0.731330 0.998570 0.424830 -0.535367
O20   O     O_R   0.502530 0.767000 0.423990 -0.527764
O21   O     O_R   0.288330 0.026350 0.429250 -0.534339
O22   O     O_3   0.499990 0.000020 0.499980 -0.269209
O23   O     O_R   0.821500 0.119340 0.952830 -0.505633
O24   O     O_R   0.037130 0.162530 0.957360 -0.492452
O25   O     O_R   0.056440 0.344740 0.951340 -0.505523
O26   O     O_R   0.797900 0.560360 0.957470 -0.489714

loop_
_geom_bond_atom_site_label_1
_geom_bond_atom_site_label_2
_ccdc_geom_bond_type
C36   H25   S    
C23   C45   T    
Cr4   O6    S    
C27   C29   A    
C42   O3    A    
C19   H7    S    
C19   C20   A    
C18   C26   A    
C22   H12   S    
Cr5   O11   S    
C52   H11   S    
C12   C49   T    
C2    C57   T    
C7    C8    A    
C53   C54   S    
C37   H26   S    
C36   C37   A    
Cr6   O3    S    
Cr4   O24   S    
Cr5   O8    S    
C52   H10   S    
C5    C6    A    
C44   O9    A    
C47   O21   A    
C7    H1    S    
C13   H6    S    
C29   C33   A    
C30   C38   A    
C17   C18   A    
C1    C2    S    
C19   C26   A    
C9    H2    S    
Cr2   O19   S    
C42   C56   S    
C44   O8    A    
C7    C14   A    
C46   O5    A    
C35   C36   A    
C1    O4    A    
Cr1   O4    S    
C4    C12   S    
Cr2   O13   S    
Cr3   O15   S    
C9    C10   A    
C1    O13   A    
C16   O16   A    
Cr4   O11   S    
Cr5   O25   S    
C48   C50   T    
C34   C55   T    
C21   C22   A    
C15   C20   A    
C18   C25   A    
Cr2   O12   S    
Cr3   O20   S    
C43   O6    A    
C54   H16   S    
Cr6   O9    S    
Cr6   O11   S    
C3    C44   S    
C21   H8    S    
C51   C52   S    
C24   C25   A    
Cr4   O23   S    
C3    C8    A    
C40   O20   A    
C32   H23   S    
C40   O12   A    
Cr1   O17   S    
C30   C37   A    
C53   H18   S    
C33   H22   S    
C51   H13   S    
C5    C9    A    
C29   C30   A    
Cr2   O22   S    
C6    C14   A    
C35   H24   S    
C42   O23   A    
C31   C32   A    
C28   C38   S    
C39   O24   A    
C25   H21   S    
Cr1   O22   S    
C34   C45   S    
Cr1   O1    S    
Cr3   O16   S    
C26   C47   S    
C8    H3    S    
Cr5   O26   S    
C27   C46   S    
C52   H9    S    
C39   O25   A    
C22   C24   A    
Cr6   O2    S    
C41   O26   A    
Cr3   O21   S    
C54   H15   S    
C15   C17   A    
C46   O10   A    
C27   C32   A    
C43   O7    A    
C31   C51   S    
C20   C53   S    
C3    C5    A    
C11   H5    S    
C10   H4    S    
C28   O19   A    
C4    O15   A    
C47   O17   A    
Cr1   O18   S    
C31   C38   A    
C53   H19   S    
C24   H20   S    
C51   H14   S    
C15   C43   S    
Cr5   O7    S    
Cr2   O14   S    
C6    C13   A    
C11   C13   A    
C57   C58   S    
C28   O18   A    
C23   C39   S    
C4    O14   A    
C33   C35   A    
C41   C48   S    
C56   C58   T    
C17   C21   A    
C16   C55   S    
C10   C11   A    
C14   C40   S    
Cr6   O10   S    
C41   O2    A    
C16   O1    A    
C49   C50   S    
Cr4   O5    S    
Cr3   O22   S    
C54   H17   S    
