data_mof_unit_25521.cif
_audit_creation_date              2012-12-10T20:42:41-0500
_audit_creation_method            fapswitch 2.2
_symmetry_space_group_name_H-M    P1
_symmetry_Int_Tables_number       1
_space_group_crystal_system       triclinic
_cell_length_a                    8.911381
_cell_length_b                    10.676926
_cell_length_c                    9.873012
_cell_angle_alpha                 89.801975
_cell_angle_beta                  90.004019
_cell_angle_gamma                 90.106348
_cell_volume                      939.371904338

loop_
_atom_site_label
_atom_site_type_symbol
_atom_type_description
_atom_site_fract_x
_atom_site_fract_y
_atom_site_fract_z
_atom_type_partial_charge
C1    C     C_R   0.506539 0.259937 0.500174 0.872668
C2    C     C_R   0.421418 0.411249 0.929194 0.208832
C3    C     C_3   0.256564 0.388456 0.923497 -0.499797
C4    C     C_R   0.218723 0.499863 0.499984 0.939669
C5    C     C_3   0.256905 0.387900 0.077357 -0.503392
C6    C     C_R   0.504633 0.740125 0.499669 0.877283
C7    C     C_R   0.781295 0.500022 0.500024 0.932327
C8    C     C_1   0.065408 0.499837 0.500002 -0.215096
C9    C     C_1   0.934620 0.499900 0.500025 -0.202019
C10   C     C_R   0.556454 0.063293 0.620312 0.136636
C11   C     C_R   0.534820 0.128822 0.499395 -0.134386
C12   C     C_R   0.542815 0.935932 0.374942 -0.227762
C13   C     C_R   0.544516 0.065311 0.375383 -0.218239
C14   C     C_3   0.578296 0.121167 0.866500 -0.862545
C15   C     C_R   0.530598 0.871433 0.498429 -0.099405
C16   C     C_R   0.551590 0.935361 0.619553 0.077705
C17   C     C_3   0.468928 0.927796 0.751069 -0.477616
C18   C     C_3   0.477044 0.070303 0.753930 -0.024069
C19   C     C_R   0.421893 0.410820 0.071523 0.215549
C20   C     C_R   0.587723 0.580885 0.071648 -0.128582
C21   C     C_R   0.587852 0.580801 0.927697 -0.131820
H1    H     H_    0.541007 0.114289 0.279137 0.172611
H2    H     H_    0.656502 0.647713 0.873184 0.144859
H3    H     H_    0.193806 0.468661 0.879250 0.223641
H4    H     H_    0.684796 0.067496 0.873622 0.241132
H5    H     H_    0.606850 0.220476 0.845813 0.257438
H6    H     H_    0.518712 0.115059 0.965057 0.231318
H7    H     H_    0.229266 0.295626 0.879191 0.196253
H8    H     H_    0.194140 0.467724 0.121845 0.224608
H9    H     H_    0.229812 0.294723 0.121697 0.199902
H10   H     H_    0.539027 0.887875 0.278530 0.170198
H11   H     H_    0.352621 0.891627 0.738795 0.183257
H12   H     H_    0.535674 0.879707 0.830909 0.206602
H13   H     H_    0.365623 0.116744 0.747473 0.163022
H14   H     H_    0.656175 0.647945 0.125668 0.144323
N1    N     N_R   0.499010 0.499140 0.142800 -0.105806
N2    N     N_R   0.499010 0.499180 0.857150 -0.107484
O1    O     O_R   0.500020 0.316790 0.614690 -0.622154
O2    O     O_R   0.500000 0.316760 0.385350 -0.621819
O3    O     O_R   0.285350 0.500020 0.614650 -0.617752
O4    O     O_R   0.285340 0.499980 0.385310 -0.615270
O5    O     O_R   0.500000 0.683240 0.614650 -0.619584
O6    O     O_R   0.499980 0.683210 0.385310 -0.627941
O7    O     O_R   0.714660 0.500020 0.614690 -0.618344
O8    O     O_R   0.714650 0.499980 0.385350 -0.616439
Zn1   Zn    Zn3+2 0.500010 0.500020 0.653130 0.936450
Zn2   Zn    Zn3+2 0.499990 0.499980 0.346870 0.941038

loop_
_geom_bond_atom_site_label_1
_geom_bond_atom_site_label_2
_ccdc_geom_bond_type
C5    C19   S    
C14   H6    S    
C11   C13   A    
C14   C18   S    
N2    Zn1   S    
C12   C15   A    
C4    C8    S    
C10   C11   A    
C20   C21   A    
O8    Zn2   S    
C2    C3    S    
O4    Zn2   S    
C12   H10   S    
C10   C16   A    
C7    O7    A    
C14   H5    S    
O3    Zn1   S    
C18   H13   S    
C2    N2    A    
C3    H3    S    
C17   H12   S    
C1    O1    A    
C10   C18   S    
C7    O8    A    
C3    H7    S    
O7    Zn1   S    
C13   H1    S    
C17   C18   S    
C5    H8    S    
C19   N1    A    
C21   H2    S    
C14   H4    S    
C6    O5    A    
O1    Zn1   S    
C4    O4    A    
C1    O2    A    
C15   C16   A    
C20   N1    A    
C21   N2    A    
C12   C13   A    
N1    Zn2   S    
O2    Zn2   S    
C5    H9    S    
O5    Zn1   S    
C7    C9    S    
C17   H11   S    
C6    O6    A    
C16   C17   S    
C6    C15   S    
C2    C19   A    
C20   H14   S    
O6    Zn2   S    
C4    O3    A    
C8    C9    T    
C3    C5    S    
C1    C11   S    
