data_mof_unit_23587.cif
_audit_creation_date              2012-12-11T14:48:10-0500
_audit_creation_method            fapswitch 2.2
_symmetry_space_group_name_H-M    P1
_symmetry_Int_Tables_number       1
_space_group_crystal_system       triclinic
_cell_length_a                    11.545281
_cell_length_b                    11.567791
_cell_length_c                    19.597315
_cell_angle_alpha                 90.736244
_cell_angle_beta                  90.184034
_cell_angle_gamma                 60.000206
_cell_volume                      2266.43987555

loop_
_atom_site_label
_atom_site_type_symbol
_atom_type_description
_atom_site_fract_x
_atom_site_fract_y
_atom_site_fract_z
_atom_type_partial_charge
C1    C     C_R   0.640342 0.117185 0.599344 0.535043
C2    C     C_1   0.652868 0.149550 0.668724 0.007585
C3    C     C_R   0.525091 0.739733 0.288062 0.065964
C4    C     C_R   0.612275 0.746604 0.598774 0.538679
C5    C     C_R   0.542810 0.733220 0.218803 -0.184113
C6    C     C_R   0.670118 0.671798 0.191563 -0.034194
C7    C     C_R   0.783960 0.627407 0.234458 0.264967
C8    C     C_R   0.768422 0.629260 0.304679 0.257091
C9    C     C_R   0.638233 0.692486 0.331999 0.039067
C10   C     C_R   0.268252 0.204130 0.285302 0.210350
C11   C     C_R   0.226198 0.231109 0.217477 0.199468
C12   C     C_1   0.641119 0.704686 0.668113 0.006968
C13   C     C_R   0.133144 0.197307 0.193923 -0.002642
C14   C     C_R   0.077709 0.141054 0.238279 0.201192
C15   C     C_R   0.106505 0.129836 0.307299 0.212740
C16   C     C_R   0.241530 0.145203 0.598306 0.535774
C17   C     C_R   0.203752 0.159384 0.330651 -0.016001
C18   C     C_R   0.696097 0.042656 0.283213 0.114703
C19   C     C_R   0.695226 0.071135 0.214565 0.213665
C20   C     C_R   0.672433 0.197493 0.196269 -0.015832
C21   C     C_R   0.642670 0.297157 0.247219 0.112146
C22   C     C_R   0.639028 0.269726 0.315826 0.273349
C23   C     C_1   0.126112 0.199012 0.859147 0.006931
C24   C     C_R   0.666601 0.141382 0.333870 0.027492
C25   C     C_R   0.081199 0.231548 0.928445 0.545437
C26   C     C_R   0.684056 0.603954 0.929309 0.544595
C27   C     C_R   0.708516 0.206967 0.930021 0.545290
C28   C     C_R   0.645816 0.111522 0.402859 0.564573
C29   C     C_R   0.078579 0.237818 0.126187 0.622988
C30   C     C_R   0.683535 0.614555 0.124408 0.546218
C31   C     C_R   0.709357 0.214630 0.127922 0.560309
C32   C     C_R   0.614893 0.739521 0.402091 0.556849
C33   C     C_R   0.247685 0.139321 0.400752 0.566993
C34   C     C_1   0.171679 0.170608 0.727703 -0.029058
C35   C     C_1   0.670444 0.645859 0.859977 0.005752
C36   C     C_1   0.654642 0.684124 0.728455 -0.029259
C37   C     C_1   0.663403 0.666413 0.799648 -0.029616
C38   C     C_1   0.149827 0.182564 0.798862 -0.029455
C39   C     C_1   0.195759 0.161155 0.667468 0.007198
C40   C     C_1   0.678865 0.191370 0.860672 0.006967
C41   C     C_1   0.658581 0.167118 0.729059 -0.029097
C42   C     C_1   0.665903 0.180880 0.800298 -0.029214
Cr1   Cr    Cr6+3 0.404720 0.198220 0.499960 1.088079
Cr2   Cr    Cr6+3 0.698290 0.897110 0.500380 1.074444
Cr3   Cr    Cr6+3 0.396970 0.904720 0.499610 1.073152
Cr4   Cr    Cr6+3 0.926180 0.152240 0.028110 1.046474
Cr5   Cr    Cr6+3 0.921340 0.452070 0.027460 1.071666
Cr6   Cr    Cr6+3 0.626260 0.447120 0.028700 1.033818
H1    H     H_    0.456074 0.766855 0.186051 0.143273
H2    H     H_    0.428580 0.215093 0.269338 0.314903
H3    H     H_    0.289141 0.354981 0.199443 0.346223
H4    H     H_    0.037819 0.024536 0.187701 0.340494
H5    H     H_    0.048104 0.108718 0.397467 0.322927
H6    H     H_    0.642938 0.902990 0.276818 0.234163
H7    H     H_    0.810707 0.842816 0.282900 0.291554
H8    H     H_    0.333444 0.889971 0.292035 0.217386
H9    H     H_    0.352235 0.735773 0.294798 0.257421
H10   H     H_    0.679550 0.014082 0.122543 0.334269
H11   H     H_    0.540209 0.474523 0.200328 0.255690
H12   H     H_    0.710182 0.410995 0.205905 0.253341
H13   H     H_    0.634605 0.332190 0.409571 0.318283
H14   H     H_    0.906831 0.638281 0.172779 0.346061
H15   H     H_    0.859782 0.554860 0.390180 0.321409
N1    N     N_3   0.390588 0.795325 0.312876 -0.530532
N2    N     N_3   0.624529 0.425176 0.231256 -0.543130
N3    N     N_3   0.716772 0.914755 0.301405 -0.544917
O1    O     O_R   0.267740 0.231990 0.575440 -0.507973
O2    O     O_R   0.596140 0.579600 0.952720 -0.502883
O3    O     O_R   0.639070 0.321380 0.958660 -0.490724
O4    O     O_R   0.527280 0.186680 0.570530 -0.502276
O5    O     O_R   0.821240 0.124490 0.104360 -0.470309
O6    O     O_R   0.036900 0.167320 0.097830 -0.517312
O7    O     O_R   0.056190 0.349890 0.102870 -0.430405
O8    O     O_R   0.797670 0.565150 0.097930 -0.489489
O9    O     O_R   0.595880 0.584540 0.104260 -0.534266
O10   O     O_R   0.638830 0.325960 0.099140 -0.518629
O11   O     O_3   0.824590 0.350480 0.028090 -0.271932
O12   O     O_R   0.685970 0.784630 0.430010 -0.484517
O13   O     O_R   0.728090 0.003480 0.576380 -0.506767
O14   O     O_R   0.682970 0.789220 0.570490 -0.499455
O15   O     O_R   0.499290 0.771920 0.575530 -0.504215
O16   O     O_R   0.285330 0.030900 0.569730 -0.499868
O17   O     O_R   0.270980 0.227040 0.423900 -0.437760
O18   O     O_R   0.530280 0.182090 0.430050 -0.463117
O19   O     O_R   0.731330 0.998530 0.424830 -0.467791
O20   O     O_3   0.717461 0.972510 0.167031 -0.707355
O21   O     O_3   0.611484 0.370018 0.363251 -0.643606
O22   O     O_3   0.911871 0.577961 0.209595 -0.613184
O23   O     O_R   0.502530 0.766960 0.423990 -0.454124
O24   O     O_3   0.881909 0.575152 0.344712 -0.626770
O25   O     O_3   0.373621 0.218162 0.308555 -0.663909
O26   O     O_3   0.274847 0.289239 0.173324 -0.684546
O27   O     O_3   0.986335 0.106039 0.216264 -0.626826
O28   O     O_3   0.039023 0.087856 0.349330 -0.634084
O29   O     O_R   0.288330 0.026310 0.429250 -0.497287
O30   O     O_3   0.499990 0.000020 0.499980 -0.276254
O31   O     O_R   0.821500 0.119550 0.952820 -0.506367
O32   O     O_R   0.037130 0.162750 0.957360 -0.499118
O33   O     O_R   0.056440 0.344950 0.951330 -0.503428
O34   O     O_R   0.797900 0.560570 0.957460 -0.497773

loop_
_geom_bond_atom_site_label_1
_geom_bond_atom_site_label_2
_ccdc_geom_bond_type
C28   O18   A    
Cr1   O17   S    
C41   C42   S    
Cr6   O10   S    
Cr3   O16   S    
Cr6   O3    S    
C19   O20   S    
C15   O28   S    
C7    C8    A    
C3    N1    S    
C18   C24   A    
C13   C29   S    
C36   C37   S    
C35   C37   T    
C4    O14   A    
C5    C6    A    
C30   O8    A    
C29   O7    A    
C2    C41   T    
C33   O29   A    
Cr5   O33   S    
C1    C2    S    
H13   O21   S    
C9    C32   S    
C11   O26   S    
C25   O33   A    
C4    O15   A    
C7    O22   S    
C8    C9    A    
H8    N1    S    
C12   C36   T    
Cr3   O23   S    
C14   O27   S    
Cr4   O6    S    
C27   O3    A    
C29   O6    A    
C40   C42   T    
Cr4   O32   S    
C21   C22   A    
Cr1   O18   S    
Cr6   O9    S    
C5    H1    S    
C17   C33   S    
H10   O20   S    
C34   C39   T    
Cr2   O14   S    
Cr5   O7    S    
C18   C19   A    
H14   O22   S    
Cr5   O34   S    
Cr6   O11   S    
Cr2   O30   S    
H3    O26   S    
C26   C35   S    
C32   O23   A    
C27   C40   S    
C16   O16   A    
Cr1   O30   S    
H4    O27   S    
C16   O1    A    
C22   O21   S    
Cr6   O2    S    
C3    C9    A    
C33   O17   A    
Cr4   O5    S    
C6    C30   S    
Cr4   O31   S    
H12   N2    S    
Cr1   O4    S    
C1    O13   A    
C22   C24   A    
C4    C12   S    
Cr5   O11   S    
Cr2   O19   S    
Cr3   O29   S    
H7    N3    S    
H9    N1    S    
C15   C17   A    
C27   O31   A    
C21   N2    S    
H5    O28   S    
C34   C38   S    
Cr2   O13   S    
Cr3   O15   S    
C24   C28   S    
Cr5   O8    S    
C3    C5    A    
C10   O25   S    
Cr4   O11   S    
C6    C7    A    
H6    N3    S    
C18   N3    S    
C23   C38   T    
C1    O4    A    
C26   O2    A    
C19   C20   A    
Cr2   O12   S    
H11   N2    S    
C30   O9    A    
C11   C13   A    
C31   O10   A    
H15   O24   S    
C31   O5    A    
C23   C25   S    
C10   C11   A    
C16   C39   S    
C32   O12   A    
H2    O25   S    
C8    O24   S    
C20   C21   A    
Cr1   O1    S    
C25   O32   A    
C28   O19   A    
C14   C15   A    
C10   C17   A    
C13   C14   A    
Cr3   O30   S    
C26   O34   A    
C20   C31   S    
