data_mof_unit_24979.cif
_audit_creation_date              2012-12-11T17:43:41-0500
_audit_creation_method            fapswitch 2.2
_symmetry_space_group_name_H-M    P1
_symmetry_Int_Tables_number       1
_space_group_crystal_system       triclinic
_cell_length_a                    15.039959
_cell_length_b                    14.963753
_cell_length_c                    16.918011
_cell_angle_alpha                 108.738329
_cell_angle_beta                  106.168006
_cell_angle_gamma                 109.110559
_cell_volume                      3077.94756254

loop_
_atom_site_label
_atom_site_type_symbol
_atom_type_description
_atom_site_fract_x
_atom_site_fract_y
_atom_site_fract_z
_atom_type_partial_charge
C1    C     C_R   0.091545 0.277599 0.022557 -0.117361
C2    C     C_R   0.103225 0.072691 0.952733 -0.227471
C3    C     C_R   0.010263 0.888595 0.916962 0.053746
C4    C     C_R   0.008249 0.075680 0.921284 0.054187
C5    C     C_R   0.105399 0.978112 0.945938 0.029881
C6    C     C_R   0.916115 0.978255 0.863944 0.031355
C7    C     C_R   0.835063 0.016441 0.736096 -0.139873
C8    C     C_R   0.295826 0.050428 0.044906 -0.189161
C9    C     C_R   0.647954 0.934586 0.649675 -0.091754
C10   C     C_R   0.395508 0.965309 0.994143 -0.090833
C11   C     C_R   0.499721 0.709490 0.356385 -0.115913
C12   C     C_R   0.916156 0.711696 0.919072 -0.137357
C13   C     C_R   0.508282 0.410501 0.727939 -0.110890
C14   C     C_R   0.506905 0.691456 0.272544 -0.131003
C15   C     C_R   0.519612 0.435669 0.818328 -0.094468
C16   C     C_R   0.936600 0.449663 0.735167 -0.139430
C17   C     C_R   0.062914 0.480710 0.253698 -0.153077
C18   C     C_R   0.531116 0.610487 0.230629 0.109990
C19   C     C_R   0.551002 0.540608 0.880314 0.113356
C20   C     C_R   0.549018 0.548848 0.274908 -0.165310
C21   C     C_R   0.569933 0.619621 0.850473 -0.160080
C22   C     C_R   0.541987 0.567386 0.358908 -0.101578
C23   C     C_R   0.029183 0.463141 0.726128 0.109123
C24   C     C_R   0.560233 0.594292 0.760437 -0.093119
C25   C     C_R   0.517321 0.647558 0.399572 -0.097869
C26   C     C_R   0.529307 0.489713 0.699155 -0.088526
C27   C     C_R   0.621487 0.577278 0.128882 -0.232079
C28   C     C_R   0.477690 0.583715 0.988250 -0.217931
C29   C     C_R   0.629032 0.561750 0.045215 0.067948
C30   C     C_R   0.463247 0.587987 0.066960 0.047475
C31   C     C_R   0.557015 0.566766 0.974581 0.005050
C32   C     C_R   0.537977 0.591059 0.141092 0.025152
C33   C     C_R   0.747947 0.000228 0.664813 -0.090506
C34   C     C_R   0.970876 0.420966 0.255524 0.116646
C35   C     C_R   0.390034 0.045502 0.060345 -0.096987
C36   C     C_R   0.961297 0.379763 0.322791 -0.083180
C37   C     C_R   0.037897 0.416228 0.639152 -0.078003
C38   C     C_R   0.139306 0.429702 0.550370 -0.346135
C39   C     C_R   0.858830 0.308994 0.396486 -0.338410
C40   C     C_R   0.720288 0.214590 0.823256 -0.125008
C41   C     C_R   0.223862 0.797928 0.187571 -0.133314
C42   C     C_R   0.134991 0.444339 0.634533 0.740104
C43   C     C_R   0.863597 0.327570 0.322173 0.732944
C44   C     C_R   0.946387 0.355102 0.556641 -0.301533
C45   C     C_R   0.664473 0.217235 0.744492 0.064612
C46   C     C_R   0.052206 0.401754 0.394548 -0.300257
C47   C     C_R   0.950478 0.346740 0.473824 0.102968
C48   C     C_R   0.047707 0.389438 0.471632 0.104218
C49   C     C_R   0.555963 0.143943 0.677520 0.129572
C50   C     C_R   0.281704 0.899919 0.360491 0.131031
C51   C     C_R   0.389082 0.089880 0.445134 -0.228335
C52   C     C_R   0.406460 0.971632 0.607581 -0.241276
C53   C     C_R   0.319611 0.000023 0.362194 -0.167459
C54   C     C_R   0.498692 0.052479 0.682911 -0.175516
C55   C     C_R   0.298603 0.893112 0.443771 -0.288743
C56   C     C_R   0.240511 0.803729 0.274397 0.054848
C57   C     C_R   0.512633 0.159928 0.601673 -0.311440
C58   C     C_R   0.372222 0.981841 0.526600 0.190965
C59   C     C_R   0.422191 0.079187 0.525810 0.198153
C60   C     C_R   0.634710 0.887028 0.707163 -0.135224
C61   C     C_R   0.306891 0.890088 0.912134 -0.129762
C62   C     C_R   0.721580 0.903244 0.778799 -0.174480
C63   C     C_R   0.212578 0.894805 0.896219 -0.143297
C64   C     C_R   0.300819 0.599686 0.006637 -0.138061
C65   C     C_R   0.737493 0.463732 0.047965 -0.140994
C66   C     C_R   0.822844 0.967479 0.793486 0.110506
C67   C     C_R   0.359982 0.568532 0.057794 0.058194
C68   C     C_R   0.205993 0.974456 0.962949 0.114019
C69   C     C_R   0.726553 0.310565 0.746965 -0.147121
C70   C     C_R   0.218144 0.702255 0.265371 -0.126697
C71   C     C_R   0.296617 0.501677 0.081058 -0.123348
C72   C     C_R   0.753787 0.566206 0.975970 -0.112913
C73   C     C_R   0.110222 0.535477 0.812959 -0.108651
C74   C     C_R   0.890595 0.397101 0.175701 -0.103157
C75   C     C_R   0.917495 0.193007 0.948323 -0.128547
C76   C     C_R   0.087460 0.796712 0.999843 -0.145822
C77   C     C_R   0.006036 0.178448 0.959188 0.053217
C78   C     C_R   0.709791 0.537741 0.030515 0.048569
C79   C     C_R   0.004892 0.803503 0.945263 0.064307
C80   C     C_R   0.917115 0.886544 0.867492 -0.229120
F1    F     F_    0.772299 0.301206 0.254411 -0.746365
F2    F     F_    0.226091 0.491130 0.710643 -0.737349
H1    H     H_    0.172876 0.296581 0.049078 0.093484
H2    H     H_    0.502693 0.373497 0.839698 0.113829
H3    H     H_    0.567071 0.485600 0.243949 0.123216
H4    H     H_    0.592804 0.700672 0.897161 0.110597
H5    H     H_    0.555438 0.519357 0.392402 0.110011
H6    H     H_    0.575779 0.655490 0.737933 0.101682
H7    H     H_    0.680108 0.577750 0.183768 0.136614
H8    H     H_    0.419515 0.580248 0.930767 0.163447
H9    H     H_    0.127845 0.437940 0.395560 0.144563
H10   H     H_    0.870776 0.325219 0.557076 0.145642
H11   H     H_    0.214604 0.458748 0.548727 0.161087
H12   H     H_    0.839054 0.683145 0.867091 0.092953
H13   H     H_    0.783557 0.274547 0.397133 0.160491
H14   H     H_    0.857934 0.399599 0.682432 0.099300
H15   H     H_    0.141139 0.500843 0.297683 0.092549
H16   H     H_    0.757996 0.037591 0.620592 0.114786
H17   H     H_    0.458773 0.103703 0.123809 0.133541
H18   H     H_    0.553575 0.230424 0.596380 0.115250
H19   H     H_    0.264902 0.817385 0.444064 0.121448
H20   H     H_    0.528281 0.039310 0.741866 0.124885
H21   H     H_    0.303568 0.008835 0.299547 0.117477
H22   H     H_    0.424727 0.165276 0.444495 0.125750
H23   H     H_    0.912078 0.065597 0.745450 0.119564
H24   H     H_    0.367594 0.897970 0.609781 0.130510
H25   H     H_    0.580737 0.920688 0.593396 0.115391
H26   H     H_    0.468447 0.961507 0.006368 0.112758
H27   H     H_    0.557065 0.836959 0.695806 0.110478
H28   H     H_    0.311234 0.828041 0.860901 0.122081
H29   H     H_    0.709756 0.865473 0.822467 0.106859
H30   H     H_    0.144482 0.835949 0.832374 0.118827
H31   H     H_    0.690397 0.161662 0.850792 0.092398
H32   H     H_    0.234037 0.861735 0.168997 0.096537
H33   H     H_    0.328080 0.661533 0.986519 0.097118
H34   H     H_    0.292558 0.112325 0.097319 0.114026
H35   H     H_    0.714359 0.423221 0.086889 0.118561
H36   H     H_    0.703505 0.347902 0.705611 0.091611
H37   H     H_    0.223206 0.676623 0.318447 0.095517
H38   H     H_    0.320083 0.469767 0.127564 0.103782
H39   H     H_    0.750834 0.623955 0.951660 0.110261
H40   H     H_    0.192651 0.565697 0.833079 0.176347
H41   H     H_    0.810494 0.338310 0.145154 0.174451
H42   H     H_    0.837121 0.134303 0.908903 0.116633
H43   H     H_    0.169154 0.847126 0.026082 0.118168
H44   H     H_    0.845000 0.813693 0.831192 0.119270
H45   H     H_    0.511932 0.661758 0.464577 0.103643
H46   H     H_    0.176064 0.143899 0.983326 0.124605
H47   H     H_    0.520701 0.469854 0.629138 0.095867
H48   H     H_    0.480709 0.771658 0.387965 0.111502
H49   H     H_    0.481869 0.329369 0.679895 0.120428
H50   H     H_    0.493871 0.740876 0.240480 0.114381
N1    N     N_R   0.055660 0.348550 0.045620 -0.041580
N2    N     N_R   0.185200 0.638170 0.176300 -0.038933
N3    N     N_R   0.201680 0.494570 0.045620 -0.040764
N4    N     N_R   0.798320 0.505430 0.954380 -0.041096
N5    N     N_R   0.068420 0.560530 0.871650 -0.054921
N6    N     N_R   0.931580 0.439470 0.128350 -0.055050
N7    N     N_R   0.948070 0.295860 0.997670 -0.044523
N8    N     N_R   0.051930 0.704140 0.002330 -0.039729
N9    N     N_R   0.944340 0.651450 0.954380 -0.038997
N10   N     N_R   0.960830 0.507850 0.823700 -0.043074
N11   N     N_R   0.039170 0.492150 0.176300 -0.040884
N12   N     N_R   0.811290 0.303410 0.871650 -0.041012
N13   N     N_R   0.188710 0.696590 0.128350 -0.040680
N14   N     N_R   0.205200 0.552990 0.997670 -0.040184
N15   N     N_R   0.794800 0.447010 0.002330 -0.042882
N16   N     N_R   0.814800 0.361830 0.823700 -0.037913
Ni1   Ni    Ni4+2 0.119340 0.493420 0.109960 0.215208
Ni2   Ni    Ni4+2 0.880660 0.506580 0.890040 0.214187
Ni3   Ni    Ni4+2 0.872590 0.372590 0.000000 0.214048
Ni4   Ni    Ni4+2 0.127410 0.627410 0.000000 0.214556

loop_
_geom_bond_atom_site_label_1
_geom_bond_atom_site_label_2
_ccdc_geom_bond_type
N5    N10   A    
C72   H39   S    
C27   C29   A    
C1    C77   A    
C14   C18   A    
C10   H26   S    
C42   F2    S    
C76   C79   A    
C41   H32   S    
N12   N16   A    
C19   C31   S    
C14   H50   S    
C15   C19   A    
C74   N6    A    
C80   H44   S    
C71   H38   S    
C19   C21   A    
N16   Ni2   S    
C38   C42   A    
N12   Ni3   S    
N6    N11   A    
C71   N3    A    
C11   C14   A    
C35   H17   S    
C57   C59   A    
C11   C25   A    
C49   C54   A    
C12   C79   A    
C69   H36   S    
C63   H30   S    
C49   C57   A    
C12   N9    A    
C60   C62   A    
C33   H16   S    
N7    Ni3   S    
C37   C42   A    
C61   C63   A    
C72   C78   A    
C60   H27   S    
C63   C68   A    
C29   C78   S    
C40   H31   S    
C22   C25   A    
N11   Ni1   S    
C7    H23   S    
N5    Ni4   S    
C36   C46   A    
C10   C35   A    
C65   N15   A    
N8    Ni4   S    
C67   C71   A    
C30   C67   S    
C44   H10   S    
C44   C47   A    
C74   H41   S    
C52   H24   S    
C64   H33   S    
C9    C33   A    
C76   H43   S    
C7    C33   A    
C12   H12   S    
C23   C73   A    
C5    C68   S    
C1    N1    A    
C61   H28   S    
C52   C54   A    
N9    Ni2   S    
C76   N8    A    
C40   C45   A    
C46   C48   A    
C16   H14   S    
C50   C53   A    
C62   C66   A    
C45   C69   A    
C75   H42   S    
N4    N15   A    
C64   C67   A    
N1    Ni1   S    
N8    N9    A    
C4    C6    A    
C39   C43   A    
C46   H9    S    
C58   C59   A    
N3    Ni1   S    
N2    Ni1   S    
C50   C56   S    
C51   C53   A    
C8    C35   A    
N15   Ni3   S    
C41   C56   A    
C24   H6    S    
C6    C80   A    
C47   C48   A    
C45   C49   S    
C70   H37   S    
N3    N14   A    
C20   H3    S    
C13   H49   S    
C41   N13   A    
C22   H5    S    
C62   H29   S    
C75   C77   A    
C39   H13   S    
C3    C79   S    
C26   H47   S    
C52   C58   A    
C34   C74   A    
C16   N10   A    
N14   Ni4   S    
C20   C22   A    
C8    C68   A    
C16   C23   A    
C56   C70   A    
C13   C15   A    
C43   F1    S    
C13   C26   A    
C21   C24   A    
C10   C61   A    
C51   C59   A    
C17   C34   A    
C11   H48   S    
C39   C47   A    
N2    N13   A    
C21   H4    S    
C65   C78   A    
C28   H8    S    
C64   N14   A    
C27   C32   A    
C38   C48   A    
C54   H20   S    
C28   C31   A    
C24   C26   A    
C3    C5    A    
N4    Ni2   S    
N1    N7    A    
C15   H2    S    
N6    Ni3   S    
C1    H1    S    
C55   H19   S    
C50   C55   A    
C40   N12   A    
C17   N11   A    
C9    C60   A    
N10   Ni2   S    
C37   C44   A    
C28   C30   A    
C51   H22   S    
C4    C77   S    
C29   C31   A    
C23   C37   S    
C7    C66   A    
C30   C32   A    
C57   H18   S    
C73   N5    A    
C53   H21   S    
C2    C4    A    
C38   H11   S    
C3    C80   A    
C34   C36   S    
C27   H7    S    
C18   C20   A    
C25   H45   S    
N13   Ni4   S    
C72   N4    A    
C8    H34   S    
C2    C5    A    
C6    C66   S    
C18   C32   S    
C73   H40   S    
C55   C58   A    
C70   N2    A    
C69   N16   A    
C65   H35   S    
C9    H25   S    
C36   C43   A    
C75   N7    A    
C17   H15   S    
C2    H46   S    
