data_mof_unit_67483.cif
_audit_creation_date              2013-03-05T15:40:59-0500
_audit_creation_method            fapswitch 2.2
_symmetry_space_group_name_H-M    P1
_symmetry_Int_Tables_number       1
_space_group_crystal_system       triclinic
_cell_length_a                    10.799789
_cell_length_b                    8.916357
_cell_length_c                    7.726053
_cell_angle_alpha                 102.272013
_cell_angle_beta                  94.093496
_cell_angle_gamma                 93.696401
_cell_volume                      722.698748398

loop_
_atom_site_label
_atom_site_type_symbol
_atom_site_description
_atom_site_fract_x
_atom_site_fract_y
_atom_site_fract_z
_atom_type_partial_charge
O1    O     O_R   0.509140 0.286130 0.619770 -0.516413
O2    O     O_R   0.485380 0.256770 0.308360 -0.617001
C1    C     C_R   0.495282 0.201836 0.455066 0.783018
O3    O     O_R   0.329570 0.514650 0.655700 -0.575883
O4    O     O_R   0.305810 0.485300 0.344290 -0.632110
C2    C     C_R   0.261335 0.495511 0.501122 0.752843
Cu1   Cu    Cu3+1 0.514070 0.517380 0.684380 0.994399
Cu2   Cu    Cu3+1 0.485930 0.482620 0.315620 0.987699
O5    O     O_R   0.514620 0.743230 0.691640 -0.625059
O6    O     O_R   0.490860 0.713870 0.380230 -0.518693
O7    O     O_R   0.694190 0.514700 0.655710 -0.566932
O8    O     O_R   0.670430 0.485350 0.344300 -0.569399
C3    C     C_R   0.503406 0.797794 0.544327 0.828020
C4    C     C_R   0.739097 0.496552 0.499104 0.781493
C5    C     C_3   0.080603 0.460713 0.677306 -0.436977
H1    H     H_    0.120725 0.553146 0.792057 0.194221
H2    H     H_    0.114433 0.350360 0.697136 0.138192
C6    C     C_3   0.937311 0.448302 0.669345 0.291912
H3    H     H_    0.907238 0.324050 0.656269 0.104165
H4    H     H_    0.132328 0.739904 0.593132 0.136616
H5    H     H_    0.924006 0.733178 0.626678 0.118287
C7    C     C_3   0.082384 0.651273 0.483510 -0.429720
C8    C     C_3   0.057309 0.373324 0.344862 -0.431034
C9    C     C_3   0.123562 0.494160 0.502854 0.069432
H6    H     H_    0.085987 0.398044 0.218918 0.175504
H7    H     H_    0.086180 0.258817 0.346566 0.188804
C10   C     C_3   0.879149 0.495797 0.502387 0.033515
C11   C     C_3   0.939022 0.658415 0.496465 0.357278
C12   C     C_3   0.914882 0.372592 0.350078 -0.521633
H8    H     H_    0.871297 0.257577 0.353103 0.154240
H9    H     H_    0.872509 0.397321 0.234308 0.234810
H10   H     H_    0.111698 0.670885 0.355125 0.188979
C13   C     C_2   0.482890 0.034239 0.431415 -0.022468
C14   C     C_2   0.517004 0.964724 0.565433 -0.047947
N1    N     N_2   0.464720 0.456420 0.038520 0.103478
N2    N     N_2   0.535280 0.543580 0.961480 -0.010627
O9    O     O_3   0.873124 0.716801 0.361757 -0.641336
C15   C     C_3   0.934859 0.841664 0.305904 0.071928
H11   H     H_    0.863120 0.891470 0.229657 0.139725
H12   H     H_    0.999671 0.797976 0.205002 0.157450
C16   C     C_3   0.996647 0.973762 0.456215 -0.375534
H13   H     H_    0.947488 0.077798 0.455895 0.181610
H14   H     H_    0.986980 0.952473 0.589433 0.215006
C17   C     C_3   0.134037 0.009838 0.433171 -0.928154
H15   H     H_    0.194138 0.922103 0.464156 0.260381
H16   H     H_    0.168983 0.120851 0.522159 0.244495
H17   H     H_    0.145056 0.017926 0.294795 0.236371
N3    N     N_3   0.431217 0.945823 0.261195 -0.567896
H18   H     H_    0.486681 0.974140 0.165699 0.215559
H19   H     H_    0.343026 0.981058 0.235204 0.210948
N4    N     N_3   0.581659 0.051077 0.727390 -0.558767
H20   H     H_    0.665402 0.000690 0.738605 0.215413
H21   H     H_    0.532160 0.033742 0.833581 0.240361
O10   O     O_3   0.432216 0.316092 0.935293 -0.482224
C18   C     C_3   0.313831 0.267936 0.976547 0.176680
H22   H     H_    0.244318 0.342996 0.935799 0.114581
H23   H     H_    0.310116 0.271171 0.118924 0.178423
C19   C     C_3   0.280583 0.100762 0.882093 -0.398833
H24   H     H_    0.300060 0.083951 0.741064 0.240346
H25   H     H_    0.338692 0.024829 0.943353 0.210441
C20   C     C_3   0.144525 0.055145 0.896685 -0.990837
H26   H     H_    0.123266 0.081080 0.037033 0.247508
H27   H     H_    0.122903 0.930244 0.842061 0.269964
H28   H     H_    0.085788 0.122431 0.823641 0.267849
N5    N     N_3   0.592868 0.676116 0.071834 -0.402605
H29   H     H_    0.566816 0.767432 0.016830 0.213346
H30   H     H_    0.688201 0.672123 0.060096 0.221408
O11   O     O_3   0.897906 0.544037 0.820308 -0.619433
C21   C     C_3   0.892873 0.465072 0.956782 0.000254
H31   H     H_    0.872772 0.552980 0.071703 0.197381
H32   H     H_    0.986447 0.428625 0.986623 0.144308
C22   C     C_3   0.789478 0.328634 0.923703 -0.290240
H33   H     H_    0.718818 0.355186 0.020732 0.234490
H34   H     H_    0.736519 0.310066 0.792557 0.266988
C23   C     C_3   0.842970 0.176267 0.940410 -0.985681
H35   H     H_    0.929465 0.192782 0.029554 0.266136
H36   H     H_    0.864464 0.111970 0.808121 0.247108
H37   H     H_    0.775220 0.105284 0.997122 0.260072

loop_
_geom_bond_atom_site_label_1
_geom_bond_atom_site_label_2
_geom_bond_distance
_ccdc_geom_bond_type
C5    C6    1.540226 S    
C18   H22   1.109603 S    
C10   C12   1.520001 S    
Cu1   N2    2.097839 S    
N1    N2    1.313003 D    
Cu1   Cu2   2.791848 S    
Cu1   O7    1.974571 S    
C14   N4    1.429161 S    
O9    C15   1.421204 S    
C7    H10   1.107302 S    
C8    C12   1.541216 S    
C22   C23   1.536613 S    
O4    C2    1.322508 A    
O7    C4    1.317585 A    
C1    C13   1.462543 S    
C19   H25   1.106725 S    
C5    H1    1.114227 S    
C5    H2    1.107949 S    
C6    H3    1.115538 S    
C16   H13   1.098474 S    
C8    H7    1.089028 S    
C21   H32   1.104967 S    
O5    C3    1.330430 A    
O11   C21   1.388991 S    
N5    H30   1.042210 S    
C8    C9    1.542600 S    
C4    C10   1.511399 S    
C17   H17   1.100983 S    
C19   C20   1.517681 S    
N3    H19   1.041284 S    
C7    C11   1.563130 S    
N1    O10   1.343141 S    
C16   H14   1.096415 S    
C21   H31   1.097017 S    
O3    Cu1   1.987061 S    
C17   H16   1.104710 S    
N4    H20   1.041657 S    
C15   C16   1.545234 S    
C22   H34   1.102243 S    
N2    N5    1.382557 S    
C19   H24   1.105117 S    
O1    C1    1.326015 A    
Cu2   N1    2.097839 S    
C20   H28   1.105759 S    
C23   H35   1.102692 S    
C12   H8    1.106032 S    
Cu2   O8    1.987059 S    
C2    C9    1.488221 S    
C20   H27   1.107016 S    
C13   C14   1.356404 D    
C23   H36   1.108658 S    
O3    C2    1.330407 A    
C5    C9    1.537247 S    
H5    C11   1.111266 S    
O8    C4    1.342927 A    
C18   H23   1.097920 S    
C16   C17   1.528823 S    
C7    C9    1.530498 S    
C21   C22   1.563363 S    
C17   H15   1.101569 S    
Cu1   O5    2.002199 S    
O10   C18   1.402195 S    
N3    H18   1.043884 S    
O1    Cu1   2.011960 S    
O2    Cu2   2.002200 S    
C6    C10   1.545526 S    
H4    C7    1.108181 S    
C22   H33   1.108998 S    
O6    C3    1.320903 A    
O4    Cu2   1.974571 S    
O2    C1    1.327227 A    
C3    C14   1.459019 S    
C12   H9    1.047128 S    
C15   H12   1.110576 S    
C15   H11   1.111271 S    
C11   O9    1.425851 S    
C8    H6    1.103055 S    
C20   H26   1.103531 S    
C23   H37   1.109894 S    
Cu2   O6    2.011960 S    
N5    H29   1.040308 S    
C18   C19   1.521344 S    
C10   C11   1.560168 S    
C13   N3    1.435353 S    
N4    H21   1.043382 S    
C6    O11   1.401635 S    
