data_mof_unit_27741.cif
_audit_creation_date              2012-10-26T20:00:34-0400
_audit_creation_method            fapswitch 2.2
_symmetry_space_group_name_H-M    P1
_symmetry_Int_Tables_number       1
_space_group_crystal_system       triclinic
_cell_length_a                    11.658395
_cell_length_b                    13.003782
_cell_length_c                    13.429995
_cell_angle_alpha                 91.997331
_cell_angle_beta                  76.816719
_cell_angle_gamma                 99.862214
_cell_volume                      1953.05868336

loop_
_atom_site_label
_atom_site_type_symbol
_atom_type_description
_atom_site_fract_x
_atom_site_fract_y
_atom_site_fract_z
_atom_type_partial_charge
C1    C     C_R   0.520899 0.700909 0.501484 0.553253
C2    C     C_R   0.396957 0.481949 0.808107 -0.014821
C3    C     C_R   0.467140 0.185719 0.497402 0.000707
C4    C     C_R   0.436138 0.490666 0.695938 0.548785
C5    C     C_R   0.532986 0.814327 0.502298 0.000643
C6    C     C_R   0.652434 0.984792 0.510417 -0.139454
C7    C     C_R   0.641570 0.876690 0.509818 -0.135294
C8    C     C_R   0.435207 0.860772 0.495419 -0.130779
C9    C     C_R   0.445378 0.968794 0.495948 0.048418
C10   C     C_R   0.554836 0.031276 0.503538 0.048067
C11   C     C_R   0.564958 0.139293 0.504197 -0.134250
C12   C     C_R   0.438426 0.465961 0.977173 0.021632
C13   C     C_R   0.358625 0.123370 0.489688 -0.137157
C14   C     C_R   0.347800 0.015277 0.488998 -0.138850
C15   C     C_R   0.952298 0.610135 0.580485 -0.177214
C16   C     C_R   0.479132 0.299101 0.498443 0.543431
C17   C     C_R   0.831743 0.597562 0.575013 0.046664
C18   C     C_R   0.853209 0.449944 0.468132 0.040536
C19   C     C_R   0.974665 0.458916 0.472315 0.009178
C20   C     C_R   0.025063 0.540764 0.528444 0.008323
C21   C     C_R   0.146969 0.550417 0.531503 0.045248
C22   C     C_R   0.166940 0.400230 0.428261 0.060671
C23   C     C_R   0.470019 0.451908 0.869784 -0.015693
C24   C     C_R   0.046553 0.387987 0.422488 -0.172234
C25   C     C_R   0.563032 0.501428 0.304011 0.546860
C26   C     C_R   0.716959 0.412965 0.045867 -0.133579
C27   C     C_R   0.595786 0.485027 0.193358 -0.016437
C28   C     C_R   0.286812 0.510841 0.854863 -0.188460
C29   C     C_R   0.247367 0.507858 0.960314 -0.113904
C30   C     C_R   0.319579 0.481880 0.021950 0.267874
C31   C     C_3   0.231775 0.353792 0.140688 0.017089
C32   C     C_3   0.099061 0.322199 0.140398 -0.270073
C33   C     C_3   0.054713 0.207380 0.168957 -0.488988
C34   C     C_R   0.525480 0.460041 0.034998 0.027743
C35   C     C_R   0.631405 0.420799 0.989129 0.043363
C36   C     C_R   0.650576 0.389755 0.887220 -0.143158
C37   C     C_R   0.571602 0.405491 0.828137 -0.121865
C38   C     C_R   0.513435 0.497343 0.135424 -0.115317
C39   C     C_R   0.698520 0.443733 0.147975 -0.137427
Cu1   Cu    Cu3+1 0.386470 0.492430 0.492410 0.938992
Cu2   Cu    Cu3+1 0.613530 0.507570 0.507590 0.925993
H1    H     H_    0.762686 0.432692 0.191966 0.123149
H2    H     H_    0.009589 0.322866 0.380650 0.078820
H3    H     H_    0.776395 0.651537 0.615147 0.127896
H4    H     H_    0.728655 0.355650 0.852161 0.107199
H5    H     H_    0.814075 0.388301 0.423727 0.110543
H6    H     H_    0.797243 0.381623 0.011633 0.102574
H7    H     H_    0.441169 0.538065 0.169983 0.188634
H8    H     H_    0.229500 0.534001 0.809598 0.133707
H9    H     H_    0.158668 0.523643 0.994644 0.128743
H10   H     H_    0.589955 0.377492 0.750475 0.153432
H11   H     H_    0.649097 0.186965 0.510075 0.114486
H12   H     H_    0.282133 0.158005 0.484231 0.123146
H13   H     H_    0.245477 0.335668 0.216632 0.145468
H14   H     H_    0.286010 0.305080 0.084979 0.122600
H15   H     H_    0.045800 0.371248 0.195615 0.172717
H16   H     H_    0.085002 0.335245 0.063076 0.154756
H17   H     H_    0.104143 0.157016 0.112286 0.152725
H18   H     H_    0.958055 0.187406 0.169491 0.147727
H19   H     H_    0.067345 0.191669 0.246180 0.136905
H20   H     H_    0.736828 0.031895 0.516249 0.100020
H21   H     H_    0.263436 0.968178 0.483081 0.102123
H22   H     H_    0.718073 0.842054 0.515236 0.126922
H23   H     H_    0.351038 0.813106 0.489622 0.118956
H24   H     H_    0.186409 0.612501 0.575260 0.111007
H25   H     H_    0.220972 0.343874 0.391777 0.113148
H26   H     H_    0.988198 0.673611 0.624894 0.083824
N1    N     N_R   0.215880 0.481050 0.481000 -0.225469
N2    N     N_R   0.784100 0.518950 0.519000 -0.231085
O1    O     O_R   0.419710 0.645650 0.494620 -0.510305
O2    O     O_R   0.611450 0.658430 0.507430 -0.507301
O3    O     O_R   0.357340 0.490460 0.641450 -0.502398
O4    O     O_R   0.549080 0.503250 0.654260 -0.507428
O5    O     O_R   0.388550 0.341570 0.492570 -0.513801
O6    O     O_R   0.580290 0.354350 0.505380 -0.521082
O7    O     O_R   0.450920 0.496750 0.345740 -0.495171
O8    O     O_R   0.642660 0.509540 0.358550 -0.497584
O9    O     O_3   0.267871 0.462792 0.124342 -0.588117

loop_
_geom_bond_atom_site_label_1
_geom_bond_atom_site_label_2
_ccdc_geom_bond_type
C17   N2    A    
C33   H17   S    
C16   O6    A    
C19   C20   A    
C4    O3    A    
C12   C23   A    
C1    O2    A    
Cu1   O1    S    
C16   O5    A    
C6    H20   S    
C28   C29   A    
C18   C19   A    
Cu2   O8    S    
C37   H10   S    
C26   C39   A    
C27   C38   A    
C14   H21   S    
C34   C35   A    
C22   H25   S    
C11   H11   S    
C22   N1    A    
C35   C36   A    
C27   C39   A    
C8    C9    A    
C9    C10   A    
C38   H7    S    
C3    C13   A    
Cu2   O2    S    
C21   H24   S    
C18   N2    A    
C33   H18   S    
C13   C14   A    
C32   H16   S    
C18   H5    S    
C39   H1    S    
C13   H12   S    
C29   H9    S    
C15   C20   A    
C5    C7    A    
C23   C37   A    
Cu1   O7    S    
C2    C4    S    
C9    C14   A    
C29   C30   A    
Cu2   O6    S    
C28   H8    S    
C31   C32   S    
C15   H26   S    
C36   H4    S    
C7    H22   S    
C4    O4    A    
C26   H6    S    
C8    H23   S    
Cu1   Cu2   S    
C33   H19   S    
C21   N1    A    
C25   O8    A    
C12   C34   A    
C1    C5    S    
C31   O9    S    
Cu2   N2    S    
C15   C17   A    
C36   C37   A    
Cu1   O3    S    
C12   C30   A    
C34   C38   A    
C6    C10   A    
C5    C8    A    
C6    C7    A    
C25   C27   S    
C1    O1    A    
C25   O7    A    
C32   C33   S    
C19   C24   A    
C17   H3    S    
Cu1   O5    S    
C22   C24   A    
C31   H13   S    
C3    C11   A    
C10   C11   A    
Cu2   O4    S    
C30   O9    S    
C26   C35   A    
C20   C21   A    
Cu1   N1    S    
C2    C23   A    
C24   H2    S    
C2    C28   A    
C31   H14   S    
C32   H15   S    
C3    C16   S    
