data_mof_unit_5037.cif
_audit_creation_date              2012-12-10T17:13:35-0500
_audit_creation_method            fapswitch 2.2
_symmetry_space_group_name_H-M    P1
_symmetry_Int_Tables_number       1
_space_group_crystal_system       triclinic
_cell_length_a                    27.620594
_cell_length_b                    10.755215
_cell_length_c                    10.063514
_cell_angle_alpha                 90.575546
_cell_angle_beta                  90.36015
_cell_angle_gamma                 89.887636
_cell_volume                      2989.30681235

loop_
_atom_site_label
_atom_site_type_symbol
_atom_type_description
_atom_site_fract_x
_atom_site_fract_y
_atom_site_fract_z
_atom_type_partial_charge
C1    C     C_R   0.498549 0.262628 0.498623 0.977890
C2    C     C_R   0.973815 0.377757 0.570890 -0.006234
C3    C     C_R   0.978201 0.564862 0.432155 -0.023111
C4    C     C_R   0.406222 0.500267 0.499519 0.924564
C5    C     C_R   0.950664 0.478642 0.505210 0.069068
C6    C     C_R   0.944789 0.280682 0.623168 -0.064838
C7    C     C_R   0.894759 0.296767 0.630170 -0.159862
C8    C     C_R   0.872286 0.401085 0.575495 -0.035929
C9    C     C_R   0.899961 0.492103 0.510992 -0.043577
C10   C     C_R   0.876834 0.595435 0.451614 -0.077340
C11   C     C_R   0.825636 0.598170 0.450162 0.593305
C12   C     C_R   0.283427 0.382452 0.411664 0.044364
C13   C     C_R   0.821994 0.412218 0.577086 0.538057
C14   C     C_R   0.724231 0.426657 0.415599 -0.064028
C15   C     C_R   0.673197 0.421934 0.415347 -0.139307
C16   C     C_R   0.500082 0.737053 0.500585 0.972658
C17   C     C_R   0.671539 0.584509 0.588718 -0.086375
C18   C     C_R   0.722176 0.587255 0.589846 -0.004176
C19   C     C_R   0.748212 0.509007 0.503728 0.183061
C20   C     C_R   0.025053 0.379393 0.581132 0.060800
C21   C     C_R   0.051480 0.450889 0.490735 0.096224
C22   C     C_R   0.027245 0.535122 0.406525 0.060612
C23   C     C_R   0.253729 0.455068 0.493991 0.213008
C24   C     C_R   0.050459 0.315312 0.680755 -0.197776
C25   C     C_R   0.102300 0.569475 0.288417 -0.086172
C26   C     C_R   0.956254 0.678281 0.391158 -0.086692
C27   C     C_R   0.905479 0.692120 0.398362 -0.093341
C28   C     C_R   0.593878 0.500006 0.500505 0.926699
C29   C     C_R   0.052580 0.584746 0.298456 -0.154628
C30   C     C_2   0.487251 0.928989 0.392285 -0.169985
C31   C     C_2   0.501694 0.868675 0.500712 -0.313663
C32   C     C_2   0.492787 0.061628 0.383214 0.008425
C33   C     C_2   0.491161 0.131185 0.495308 -0.343798
C34   C     C_R   0.102374 0.440851 0.486108 -0.054063
C35   C     C_2   0.537697 0.480197 0.927541 -0.087347
C36   C     C_2   0.537227 0.520490 0.070800 -0.095651
C37   C     C_R   0.178867 0.376974 0.582556 0.542449
C38   C     C_R   0.178115 0.500896 0.386631 0.531279
C39   C     C_R   0.273815 0.546550 0.579047 -0.054296
C40   C     C_R   0.324337 0.565411 0.581839 -0.096877
C41   C     C_R   0.333052 0.401549 0.413213 -0.247947
C42   C     C_1   0.241755 0.624462 0.657332 0.284113
C43   C     C_2   0.986373 0.789147 0.359867 0.888034
C44   C     C_1   0.644961 0.669844 0.674199 0.236592
C45   C     C_R   0.127765 0.371202 0.582991 -0.093937
C46   C     C_1   0.883895 0.810180 0.361235 0.383116
C47   C     C_1   0.748075 0.668935 0.680990 0.245257
C48   C     C_1   0.501449 0.109203 0.251172 0.240034
C49   C     C_1   0.263220 0.288167 0.324748 0.246104
C50   C     C_2   0.579524 0.407794 0.877391 1.003751
C51   C     C_1   0.578741 0.586306 0.122924 0.369842
C52   C     C_1   0.462846 0.426021 0.101527 0.342394
C53   C     C_2   0.123250 0.224102 0.780806 1.020497
C54   C     C_2   0.647327 0.332664 0.326419 0.997277
C55   C     C_2   0.753314 0.342451 0.328823 0.985936
C56   C     C_R   0.100973 0.306833 0.680768 -0.014553
C57   C     C_2   0.963713 0.153962 0.650784 0.896412
C58   C     C_2   0.346104 0.665185 0.666761 0.932842
C59   C     C_R   0.127737 0.503454 0.385723 -0.016458
C60   C     C_R   0.353654 0.491431 0.497605 -0.113813
C61   C     C_R   0.646968 0.501345 0.502146 -0.163176
H1    H     H_    0.355980 0.344348 0.350121 0.165602
H2    H     H_    0.998955 0.933026 0.237820 0.372253
H3    H     H_    0.651731 0.379126 0.880531 0.370426
H4    H     H_    0.165055 0.074047 0.816898 0.362720
H5    H     H_    0.598944 0.193377 0.309751 0.348487
H6    H     H_    0.809620 0.323351 0.203446 0.361682
H7    H     H_    0.010130 0.016731 0.600395 0.381249
H8    H     H_    0.394390 0.805314 0.682691 0.348124
H9    H     H_    0.120855 0.613133 0.206693 0.200454
H10   H     H_    0.034168 0.635435 0.220779 0.163294
H11   H     H_    0.473954 0.879236 0.304724 0.183665
H12   H     H_    0.516976 0.914283 0.587929 0.162482
H13   H     H_    0.481977 0.090768 0.590230 0.160083
H14   H     H_    0.473944 0.557415 0.892238 0.179919
H15   H     H_    0.872906 0.223044 0.671289 0.225006
H16   H     H_    0.031126 0.271539 0.760799 0.163874
N1    N     N_R   0.202307 0.441328 0.485891 -0.359507
N2    N     N_1   0.246968 0.212623 0.255083 -0.131711
N3    N     N_1   0.612104 0.639590 0.163870 -0.148058
N4    N     N_1   0.431468 0.363596 0.063671 -0.203940
N5    N     N_R   0.799963 0.507336 0.511802 -0.346043
N6    N     N_2   0.500520 0.501330 0.852150 -0.226557
N7    N     N_2   0.500540 0.501360 0.147810 -0.182231
N8    N     N_1   0.216042 0.686556 0.719684 -0.129310
N9    N     N_1   0.623774 0.737775 0.742334 -0.162167
N10   N     N_1   0.866852 0.904498 0.331857 -0.096370
N11   N     N_1   0.768795 0.734064 0.753674 -0.128928
N12   N     N_1   0.508544 0.146199 0.145477 -0.180700
O1    O     O_R   0.499990 0.319060 0.613040 -0.564681
O2    O     O_R   0.571240 0.499960 0.613080 -0.599596
O3    O     O_R   0.571250 0.500000 0.386950 -0.624993
O4    O     O_2   0.205256 0.323529 0.679615 -0.512146
O5    O     O_2   0.020473 0.817222 0.432194 -0.594415
O6    O     O_R   0.975905 0.860526 0.247867 -0.780945
O7    O     O_2   0.572938 0.320747 0.800508 -0.566975
O8    O     O_R   0.626364 0.435541 0.921741 -0.781289
O9    O     O_2   0.114120 0.239091 0.898662 -0.606455
O10   O     O_R   0.152601 0.125051 0.739650 -0.729024
O11   O     O_2   0.655604 0.330941 0.207172 -0.574188
O12   O     O_2   0.794969 0.327309 0.640903 -0.528591
O13   O     O_R   0.613635 0.250510 0.379696 -0.782749
O14   O     O_2   0.743648 0.231662 0.321403 -0.564356
O15   O     O_R   0.792299 0.389759 0.257374 -0.778358
O16   O     O_2   0.946628 0.092924 0.741016 -0.592054
O17   O     O_R   0.000031 0.102810 0.570804 -0.767622
O18   O     O_2   0.332431 0.680605 0.781107 -0.593913
O19   O     O_R   0.382228 0.741651 0.615479 -0.805807
O20   O     O_2   0.203003 0.560905 0.291736 -0.529001
O21   O     O_2   0.801279 0.687966 0.385044 -0.522733
O22   O     O_R   0.500010 0.319100 0.386900 -0.620638
O23   O     O_R   0.428750 0.500000 0.613050 -0.607846
O24   O     O_R   0.428760 0.500040 0.386920 -0.621316
O25   O     O_R   0.499990 0.680900 0.613100 -0.612493
O26   O     O_R   0.500010 0.680940 0.386960 -0.623770
Zn1   Zn    Zn3+2 0.499990 0.499970 0.650990 1.019273
Zn2   Zn    Zn3+2 0.500010 0.500030 0.349010 0.987168

loop_
_geom_bond_atom_site_label_1
_geom_bond_atom_site_label_2
_ccdc_geom_bond_type
C10   C27   A    
C57   O16   D    
C8    C13   A    
C40   C60   A    
C22   C29   A    
H2    O6    S    
H5    O13   S    
C35   C36   S    
H14   N6    S    
C18   C47   S    
C12   C49   S    
C1    C33   S    
C7    C8    A    
C53   O10   S    
C16   C31   S    
C12   C23   A    
C26   C27   A    
C1    O1    A    
C58   O18   D    
C30   C31   D    
C31   H12   S    
C55   O14   D    
C43   O5    D    
O2    Zn1   S    
C18   C19   A    
C52   N7    S    
C51   N3    T    
C17   C61   A    
C20   C24   A    
C45   C56   A    
N7    Zn2   S    
O26   Zn2   S    
C26   C43   S    
C43   O6    S    
O1    Zn1   S    
C19   N5    S    
C9    C10   A    
C28   C61   S    
C14   C55   S    
C4    O23   A    
C21   C22   A    
C11   O21   S    
C32   C48   S    
C6    C57   S    
C54   O11   D    
C2    C6    A    
H7    O17   S    
C41   H1    S    
C44   N9    T    
C14   C19   A    
H8    O19   S    
H6    O15   S    
C39   C42   S    
C11   N5    A    
C25   C29   A    
C40   C58   S    
C2    C20   A    
C15   C54   S    
C4    O24   A    
H4    O10   S    
C39   C40   A    
C42   N8    T    
C35   N6    D    
C8    C9    A    
C21   C34   A    
C38   N1    A    
C55   O15   S    
C49   N2    T    
O3    Zn2   S    
C5    C9    A    
C12   C41   A    
C33   H13   S    
C30   H11   S    
C4    C60   S    
C35   C50   S    
C17   C18   A    
C15   C61   A    
C37   O4    S    
C28   O3    A    
C34   C45   A    
C38   O20   S    
C7    H15   S    
C36   C51   S    
O24   Zn2   S    
C27   C46   S    
H3    O8    S    
C48   N12   T    
C34   C59   A    
C2    C5    A    
C13   O12   S    
C16   O26   A    
O23   Zn1   S    
C46   N10   T    
C53   C56   S    
C50   O8    S    
N6    Zn1   S    
C54   O13   S    
C3    C26   A    
C41   C60   A    
C3    C5    A    
C16   O25   A    
O25   Zn1   S    
C6    C7    A    
C53   O9    D    
C24   C56   A    
C37   N1    A    
O22   Zn2   S    
C47   N11   T    
C17   C44   S    
C32   C33   D    
C30   C32   S    
C50   O7    D    
C36   N7    D    
C23   C39   A    
C13   N5    A    
C57   O17   S    
C28   O2    A    
C58   O19   S    
C23   N1    S    
C52   N4    T    
C10   C11   A    
C38   C59   A    
C24   H16   S    
C20   C21   A    
C14   C15   A    
C3    C22   A    
C25   H9    S    
C25   C59   A    
C37   C45   A    
C1    O22   A    
C29   H10   S    
