data_mof_unit_36170.cif
_audit_creation_date              2012-12-10T18:48:22-0500
_audit_creation_method            fapswitch 2.2
_symmetry_space_group_name_H-M    P1
_symmetry_Int_Tables_number       1
_space_group_crystal_system       triclinic
_cell_length_a                    10.748733
_cell_length_b                    9.992666
_cell_length_c                    11.507053
_cell_angle_alpha                 89.971023
_cell_angle_beta                  93.28689
_cell_angle_gamma                 91.528754
_cell_volume                      1233.48224591

loop_
_atom_site_label
_atom_site_type_symbol
_atom_type_description
_atom_site_fract_x
_atom_site_fract_y
_atom_site_fract_z
_atom_type_partial_charge
C1    C     C_R   0.260734 0.497882 0.506186 0.929533
C2    C     C_R   0.942763 0.616963 0.535229 0.366798
C3    C     C_R   0.930271 0.387806 0.458915 0.382619
C4    C     C_R   0.070151 0.609128 0.552224 0.371953
C5    C     C_R   0.872822 0.504273 0.493812 -0.413646
C6    C     C_R   0.128294 0.492925 0.517098 -0.430166
C7    C     C_R   0.536968 0.072694 0.598550 0.310125
C8    C     C_R   0.460370 0.927667 0.401672 0.305233
C9    C     C_R   0.460957 0.071711 0.401903 0.343399
C10   C     C_R   0.537568 0.929582 0.598396 0.334547
C11   C     C_3   0.130190 0.186843 0.566151 -0.297652
C12   C     C_R   0.739564 0.501786 0.495995 0.958875
C13   C     C_3   0.888283 0.818807 0.462179 -0.255582
C14   C     C_3   0.849129 0.172897 0.429607 -0.170013
C15   C     C_3   0.158698 0.702005 0.717615 -0.209948
C16   C     C_3   0.681579 0.176114 0.726323 0.169352
C17   C     C_3   0.705999 0.209848 0.854818 -0.815274
C18   C     C_3   0.310803 0.816366 0.283005 0.188570
C19   C     C_3   0.275334 0.791029 0.154396 -0.888928
C20   C     C_3   0.303161 0.137992 0.271121 0.183860
C21   C     C_3   0.260969 0.269036 0.216262 -0.750486
C22   C     C_3   0.686028 0.826476 0.716989 0.219126
C23   C     C_R   0.501436 0.500157 0.282391 0.874732
C24   C     C_3   0.727101 0.821306 0.845569 -0.855510
C25   C     C_R   0.499134 0.500115 0.717637 0.847981
C26   C     C_1   0.502098 0.500582 0.161827 -0.143962
C27   C     C_1   0.497751 0.500926 0.838125 -0.166420
C28   C     C_1   0.500843 0.501097 0.059405 -0.008331
C29   C     C_1   0.498438 0.501427 0.940522 -0.018121
C30   C     C_R   0.057708 0.377161 0.482056 0.379392
H1    H     H_    0.193038 0.242459 0.630509 0.189043
H2    H     H_    0.213173 0.790040 0.753303 0.193815
H3    H     H_    0.214368 0.611639 0.737718 0.134061
H4    H     H_    0.069344 0.696160 0.761995 0.147492
H5    H     H_    0.705911 0.265955 0.676055 0.161815
H6    H     H_    0.746169 0.097561 0.703993 0.076178
H7    H     H_    0.660054 0.134669 0.910176 0.277840
H8    H     H_    0.807876 0.212685 0.877479 0.195383
H9    H     H_    0.669239 0.309280 0.873778 0.245650
H10   H     H_    0.244024 0.885511 0.319853 0.062022
H11   H     H_    0.297644 0.719914 0.326080 0.194781
H12   H     H_    0.173799 0.090068 0.548596 0.181350
H13   H     H_    0.302116 0.877402 0.099860 0.267565
H14   H     H_    0.323719 0.702148 0.123880 0.257445
H15   H     H_    0.173216 0.771706 0.141964 0.204407
H16   H     H_    0.245779 0.115749 0.346445 0.150067
H17   H     H_    0.282474 0.062003 0.203117 0.148757
H18   H     H_    0.316935 0.293709 0.140687 0.236910
H19   H     H_    0.161462 0.258607 0.185065 0.206372
H20   H     H_    0.269087 0.351649 0.280361 0.258108
H21   H     H_    0.751998 0.891878 0.671187 0.116789
H22   H     H_    0.695715 0.724751 0.683129 0.213495
H23   H     H_    0.040281 0.164025 0.605854 0.129916
H24   H     H_    0.726259 0.922252 0.884661 0.261076
H25   H     H_    0.663654 0.753323 0.892318 0.266753
H26   H     H_    0.823308 0.783416 0.856059 0.207772
H27   H     H_    0.823825 0.901389 0.474752 0.132108
H28   H     H_    0.854108 0.765788 0.380801 0.165556
H29   H     H_    0.983124 0.862855 0.452050 0.177220
H30   H     H_    0.762258 0.126610 0.389045 0.166566
H31   H     H_    0.838216 0.174873 0.525053 0.089089
H32   H     H_    0.926869 0.108430 0.407910 0.177143
N1    N     N_R   0.500000 0.857200 0.500000 -0.203116
N2    N     N_R   0.500000 0.142800 0.500000 -0.203158
O1    O     O_R   0.316770 0.614620 0.499990 -0.599185
O2    O     O_3   0.887284 0.735314 0.561081 -0.606255
O3    O     O_3   0.865628 0.301098 0.381012 -0.563292
O4    O     O_3   0.137392 0.719612 0.596609 -0.571401
O5    O     O_3   0.554539 0.138504 0.704346 -0.534860
O6    O     O_3   0.436978 0.861700 0.296382 -0.552917
O7    O     O_3   0.433200 0.141576 0.299766 -0.545023
O8    O     O_3   0.560198 0.865234 0.703805 -0.554017
O9    O     O_R   0.683230 0.385380 0.500010 -0.619242
O10   O     O_R   0.683230 0.614620 0.500010 -0.608233
O11   O     O_R   0.316770 0.385380 0.499990 -0.580822
O12   O     O_R   0.500020 0.614670 0.334450 -0.586743
O13   O     O_R   0.499980 0.385330 0.665550 -0.577457
O14   O     O_R   0.499980 0.614670 0.665550 -0.582842
O15   O     O_R   0.500020 0.385330 0.334450 -0.538785
O16   O     O_3   0.113117 0.257444 0.459929 -0.593264
Zn1   Zn    Zn3+2 0.500000 0.653120 0.500000 0.986476
Zn2   Zn    Zn3+2 0.500000 0.346880 0.500000 0.999536

loop_
_geom_bond_atom_site_label_1
_geom_bond_atom_site_label_2
_ccdc_geom_bond_type
C18   O6    S    
C7    C10   A    
C12   O10   A    
C27   C29   T    
C9    N2    A    
C10   N1    A    
C23   O12   A    
C21   H19   S    
C15   H2    S    
C24   H25   S    
N1    Zn1   S    
C25   O13   A    
C28   C29   S    
C16   H5    S    
C13   H27   S    
C24   H24   S    
C14   H32   S    
C11   H12   S    
C18   C19   S    
C17   H9    S    
C23   C26   S    
C18   H10   S    
C8    C9    A    
C1    O1    A    
C14   O3    S    
C20   O7    S    
C15   H4    S    
C11   H23   S    
C21   H18   S    
C30   O16   S    
C11   H1    S    
C12   O9    A    
C22   O8    S    
C21   H20   S    
C19   H13   S    
C13   O2    S    
C25   O14   A    
C1    O11   A    
C5    C12   S    
C4    C6    A    
C18   H11   S    
C4    O4    S    
C16   C17   S    
C13   H28   S    
C3    C5    A    
C14   H31   S    
C1    C6    S    
C3    C30   A    
C2    C4    A    
O1    Zn1   S    
C17   H7    S    
N2    Zn2   S    
C6    C30   A    
C22   C24   S    
C2    C5    A    
C25   C27   S    
O10   Zn1   S    
O9    Zn2   S    
C19   H14   S    
C22   H22   S    
C8    O6    S    
C3    O3    S    
C16   O5    S    
C9    O7    S    
C2    O2    S    
O12   Zn1   S    
C7    O5    S    
O15   Zn2   S    
C19   H15   S    
O11   Zn2   S    
C13   H29   S    
C24   H26   S    
C14   H30   S    
C26   C28   T    
C16   H6    S    
O14   Zn1   S    
O13   Zn2   S    
C15   O4    S    
C17   H8    S    
C7    N2    A    
C20   H17   S    
C11   O16   S    
C8    N1    A    
C20   C21   S    
C23   O15   A    
C15   H3    S    
C20   H16   S    
C22   H21   S    
C10   O8    S    
