data_mof_unit_30888.cif
_audit_creation_date              2012-12-11T15:33:50-0500
_audit_creation_method            fapswitch 2.2
_symmetry_space_group_name_H-M    P1
_symmetry_Int_Tables_number       1
_space_group_crystal_system       triclinic
_cell_length_a                    27.155985
_cell_length_b                    7.202895
_cell_length_c                    22.770514
_cell_angle_alpha                 90.001456
_cell_angle_beta                  101.21741
_cell_angle_gamma                 90.001312
_cell_volume                      4368.86355136

loop_
_atom_site_label
_atom_site_type_symbol
_atom_type_description
_atom_site_fract_x
_atom_site_fract_y
_atom_site_fract_z
_atom_type_partial_charge
O1    O     O_R   0.207310 0.594030 0.676830 -0.536927
O2    O     O_R   0.792690 0.405970 0.323170 -0.536927
O3    O     O_R   0.292690 0.094030 0.823170 -0.536932
O4    O     O_R   0.707310 0.905970 0.176830 -0.536931
O5    O     O_R   0.197320 0.262370 0.795700 -0.496471
O6    O     O_R   0.802680 0.737630 0.204300 -0.496471
O7    O     O_R   0.302680 0.762370 0.704300 -0.496463
O8    O     O_R   0.697320 0.237630 0.295700 -0.496463
C1    C     C_R   0.184613 0.432171 0.811894 0.749843
C2    C     C_R   0.815387 0.567829 0.188106 0.749843
C3    C     C_R   0.315386 0.932172 0.688105 0.749829
C4    C     C_R   0.684614 0.067828 0.311895 0.749829
O9    O     O_R   0.201410 0.264250 0.675590 -0.538182
O10   O     O_R   0.798590 0.735750 0.324410 -0.538182
O11   O     O_R   0.298590 0.764250 0.824410 -0.538186
O12   O     O_R   0.701410 0.235750 0.175590 -0.538185
O13   O     O_R   0.296810 0.094940 0.702210 -0.545163
O14   O     O_R   0.703190 0.905060 0.297790 -0.545164
O15   O     O_R   0.203190 0.594940 0.797790 -0.545159
O16   O     O_R   0.796810 0.405060 0.202210 -0.545158
C5    C     C_R   0.189785 0.432511 0.653471 0.679949
C6    C     C_R   0.810215 0.567488 0.346529 0.679949
C7    C     C_R   0.310215 0.932519 0.846528 0.679918
C8    C     C_R   0.689785 0.067480 0.153472 0.679917
O17   O     O_3   0.281300 0.427390 0.758870 -0.367634
O18   O     O_3   0.718700 0.572610 0.241130 -0.367634
O19   O     O_3   0.218700 0.927390 0.741130 -0.367629
O20   O     O_3   0.781300 0.072610 0.258870 -0.367628
V1    V     V_3+5 0.244190 0.152150 0.748350 1.526818
V2    V     V_3+5 0.755810 0.847850 0.251650 1.526819
V3    V     V_3+5 0.255810 0.652150 0.751650 1.526813
V4    V     V_3+5 0.744190 0.347850 0.248350 1.526814
C9    C     C_R   0.654874 0.062500 0.095112 -0.042293
C10   C     C_R   0.345125 0.937497 0.904889 -0.042295
C11   C     C_R   0.845127 0.562548 0.404891 -0.042327
C12   C     C_R   0.154873 0.437452 0.595109 -0.042327
C13   C     C_R   0.639433 0.124521 0.988838 -0.081659
C14   C     C_R   0.360568 0.875443 0.011160 -0.081661
C15   C     C_R   0.860594 0.625000 0.511141 -0.081671
C16   C     C_R   0.139406 0.375000 0.488859 -0.081672
C17   C     C_R   0.672234 0.115742 0.043893 -0.185096
C18   C     C_R   0.327767 0.884228 0.956106 -0.185093
C19   C     C_R   0.827786 0.616085 0.456094 -0.185046
C20   C     C_R   0.172214 0.383915 0.543906 -0.185046
C21   C     C_R   0.603842 0.018527 0.090960 -0.156877
C22   C     C_R   0.396157 0.981488 0.909042 -0.156878
C23   C     C_R   0.896150 0.518412 0.409052 -0.156875
C24   C     C_R   0.103850 0.481588 0.590948 -0.156875
C25   C     C_R   0.569109 0.029608 0.035275 0.046778
C26   C     C_R   0.430891 0.970392 0.964726 0.046779
C27   C     C_R   0.930892 0.529641 0.464727 0.046786
C28   C     C_R   0.069108 0.470359 0.535273 0.046787
C29   C     C_R   0.588183 0.083394 0.983958 -0.008492
C30   C     C_R   0.411818 0.916587 0.016041 -0.008492
C31   C     C_R   0.911835 0.583729 0.516027 -0.008485
C32   C     C_R   0.088165 0.416271 0.483973 -0.008485
C33   C     C_R   0.516293 0.991749 0.028786 -0.038932
C34   C     C_R   0.483707 0.008250 0.971214 -0.038934
C35   C     C_R   0.983702 0.491660 0.471220 -0.038925
C36   C     C_R   0.016298 0.508340 0.528780 -0.038925
C37   C     C_R   0.505033 0.061457 0.922015 -0.216552
C38   C     C_R   0.494967 0.938531 0.077985 -0.216552
C39   C     C_R   0.994989 0.561846 0.577963 -0.216532
C40   C     C_R   0.005010 0.438154 0.422037 -0.216531
C41   C     C_R   0.555997 0.097813 0.928216 0.617445
C42   C     C_R   0.444003 0.902161 0.071783 0.617443
C43   C     C_R   0.944031 0.598321 0.571758 0.617447
C44   C     C_R   0.055969 0.401678 0.428242 0.617447
H1    H     H_    0.407438 0.019236 0.867847 0.105549
H2    H     H_    0.592560 0.980802 0.132156 0.105547
H3    H     H_    0.092579 0.519525 0.632133 0.105574
H4    H     H_    0.907420 0.480475 0.367867 0.105574
H5    H     H_    0.288643 0.848117 0.953350 0.123626
H6    H     H_    0.711359 0.151837 0.046647 0.123627
H7    H     H_    0.211330 0.347679 0.546667 0.123639
H8    H     H_    0.788669 0.652321 0.453333 0.123639
H9    H     H_    0.654305 0.166322 0.950025 0.191018
H10   H     H_    0.345698 0.833625 0.049972 0.191017
H11   H     H_    0.845737 0.667034 0.549941 0.191015
H12   H     H_    0.154263 0.332966 0.450059 0.191015
H13   H     H_    0.483205 0.077054 0.877504 0.163981
H14   H     H_    0.516795 0.922926 0.122495 0.163981
H15   H     H_    0.016827 0.577599 0.622463 0.163983
H16   H     H_    0.983173 0.422401 0.377537 0.163983
C45   C     C_R   0.634844 0.887297 0.375101 -0.205068
C46   C     C_R   0.365156 0.112702 0.624899 -0.205069
C47   C     C_R   0.865146 0.387311 0.124885 -0.205044
C48   C     C_R   0.134854 0.612689 0.875115 -0.205044
H17   H     H_    0.654454 0.761960 0.366912 0.220144
H18   H     H_    0.345546 0.238040 0.633088 0.220144
H19   H     H_    0.845524 0.261982 0.133058 0.220071
H20   H     H_    0.154476 0.738017 0.866942 0.220071
C49   C     C_R   0.598990 0.874951 0.411546 -0.151176
C50   C     C_R   0.401010 0.125049 0.588454 -0.151175
C51   C     C_R   0.901001 0.374964 0.088442 -0.151169
C52   C     C_R   0.098999 0.625036 0.911558 -0.151169
H21   H     H_    0.592250 0.740650 0.429822 0.240750
H22   H     H_    0.407749 0.259350 0.570178 0.240750
H23   H     H_    0.907730 0.240672 0.070152 0.240683
H24   H     H_    0.092270 0.759328 0.929848 0.240683
C53   C     C_R   0.572473 0.032742 0.424474 -0.203070
C54   C     C_R   0.427526 0.967258 0.575526 -0.203070
C55   C     C_R   0.927530 0.532745 0.075531 -0.203059
C56   C     C_R   0.072470 0.467255 0.924469 -0.203059
C57   C     C_R   0.582893 0.204225 0.399401 0.591787
C58   C     C_R   0.417107 0.795775 0.600599 0.591787
C59   C     C_R   0.917123 0.704218 0.100622 0.591781
C60   C     C_R   0.082876 0.295781 0.899378 0.591781
C61   C     C_R   0.618852 0.216702 0.362797 0.545721
C62   C     C_R   0.381147 0.783298 0.637203 0.545722
C63   C     C_R   0.881163 0.716694 0.137225 0.545712
C64   C     C_R   0.118837 0.283306 0.862775 0.545713
C65   C     C_R   0.645570 0.057984 0.350145 -0.271410
C66   C     C_R   0.354430 0.942015 0.649855 -0.271410
C67   C     C_R   0.854431 0.557987 0.149858 -0.271399
C68   C     C_R   0.145569 0.442013 0.850142 -0.271399
N1    N     N_R   0.509119 0.166905 0.478101 -0.157805
N2    N     N_R   0.490881 0.833095 0.521899 -0.157805
N3    N     N_R   0.990865 0.666922 0.021877 -0.157824
N4    N     N_R   0.009135 0.333078 0.978123 -0.157824
N5    N     N_R   0.475419 0.151234 0.513330 -0.243235
N6    N     N_R   0.524581 0.848766 0.486670 -0.243235
N7    N     N_R   0.024563 0.651250 0.986644 -0.243224
N8    N     N_R   0.975437 0.348750 0.013355 -0.243224
C69   C     C_R   0.465470 0.983908 0.536121 0.570085
C70   C     C_R   0.534529 0.016092 0.463879 0.570085
C71   C     C_R   0.034527 0.483907 0.963876 0.570077
C72   C     C_R   0.965473 0.516093 0.036124 0.570077
F1    F     F_    0.573881 0.149014 0.878864 -0.653264
F2    F     F_    0.426121 0.850946 0.121134 -0.653264
F3    F     F_    0.926164 0.649809 0.621095 -0.653262
F4    F     F_    0.073835 0.350191 0.378905 -0.653262
F5    F     F_    0.558365 0.361233 0.409952 -0.618632
F6    F     F_    0.441635 0.638767 0.590048 -0.618632
F7    F     F_    0.941668 0.861213 0.090092 -0.618591
F8    F     F_    0.058332 0.138787 0.909908 -0.618591
F9    F     F_    0.626958 0.385063 0.339621 -0.655565
F10   F     F_    0.373042 0.614937 0.660379 -0.655565
F11   F     F_    0.873072 0.885042 0.160421 -0.655515
F12   F     F_    0.126928 0.114958 0.839578 -0.655515

loop_
_geom_bond_atom_site_label_1
_geom_bond_atom_site_label_2
_ccdc_geom_bond_type
O17   V3    S    
C48   C52   A    
O1    C5    A    
C47   H19   S    
O19   V1    S    
C9    C21   A    
C64   F12   S    
O3    C7    A    
C10   C18   A    
C64   C68   A    
C54   C69   S    
C11   C23   A    
N4    C71   A    
C63   F11   S    
C33   C38   A    
C5    C12   S    
O7    C3    A    
C6    C11   S    
C35   C40   A    
C26   C30   A    
C36   C39   A    
C40   C44   A    
O9    V1    S    
C14   C18   A    
C58   C62   A    
C55   C59   A    
O4    C8    A    
C51   H23   S    
C50   H22   S    
O1    V3    S    
O13   V1    S    
O2    V4    S    
N2    N6    A    
O3    V1    S    
C3    C66   S    
N1    N5    A    
C40   H16   S    
C22   H1    S    
C59   F7    S    
C46   C50   A    
C17   H6    S    
C45   C49   A    
C1    O15   A    
C15   C31   A    
C48   H20   S    
C2    O16   A    
C16   C32   A    
C47   C51   A    
O2    C6    A    
C16   H12   S    
C54   C58   A    
C10   C22   A    
N2    C69   A    
C21   C25   A    
C11   C19   A    
N1    C70   A    
C62   C66   A    
C16   C20   A    
C47   C67   A    
C61   C65   A    
N8    C72   A    
C13   C29   A    
N3    C72   A    
C34   C37   A    
O11   C7    A    
C38   H14   S    
O15   V3    S    
C35   C36   A    
O12   C8    A    
O10   V2    S    
C51   C55   A    
O5    V1    S    
C53   C57   A    
C39   C43   A    
O7    V3    S    
C38   C42   A    
C26   C34   A    
C62   F10   S    
C46   H18   S    
C49   C53   A    
C45   H17   S    
O18   V4    S    
C15   C19   A    
C14   H10   S    
C32   C44   A    
C13   H9    S    
C60   C64   A    
C39   H15   S    
O8    V4    S    
C48   C68   A    
C20   H7    S    
O5    C1    A    
C41   F1    S    
C31   C43   A    
C14   C30   A    
C58   F6    S    
O8    C4    A    
C7    C10   S    
C53   C70   S    
O9    C5    A    
C44   F4    S    
C55   C72   S    
O14   V2    S    
O6    V2    S    
N5    C69   A    
C52   C56   A    
C12   C20   A    
C27   C35   A    
C24   H3    S    
C49   H21   S    
N7    C71   A    
C56   C60   A    
C29   C41   A    
C57   F5    S    
C4    C65   S    
O16   V4    S    
C19   H8    S    
C57   C61   A    
C3    O13   A    
C18   H5    S    
C21   H2    S    
C1    C68   S    
C59   C63   A    
C43   F3    S    
O6    C2    A    
C25   C33   A    
C23   C27   A    
O11   V3    S    
C30   C42   A    
N3    N7    A    
O12   V4    S    
C22   C26   A    
C8    C9    S    
C60   F8    S    
C46   C66   A    
C61   F9    S    
C9    C17   A    
O10   C6    A    
O20   V2    S    
C37   H13   S    
C33   C34   A    
C56   C71   S    
C25   C29   A    
C52   H24   S    
C45   C65   A    
N6    C70   A    
C12   C24   A    
C27   C31   A    
C13   C17   A    
C23   H4    S    
N4    N8    A    
C37   C41   A    
C24   C28   A    
C50   C54   A    
C28   C36   A    
C4    O14   A    
C63   C67   A    
O4    V2    S    
C2    C67   S    
C28   C32   A    
C15   H11   S    
C42   F2    S    
