data_mof_unit_48519.cif
_audit_creation_date              2012-12-11T14:56:03-0500
_audit_creation_method            fapswitch 2.2
_symmetry_space_group_name_H-M    P1
_symmetry_Int_Tables_number       1
_space_group_crystal_system       triclinic
_cell_length_a                    28.059509
_cell_length_b                    17.244921
_cell_length_c                    18.129805
_cell_angle_alpha                 90.106989
_cell_angle_beta                  138.034254
_cell_angle_gamma                 89.940654
_cell_volume                      5866.18767668

loop_
_atom_site_label
_atom_site_type_symbol
_atom_type_description
_atom_site_fract_x
_atom_site_fract_y
_atom_site_fract_z
_atom_type_partial_charge
C1    C     C_R   0.687676 0.897344 0.800073 -0.152413
C2    C     C_3   0.226708 0.654512 0.043624 -0.209519
C3    C     C_3   0.704254 0.693531 0.906856 -0.303635
C4    C     C_3   0.164759 0.759182 0.943927 -0.307143
C5    C     C_3   0.795080 0.193565 0.091730 -0.303807
C6    C     C_3   0.834465 0.759544 0.056400 -0.306824
C7    C     C_3   0.204243 0.193558 0.906887 -0.303649
C8    C     C_3   0.206795 0.731195 0.060436 0.300971
C9    C     C_3   0.753926 0.222411 0.976736 0.309698
C10   C     C_3   0.793390 0.731274 0.940372 0.300713
C11   C     C_3   0.244543 0.222680 0.021467 0.309232
C12   C     C_3   0.706769 0.231219 0.060404 0.300972
C13   C     C_3   0.265843 0.297948 0.007213 -0.200958
C14   C     C_3   0.253899 0.722439 0.976685 0.309704
C15   C     C_3   0.293365 0.231236 0.940334 0.300708
C16   C     C_3   0.744517 0.722641 0.021421 0.309243
C17   C     C_3   0.273878 0.769040 0.106497 0.125714
C18   C     C_3   0.686366 0.183823 0.929087 0.108322
C19   C     C_3   0.725855 0.768987 0.892892 0.125710
C20   C     C_3   0.312471 0.184197 0.070392 0.109066
C21   C     C_3   0.773874 0.269036 0.106510 0.125752
C22   C     C_3   0.186361 0.683822 0.929081 0.108277
C23   C     C_3   0.225854 0.268989 0.892897 0.125715
C24   C     C_3   0.773097 0.654615 0.956351 -0.209307
C25   C     C_3   0.812470 0.684198 0.070390 0.109067
C26   C     C_3   0.180413 0.738811 0.109421 -0.404413
C27   C     C_3   0.234349 0.706566 0.226432 -0.887214
C28   C     C_3   0.787273 0.219879 0.938061 -0.405330
C29   C     C_3   0.743573 0.264493 0.831128 -0.874191
C30   C     C_3   0.820816 0.738784 0.892987 -0.404710
C31   C     C_3   0.767686 0.706192 0.776106 -0.886849
C32   C     C_3   0.210521 0.220192 0.059025 -0.406696
C33   C     C_3   0.253995 0.264541 0.166267 -0.873076
C34   C     C_3   0.680355 0.238859 0.109339 -0.404431
C35   C     C_3   0.232974 0.797730 0.991741 -0.200991
C36   C     C_3   0.734272 0.206634 0.226360 -0.887204
C37   C     C_3   0.287212 0.719931 0.937955 -0.405308
C38   C     C_3   0.243510 0.764599 0.831061 -0.874228
C39   C     C_3   0.320763 0.238701 0.892902 -0.404682
C40   C     C_3   0.267599 0.206108 0.776016 -0.886856
C41   C     C_3   0.710464 0.720109 0.058928 -0.406760
C42   C     C_3   0.753905 0.764444 0.166167 -0.873048
C43   C     C_3   0.726679 0.154519 0.043615 -0.209546
C44   C     C_3   0.765807 0.797934 0.007193 -0.200949
C45   C     C_3   0.273061 0.154602 0.956338 -0.209309
C46   C     C_R   0.610661 0.854018 0.355667 0.130855
C47   C     C_R   0.286716 0.243569 0.391310 0.125813
C48   C     C_R   0.389161 0.854359 0.644028 0.130892
C49   C     C_R   0.331091 0.079010 0.183051 -0.136582
C50   C     C_R   0.713022 0.243576 0.607916 0.125265
C51   C     C_R   0.110659 0.354022 0.355662 0.130850
C52   C     C_R   0.786712 0.743568 0.391298 0.125842
C53   C     C_R   0.889165 0.354357 0.644032 0.130895
C54   C     C_R   0.213017 0.743580 0.607905 0.125221
C55   C     C_R   0.263811 0.373988 0.409012 -0.231259
C56   C     C_R   0.605990 0.749788 0.260964 -0.229990
C57   C     C_R   0.735699 0.373928 0.590005 -0.231239
C58   C     C_R   0.393804 0.750221 0.738439 -0.230028
C59   C     C_R   0.763805 0.873988 0.408997 -0.231266
C60   C     C_R   0.312394 0.897516 0.199445 -0.152070
C61   C     C_R   0.105989 0.249793 0.260960 -0.229986
C62   C     C_R   0.235689 0.873930 0.589983 -0.231224
C63   C     C_R   0.893805 0.250212 0.738433 -0.230032
C64   C     C_R   0.308647 0.321068 0.426513 -0.175974
C65   C     C_R   0.575737 0.788963 0.285320 -0.173081
C66   C     C_R   0.690951 0.320969 0.572546 -0.176221
C67   C     C_R   0.424135 0.789453 0.714361 -0.173158
C68   C     C_R   0.808641 0.821069 0.426492 -0.175930
C69   C     C_R   0.075735 0.288967 0.285315 -0.173079
C70   C     C_R   0.190940 0.820969 0.572519 -0.176244
C71   C     C_R   0.667739 0.078346 0.816640 -0.136984
C72   C     C_R   0.924137 0.289448 0.714361 -0.173162
C73   C     C_R   0.215496 0.223506 0.322324 -0.305370
C74   C     C_R   0.664739 0.890117 0.377516 -0.280805
C75   C     C_R   0.784266 0.223685 0.676880 -0.304976
C76   C     C_R   0.334881 0.890279 0.621867 -0.280866
C77   C     C_R   0.715495 0.723503 0.322322 -0.305434
C78   C     C_R   0.164738 0.390120 0.377515 -0.280796
C79   C     C_R   0.284264 0.723694 0.676885 -0.304963
C80   C     C_R   0.834886 0.390275 0.621875 -0.280869
C81   C     C_R   0.171440 0.275160 0.308801 0.196007
C82   C     C_R   0.187675 0.397345 0.800074 -0.152416
C83   C     C_R   0.697965 0.848906 0.359610 0.192111
C84   C     C_R   0.828252 0.275390 0.690399 0.196190
C85   C     C_R   0.301613 0.849017 0.639542 0.192126
C86   C     C_R   0.671439 0.775156 0.308800 0.196031
C87   C     C_R   0.197966 0.348909 0.359614 0.192107
C88   C     C_R   0.328249 0.775399 0.690400 0.196192
C89   C     C_R   0.801619 0.349012 0.639551 0.192129
C90   C     C_R   0.326211 0.104268 0.408099 -0.146178
C91   C     C_R   0.639027 0.929603 0.506989 -0.125608
C92   C     C_R   0.673742 0.104298 0.591745 -0.147085
C93   C     C_R   0.831093 0.579009 0.183052 -0.136556
C94   C     C_R   0.360991 0.929781 0.493045 -0.126320
C95   C     C_R   0.826211 0.604268 0.408095 -0.146181
C96   C     C_R   0.139025 0.429604 0.506987 -0.125608
C97   C     C_R   0.173742 0.604300 0.591744 -0.147063
C98   C     C_R   0.860993 0.429781 0.493047 -0.126326
C99   C     C_R   0.443366 0.835542 0.579954 -0.136301
C100  C     C_R   0.590246 0.196349 0.500394 -0.153866
C101  C     C_R   0.556652 0.835332 0.420032 -0.134767
C102  C     C_R   0.409645 0.196422 0.499379 -0.152131
C103  C     C_R   0.943366 0.335542 0.579953 -0.136297
C104  C     C_R   0.812393 0.397513 0.199452 -0.152072
C105  C     C_R   0.090244 0.696349 0.500392 -0.153879
C106  C     C_R   0.056650 0.335334 0.420028 -0.134771
C107  C     C_R   0.909644 0.696422 0.499375 -0.152118
C108  C     C_R   0.583993 0.171491 0.725820 -0.135052
C109  C     C_R   0.395648 0.805825 0.288027 -0.155910
C110  C     C_R   0.415184 0.171628 0.273620 -0.135810
C111  C     C_R   0.604360 0.805735 0.711355 -0.154678
C112  C     C_R   0.083988 0.671486 0.725818 -0.135070
C113  C     C_R   0.895646 0.305823 0.288035 -0.155898
C114  C     C_R   0.915183 0.671630 0.273620 -0.135811
C115  C     C_R   0.167734 0.578342 0.816638 -0.137001
C116  C     C_R   0.104360 0.305736 0.711358 -0.154692
C117  C     C_R   0.675020 0.821316 0.802301 0.066635
C118  C     C_R   0.356025 0.141032 0.171316 0.069448
C119  C     C_R   0.325049 0.821559 0.196841 0.066689
C120  C     C_R   0.642489 0.140361 0.828124 0.069788
C121  C     C_R   0.175020 0.321318 0.802305 0.066647
C122  C     C_R   0.856023 0.641034 0.171316 0.069431
C123  C     C_R   0.825045 0.321554 0.196855 0.066672
C124  C     C_R   0.142481 0.640354 0.828121 0.069796
C125  C     C_R   0.339220 0.182945 0.435157 0.075267
C126  C     C_3   0.733004 0.297719 0.991767 -0.201047
C127  C     C_R   0.601779 0.873392 0.423772 0.061434
C128  C     C_R   0.660640 0.182899 0.564446 0.075594
C129  C     C_R   0.398202 0.873681 0.576177 0.061568
C130  C     C_R   0.839217 0.682945 0.435149 0.075241
C131  C     C_R   0.101777 0.373395 0.423768 0.061436
C132  C     C_R   0.160638 0.682900 0.564442 0.075645
C133  C     C_R   0.898204 0.373681 0.576179 0.061566
C134  C     C_3   0.664767 0.259200 0.943910 -0.307137
C135  C     C_3   0.295088 0.693586 0.091693 -0.303807
C136  C     C_3   0.334477 0.259518 0.056377 -0.306827
H1    H     H_    0.739109 0.925059 0.853652 0.089769
H2    H     H_    0.083252 0.194933 0.217399 0.123332
H3    H     H_    0.274313 0.768117 0.814533 0.261811
H4    H     H_    0.341119 0.746447 0.003162 0.191542
H5    H     H_    0.293666 0.658865 0.927172 0.183422
H6    H     H_    0.256974 0.143913 0.775189 0.254385
H7    H     H_    0.216712 0.238863 0.719709 0.261709
H8    H     H_    0.289923 0.211343 0.745222 0.253263
H9    H     H_    0.330643 0.300874 0.892024 0.185229
H10   H     H_    0.371960 0.206818 0.946883 0.194172
H11   H     H_    0.804989 0.734486 0.236222 0.265660
H12   H     H_    0.764799 0.824566 0.160143 0.248770
H13   H     H_    0.215437 0.931097 0.553420 0.126456
H14   H     H_    0.722782 0.767801 0.182147 0.261763
H15   H     H_    0.656705 0.746851 0.993516 0.191694
H16   H     H_    0.703611 0.659018 0.068832 0.183285
H17   H     H_    0.916621 0.195462 0.782019 0.123370
H18   H     H_    0.283968 0.431258 0.445513 0.126459
H19   H     H_    0.583254 0.694927 0.217405 0.123333
H20   H     H_    0.715449 0.431098 0.553452 0.126457
H21   H     H_    0.416621 0.695473 0.782030 0.123369
H22   H     H_    0.274531 0.076893 0.345153 0.088931
H23   H     H_    0.678487 0.969276 0.531520 0.098510
H24   H     H_    0.725459 0.077063 0.654658 0.089103
H25   H     H_    0.282970 0.046096 0.118170 0.091523
H26   H     H_    0.321552 0.969495 0.468576 0.098671
H27   H     H_    0.774530 0.576893 0.345148 0.088941
H28   H     H_    0.178486 0.469277 0.531519 0.098507
H29   H     H_    0.225459 0.577066 0.654656 0.089086
H30   H     H_    0.821555 0.469497 0.468583 0.098676
H31   H     H_    0.479878 0.789318 0.634508 0.093297
H32   H     H_    0.564778 0.251791 0.479305 0.085262
H33   H     H_    0.520129 0.789037 0.365427 0.093670
H34   H     H_    0.435070 0.251885 0.520413 0.085300
H35   H     H_    0.979878 0.289317 0.634505 0.093296
H36   H     H_    0.260957 0.925141 0.146026 0.089590
H37   H     H_    0.064776 0.751791 0.479303 0.085259
H38   H     H_    0.020125 0.289040 0.365421 0.093672
H39   H     H_    0.935068 0.751885 0.520409 0.085298
H40   H     H_    0.555001 0.223567 0.706605 0.100781
H41   H     H_    0.420479 0.749251 0.316899 0.092964
H42   H     H_    0.444739 0.223098 0.292825 0.100557
H43   H     H_    0.579151 0.749335 0.682689 0.092417
H44   H     H_    0.054996 0.723562 0.706605 0.100786
H45   H     H_    0.920479 0.249249 0.316909 0.092959
H46   H     H_    0.944738 0.723101 0.292826 0.100550
H47   H     H_    0.715617 0.045271 0.881765 0.091864
H48   H     H_    0.079152 0.249335 0.682692 0.092423
H49   H     H_    0.610670 0.285196 0.882645 0.128068
H50   H     H_    0.348934 0.666970 0.152553 0.123843
H51   H     H_    0.388523 0.285715 0.118276 0.127780
H52   H     H_    0.650477 0.666667 0.845310 0.123770
H53   H     H_    0.110655 0.785161 0.882685 0.128077
H54   H     H_    0.848920 0.166932 0.152613 0.123843
H55   H     H_    0.888502 0.785766 0.118318 0.127772
H56   H     H_    0.150457 0.166723 0.845364 0.123776
H57   H     H_    0.736324 0.357183 0.972408 0.123445
H58   H     H_    0.239109 0.425059 0.853653 0.089765
H59   H     H_    0.222668 0.595195 0.062274 0.126698
H60   H     H_    0.262176 0.357453 0.026229 0.123523
H61   H     H_    0.777536 0.595252 0.938143 0.126836
H62   H     H_    0.236272 0.857203 0.972373 0.123428
H63   H     H_    0.722616 0.095210 0.062252 0.126705
H64   H     H_    0.762110 0.857428 0.026196 0.123533
H65   H     H_    0.277469 0.095227 0.938116 0.126830
H66   H     H_    0.688771 0.943488 0.424416 0.118935
H67   H     H_    0.196438 0.165331 0.289909 0.121657
H68   H     H_    0.310773 0.943530 0.574940 0.118928
H69   H     H_    0.782974 0.546090 0.118171 0.091522
H70   H     H_    0.803414 0.165600 0.709367 0.121564
H71   H     H_    0.188770 0.443491 0.424415 0.118933
H72   H     H_    0.696438 0.665327 0.289912 0.121667
H73   H     H_    0.810779 0.443529 0.574953 0.118930
H74   H     H_    0.303415 0.665613 0.709385 0.121560
H75   H     H_    0.529820 0.763115 0.258664 0.111220
H76   H     H_    0.361982 0.340206 0.475067 0.113751
H77   H     H_    0.470189 0.763760 0.741253 0.111150
H78   H     H_    0.637591 0.340002 0.523968 0.113839
H79   H     H_    0.029818 0.263120 0.258657 0.111218
H80   H     H_    0.760956 0.425140 0.146035 0.089599
H81   H     H_    0.861973 0.840210 0.475037 0.113736
H82   H     H_    0.970191 0.263756 0.741250 0.111151
H83   H     H_    0.137577 0.839998 0.523924 0.113848
H84   H     H_    0.244971 0.644382 0.227037 0.254291
H85   H     H_    0.285128 0.739510 0.281974 0.261641
H86   H     H_    0.212726 0.711864 0.258337 0.253376
H87   H     H_    0.170580 0.800989 0.110540 0.185239
H88   H     H_    0.129341 0.706778 0.056266 0.194132
H89   H     H_    0.692393 0.234625 0.761035 0.265671
H90   H     H_    0.732888 0.324552 0.837865 0.248636
H91   H     H_    0.215613 0.545269 0.881765 0.091856
H92   H     H_    0.774413 0.268038 0.814667 0.261789
H93   H     H_    0.841167 0.246426 0.003266 0.191542
H94   H     H_    0.793764 0.158806 0.927355 0.183398
H95   H     H_    0.757081 0.643987 0.775274 0.254389
H96   H     H_    0.716785 0.738923 0.719777 0.261713
H97   H     H_    0.790029 0.711463 0.745344 0.253261
H98   H     H_    0.830679 0.800967 0.892116 0.185225
H99   H     H_    0.872027 0.706925 0.946993 0.194174
H100  H     H_    0.305067 0.234563 0.236314 0.265654
H101  H     H_    0.264912 0.324645 0.160234 0.248759
H102  H     H_    0.783961 0.931259 0.445493 0.126456
H103  H     H_    0.222885 0.267948 0.182268 0.261773
H104  H     H_    0.156766 0.246946 0.993631 0.191691
H105  H     H_    0.203662 0.159110 0.068950 0.183292
H106  H     H_    0.744910 0.144451 0.226999 0.254296
H107  H     H_    0.785046 0.239589 0.281916 0.261642
H108  H     H_    0.712623 0.211940 0.258223 0.253371
H109  H     H_    0.670513 0.301040 0.110425 0.185235
H110  H     H_    0.629284 0.206822 0.056172 0.194134
H111  H     H_    0.192293 0.734790 0.760967 0.265659
H112  H     H_    0.232898 0.824669 0.837900 0.248624
N1    N     N_R   0.625380 0.928280 0.709340 -0.033839
N2    N     N_R   0.613900 0.929750 0.547530 -0.040064
N3    N     N_R   0.613900 0.070250 0.547530 -0.037560
N4    N     N_R   0.386100 0.929750 0.452470 -0.040397
N5    N     N_R   0.886100 0.570250 0.452470 -0.037341
N6    N     N_R   0.113900 0.429750 0.547530 -0.040065
N7    N     N_R   0.113900 0.570250 0.547530 -0.037563
N8    N     N_R   0.886100 0.429750 0.452470 -0.040398
N9    N     N_R   0.437800 0.869550 0.507970 -0.041609
N10   N     N_R   0.562200 0.130450 0.492030 -0.036637
N11   N     N_R   0.562200 0.869550 0.492030 -0.041444
N12   N     N_R   0.374620 0.071720 0.290660 -0.038111
N13   N     N_R   0.437800 0.130450 0.507970 -0.036561
N14   N     N_R   0.937800 0.369550 0.507970 -0.041608
N15   N     N_R   0.062200 0.630450 0.492030 -0.036637
N16   N     N_R   0.062200 0.369550 0.492030 -0.041445
N17   N     N_R   0.937800 0.630450 0.507970 -0.036561
N18   N     N_R   0.573690 0.128980 0.653840 -0.043732
N19   N     N_R   0.426310 0.871020 0.346160 -0.036788
N20   N     N_R   0.426310 0.128980 0.346160 -0.043443
N21   N     N_R   0.573690 0.871020 0.653840 -0.036818
N22   N     N_R   0.073690 0.628980 0.653840 -0.043724
N23   N     N_R   0.374620 0.928280 0.290660 -0.033879
N24   N     N_R   0.926310 0.371020 0.346160 -0.036790
N25   N     N_R   0.926310 0.628980 0.346160 -0.043443
N26   N     N_R   0.073690 0.371020 0.653840 -0.036817
N27   N     N_R   0.625380 0.071720 0.709340 -0.038386
N28   N     N_R   0.125380 0.428280 0.709340 -0.033837
N29   N     N_R   0.874620 0.571720 0.290660 -0.038117
N30   N     N_R   0.874620 0.428280 0.290660 -0.033882
N31   N     N_R   0.125380 0.571720 0.709340 -0.038370
N32   N     N_R   0.386100 0.070250 0.452470 -0.037342
Ni1   Ni    Ni4+2 0.616560 0.000000 0.627280 0.212130
Ni2   Ni    Ni4+2 0.383440 1.000000 0.372720 0.212166
Ni3   Ni    Ni4+2 0.116560 0.500000 0.627280 0.212133
Ni4   Ni    Ni4+2 0.883440 0.500000 0.372720 0.212165
Ni5   Ni    Ni4+2 0.497990 0.870580 0.500000 0.207858
Ni6   Ni    Ni4+2 0.502010 0.129420 0.500000 0.202301
Ni7   Ni    Ni4+2 0.997990 0.370580 0.500000 0.207858
Ni8   Ni    Ni4+2 0.002010 0.629420 0.500000 0.202303

loop_
_geom_bond_atom_site_label_1
_geom_bond_atom_site_label_2
_ccdc_geom_bond_type
C55   H18   S    
N8    N14   A    
C8    C26   S    
C108  C120  A    
C113  N24   A    
C74   C83   A    
C102  C125  A    
C110  C118  A    
C20   C118  S    
C57   C89   A    
C104  C123  A    
C91   C127  A    
C112  C124  A    
C49   N12   A    
C6    C25   S    
C110  H42   S    
C62   C70   A    
C2    H59   S    
C78   H71   S    
N17   Ni8   S    
C31   H95   S    
C34   H110  S    
C71   N27   A    
C3    C19   S    
C115  C124  A    
N31   Ni3   S    
C30   H99   S    
C16   C44   S    
C135  H50   S    
C93   N29   A    
C20   C45   S    
C5    C43   S    
C27   H84   S    
C6    C44   S    
C111  H43   S    
C42   H11   S    
C73   C81   A    
C99   H31   S    
C11   C20   S    
C116  C121  A    
C99   C129  A    
C71   H47   S    
C53   C133  S    
C104  H80   S    
C46   C65   A    
C47   C64   A    
C51   C131  S    
N23   Ni2   S    
C58   C88   A    
N22   N31   A    
C21   C123  S    
C115  H91   S    
C37   C38   S    
C95   H27   S    
C10   C30   S    
C56   C86   A    
C54   C70   A    
N18   N27   A    
C105  N15   A    
C39   H9    S    
C106  N16   A    
C108  N18   A    
C15   C39   S    
C33   H100  S    
N1    Ni1   S    
N7    N15   A    
C26   H88   S    
C48   C129  S    
C52   C77   A    
C28   H94   S    
C54   C132  S    
C19   C44   S    
C54   C79   A    
C16   C25   S    
C107  N17   A    
N24   N30   A    
C12   C134  S    
C36   H107  S    
C94   N4    A    
C9    C28   S    
C41   H15   S    
C72   H82   S    
C8    C17   S    
C63   C84   A    
C92   H24   S    
C51   C78   A    
C96   N6    A    
C2    C22   S    
C11   C13   S    
C126  H57   S    
N13   N32   A    
C101  N11   A    
C48   C67   A    
C58   C67   A    
C83   C86   A    
C5    C21   S    
C126  C134  S    
N7    Ni3   S    
C64   H76   S    
C51   C69   A    
C21   C126  S    
C50   C75   A    
C76   C85   A    
C114  N25   A    
C91   N2    A    
C78   C87   A    
C102  H34   S    
C79   H74   S    
C48   C76   A    
C57   C66   A    
C73   H67   S    
N3    N10   A    
C1    N1    A    
C75   C84   A    
C14   C135  S    
C13   C23   S    
C60   C119  A    
C90   C125  A    
C113  H45   S    
C13   H60   S    
C6    H55   S    
C17   C135  S    
C95   C130  A    
N12   N20   A    
C49   H25   S    
C112  H44   S    
N6    N16   A    
C105  H37   S    
C103  H35   S    
C3    C24   S    
C29   H90   S    
C57   H20   S    
C27   H85   S    
C46   C127  S    
C53   C80   A    
C39   C40   S    
C15   C136  S    
C10   C24   S    
C96   H28   S    
C5    C9    S    
C4    C22   S    
C38   H112  S    
C1    C117  A    
C20   C136  S    
C98   H30   S    
C96   C131  A    
N29   Ni4   S    
C11   C32   S    
C44   H64   S    
N2    Ni1   S    
N2    N11   A    
C1    H1    S    
C85   C88   A    
C95   N5    A    
C100  C128  A    
C58   H21   S    
C2    C135  S    
C111  C117  A    
C36   H106  S    
C14   C22   S    
C68   H81   S    
C61   C81   A    
C7    C23   S    
C116  H48   S    
C101  C127  A    
C18   C134  S    
C34   C36   S    
C60   N23   A    
C55   C87   A    
N27   Ni1   S    
C9    C18   S    
N19   Ni5   S    
C40   H7    S    
C29   H92   S    
C16   C41   S    
C7    H56   S    
C41   C42   S    
C109  N19   A    
C42   H12   S    
C110  N20   A    
C23   C121  S    
N24   Ni7   S    
C31   H97   S    
C98   C133  A    
C26   C27   S    
C37   H5    S    
C28   C29   S    
C59   C83   A    
C30   C31   S    
C99   N9    A    
C90   N32   A    
N3    Ni1   S    
C80   C89   A    
N19   N23   A    
C37   H4    S    
C38   H3    S    
C101  H33   S    
C91   H23   S    
C97   N7    A    
C4    C35   S    
C107  C130  A    
C79   C88   A    
N4    N9    A    
C47   C125  S    
C105  C132  A    
C106  C131  A    
C100  N10   A    
C36   H108  S    
N1    N21   A    
C59   H102  S    
C93   C122  A    
C47   C73   A    
C112  N22   A    
C74   H66   S    
C114  H46   S    
N25   N29   A    
C66   H78   S    
N4    Ni2   S    
N18   Ni6   S    
C113  C123  A    
C10   C19   S    
C31   H96   S    
C34   H109  S    
N9    Ni5   S    
C106  H38   S    
C102  N13   A    
C30   H98   S    
C63   H17   S    
C81   C87   A    
C24   H61   S    
C50   C128  S    
C111  N21   A    
C12   C34   S    
C109  C119  A    
N13   Ni6   S    
C115  N31   A    
N15   Ni8   S    
C2    C8    S    
C70   H83   S    
C97   C132  A    
C6    C10   S    
N10   Ni6   S    
C32   C33   S    
C18   C43   S    
C14   C37   S    
C107  H39   S    
C97   H29   S    
C108  H40   S    
C39   H10   S    
C103  N14   A    
C61   H2    S    
C82   H58   S    
C33   H101  S    
C17   C119  S    
C109  H41   S    
C63   C72   A    
C19   C117  S    
C26   H87   S    
N25   Ni8   S    
N26   Ni7   S    
C17   C35   S    
C53   C72   A    
C28   H93   S    
C80   H73   S    
C62   H13   S    
C40   H6    S    
C32   H105  S    
C69   H79   S    
C29   H89   S    
C4    C8    S    
C93   H69   S    
C3    H52   S    
C98   N8    A    
C41   H16   S    
C7    C11   S    
C71   C120  A    
C7    C45   S    
N21   Ni5   S    
N32   Ni2   S    
C5    H54   S    
C12   C43   S    
C75   H70   S    
C56   C65   A    
N11   Ni5   S    
C25   C122  S    
C94   H26   S    
C82   C121  A    
N26   N28   A    
C52   C68   A    
N5    Ni4   S    
N6    Ni3   S    
C15   C23   S    
N14   Ni7   S    
N30   Ni4   S    
C134  H49   S    
C56   H19   S    
C92   C128  A    
C62   C85   A    
C94   C129  A    
N8    Ni4   S    
C60   H36   S    
C24   C25   S    
C77   H72   S    
C104  N30   A    
C14   C35   S    
C32   H104  S    
N5    N17   A    
C12   C21   S    
C90   H22   S    
C82   N28   A    
C33   H103  S    
C59   C68   A    
C49   C118  A    
C55   C64   A    
C116  N26   A    
C50   C66   A    
C77   C86   A    
C40   H8    S    
C136  H51   S    
C13   C136  S    
C67   H77   S    
C84   C89   A    
C15   C45   S    
C18   C120  S    
C46   C74   A    
C92   N3    A    
C61   C69   A    
C27   H86   S    
N20   Ni6   S    
N16   Ni7   S    
C4    H53   S    
N22   Ni8   S    
N12   Ni2   S    
C76   H68   S    
C22   C124  S    
N28   Ni3   S    
C9    C126  S    
C100  H32   S    
C52   C130  S    
C103  C133  A    
C38   H111  S    
C42   H14   S    
C65   H75   S    
C3    C16   S    
C114  C122  A    
C45   H65   S    
C43   H63   S    
C35   H62   S    
