data_mof_unit_66877.cif
_audit_creation_date              2013-03-05T15:57:23-0500
_audit_creation_method            fapswitch 2.2
_symmetry_space_group_name_H-M    P1
_symmetry_Int_Tables_number       1
_space_group_crystal_system       triclinic
_cell_length_a                    17.112507
_cell_length_b                    18.232847
_cell_length_c                    8.380206
_cell_angle_alpha                 90.0
_cell_angle_beta                  101.79731
_cell_angle_gamma                 90.003225
_cell_volume                      2559.47528032

loop_
_atom_site_label
_atom_site_type_symbol
_atom_site_description
_atom_site_fract_x
_atom_site_fract_y
_atom_site_fract_z
_atom_type_partial_charge
P1    P     P_3+3 0.834140 0.419320 0.003900 0.452438
P2    P     P_3+3 0.834140 0.580680 0.503900 0.452809
P3    P     P_3+3 0.334140 0.919320 0.003900 0.452201
P4    P     P_3+3 0.334140 0.080680 0.503900 0.453084
O1    O     O_2   0.841960 0.394640 0.833410 -0.367737
O2    O     O_2   0.841960 0.605360 0.333410 -0.368742
O3    O     O_2   0.341960 0.894640 0.833410 -0.366445
O4    O     O_2   0.341960 0.105360 0.333410 -0.369939
O5    O     O_3   0.907950 0.463080 0.102990 -0.397133
O6    O     O_3   0.907950 0.536920 0.602990 -0.396276
O7    O     O_3   0.407950 0.963080 0.102990 -0.398103
O8    O     O_3   0.407950 0.036920 0.602990 -0.395602
O9    O     O_3   0.972780 0.329600 0.629720 -0.379705
O10   O     O_3   0.972780 0.670400 0.129720 -0.380556
O11   O     O_3   0.472780 0.829600 0.629720 -0.379329
O12   O     O_3   0.472780 0.170400 0.129720 -0.381005
O13   O     O_2   0.838949 0.272688 0.690480 -0.376831
O14   O     O_2   0.838854 0.727161 0.190191 -0.376711
O15   O     O_2   0.338665 0.773082 0.689817 -0.376956
O16   O     O_2   0.338997 0.227358 0.190553 -0.376496
O17   O     O_3   0.751045 0.477390 0.969125 -0.580217
O18   O     O_3   0.751070 0.522565 0.469495 -0.580121
O19   O     O_3   0.250974 0.977302 0.968791 -0.580440
O20   O     O_3   0.251113 0.022520 0.469777 -0.579485
O21   O     O_3   0.943088 0.176854 0.639149 -0.524661
O22   O     O_3   0.942919 0.823146 0.139352 -0.525637
O23   O     O_3   0.442634 0.676898 0.640123 -0.525036
O24   O     O_3   0.443167 0.323155 0.138834 -0.525515
H1    H     H_    0.063664 0.198599 0.704867 0.136989
H2    H     H_    0.062991 0.798305 0.199723 0.135473
H3    H     H_    0.563150 0.699523 0.701855 0.135665
H4    H     H_    0.563283 0.298752 0.201082 0.136027
C1    C     C_3   0.041285 0.094567 0.581129 -1.028651
C2    C     C_3   0.042996 0.905729 0.091433 -1.017867
C3    C     C_3   0.540856 0.593582 0.586885 -1.023941
C4    C     C_3   0.543169 0.405254 0.088185 -1.020265
H5    H     H_    0.602681 0.589113 0.565739 0.248412
H6    H     H_    0.605370 0.408867 0.068860 0.247869
H7    H     H_    0.103387 0.090581 0.561313 0.249506
H8    H     H_    0.105115 0.909581 0.071626 0.247294
H9    H     H_    0.035597 0.062508 0.690657 0.274421
H10   H     H_    0.038323 0.934696 0.205414 0.273099
H11   H     H_    0.536024 0.563430 0.699361 0.273815
H12   H     H_    0.538131 0.435289 0.200650 0.274013
P5    P     P_3+3 0.165830 0.418670 0.685610 0.451496
P6    P     P_3+3 0.165830 0.581330 0.185610 0.452172
P7    P     P_3+3 0.665830 0.918670 0.685610 0.452310
P8    P     P_3+3 0.665830 0.081330 0.185610 0.451302
P9    P     P_3+3 0.100004 0.261604 0.109880 0.447317
P10   P     P_3+3 0.099993 0.738416 0.609895 0.448310
P11   P     P_3+3 0.600119 0.761697 0.109856 0.448340
P12   P     P_3+3 0.599896 0.238492 0.609965 0.447827
O25   O     O_2   0.157990 0.394030 0.856030 -0.366786
O26   O     O_2   0.157990 0.605970 0.356030 -0.369259
O27   O     O_2   0.657990 0.894030 0.856030 -0.369281
O28   O     O_2   0.657990 0.105970 0.356030 -0.366823
O29   O     O_3   0.027110 0.329490 0.059550 -0.378908
O30   O     O_3   0.027110 0.670510 0.559550 -0.379939
O31   O     O_3   0.527110 0.829490 0.059550 -0.378979
O32   O     O_3   0.527110 0.170510 0.559550 -0.379630
O33   O     O_2   0.160921 0.272499 0.999022 -0.377369
O34   O     O_2   0.160818 0.727745 0.498733 -0.376364
O35   O     O_2   0.661118 0.772677 0.999219 -0.376126
O36   O     O_2   0.660564 0.228031 0.498368 -0.378092
O37   O     O_3   0.249061 0.476619 0.721221 -0.580432
O38   O     O_3   0.249050 0.523370 0.220513 -0.580121
O39   O     O_3   0.749006 0.976694 0.720368 -0.580281
O40   O     O_3   0.749094 0.023423 0.221338 -0.581036
O41   O     O_3   0.056583 0.176730 0.049032 -0.525468
O42   O     O_3   0.056430 0.823346 0.550027 -0.525355
O43   O     O_3   0.556813 0.676797 0.048911 -0.525034
O44   O     O_3   0.556172 0.323414 0.550604 -0.525654
C5    C     C_3   0.980934 0.173438 0.089834 0.472488
C6    C     C_3   0.980197 0.825989 0.588169 0.473274
C7    C     C_3   0.481159 0.673244 0.089680 0.473550
C8    C     C_3   0.479748 0.325568 0.587848 0.472208
H13   H     H_    0.936275 0.201315 0.993885 0.133030
H14   H     H_    0.935958 0.800742 0.487515 0.135449
H15   H     H_    0.436032 0.698693 0.990813 0.133621
H16   H     H_    0.436094 0.298926 0.488254 0.135770
H17   H     H_    0.979988 0.198981 0.209917 0.021451
H18   H     H_    0.977396 0.797470 0.704105 0.023800
H19   H     H_    0.479084 0.701018 0.206827 0.022600
H20   H     H_    0.477365 0.298113 0.705188 0.023353
C9    C     C_3   0.957694 0.093411 0.099420 -1.016356
C10   C     C_3   0.958057 0.905741 0.606892 -1.025757
C11   C     C_3   0.459941 0.593162 0.107141 -1.025672
C12   C     C_3   0.456124 0.405210 0.602224 -1.019295
H21   H     H_    0.463878 0.562792 0.994443 0.273342
H22   H     H_    0.393883 0.408663 0.621366 0.248105
H23   H     H_    0.960711 0.065138 0.983630 0.273021
H24   H     H_    0.895998 0.909707 0.626923 0.249361
H25   H     H_    0.000210 0.065850 0.199038 0.263689
H26   H     H_    0.963406 0.937103 0.496278 0.274482
H27   H     H_    0.503040 0.568154 0.209544 0.264553
H28   H     H_    0.461231 0.435553 0.490176 0.273660
C13   C     C_3   0.229897 0.455954 0.282384 0.366858
C14   C     C_3   0.229290 0.544542 0.779753 0.365204
C15   C     C_3   0.729397 0.955512 0.280025 0.365465
C16   C     C_3   0.730048 0.043841 0.783741 0.367660
H29   H     H_    0.231411 0.462326 0.413915 0.113016
H30   H     H_    0.227924 0.538822 0.910258 0.113670
H31   H     H_    0.728334 0.961226 0.410633 0.114258
H32   H     H_    0.732698 0.037107 0.915572 0.113793
C17   C     C_3   0.292483 0.400139 0.258909 -0.861758
C18   C     C_3   0.293554 0.599439 0.760927 -0.858925
C19   C     C_3   0.793495 0.900557 0.260585 -0.862026
C20   C     C_3   0.791898 0.100136 0.758701 -0.862134
H33   H     H_    0.352605 0.425319 0.285396 0.271356
H34   H     H_    0.353339 0.573952 0.795716 0.269039
H35   H     H_    0.853302 0.925998 0.294473 0.269749
H36   H     H_    0.852022 0.075009 0.780676 0.272386
H37   H     H_    0.291961 0.352486 0.340717 0.217953
H38   H     H_    0.291083 0.648108 0.838936 0.218600
H39   H     H_    0.791250 0.851979 0.338895 0.218853
H40   H     H_    0.792553 0.147072 0.842960 0.217665
H41   H     H_    0.280101 0.380966 0.130902 0.273900
H42   H     H_    0.284815 0.617062 0.631980 0.272795
H43   H     H_    0.784346 0.882799 0.131781 0.273236
H44   H     H_    0.777771 0.120395 0.631561 0.273760
Ba1   Ba    Ba6+2 0.000000 0.447380 0.844850 1.537873
Ba2   Ba    Ba6+2 0.000000 0.552620 0.344850 1.537755
Ba3   Ba    Ba6+2 0.500000 0.947380 0.844850 1.538030
Ba4   Ba    Ba6+2 0.500000 0.052620 0.344850 1.537667
C21   C     C_3   0.770664 0.545052 0.909298 0.366563
C22   C     C_3   0.770377 0.455190 0.407859 0.367163
C23   C     C_3   0.270844 0.045280 0.910915 0.365874
C24   C     C_3   0.270256 0.955324 0.407060 0.367582
H45   H     H_    0.771273 0.538945 0.778581 0.113450
H46   H     H_    0.769474 0.461669 0.276592 0.113231
H47   H     H_    0.273159 0.039588 0.780891 0.113396
H48   H     H_    0.268385 0.962005 0.275484 0.112462
H49   H     H_    0.828957 0.566566 0.976189 0.126972
H50   H     H_    0.829282 0.433902 0.472059 0.125549
H51   H     H_    0.328388 0.067073 0.980790 0.128475
H52   H     H_    0.329535 0.934214 0.469536 0.124881
C25   C     C_3   0.706808 0.600236 0.928875 -0.860460
C26   C     C_3   0.707399 0.399487 0.429834 -0.861326
C27   C     C_3   0.205953 0.099829 0.927698 -0.860880
C28   C     C_3   0.207898 0.899281 0.430607 -0.860630
H53   H     H_    0.647006 0.574571 0.898265 0.270664
H54   H     H_    0.647428 0.424993 0.403942 0.271670
H55   H     H_    0.146421 0.074060 0.891345 0.269257
H56   H     H_    0.147860 0.924629 0.407246 0.272278
H57   H     H_    0.708136 0.648117 0.848108 0.217925
H58   H     H_    0.707604 0.352236 0.346803 0.217629
H59   H     H_    0.208645 0.148501 0.849937 0.218553
H60   H     H_    0.207514 0.852303 0.346577 0.217343
H61   H     H_    0.717033 0.619121 0.056994 0.273325
H62   H     H_    0.719633 0.379655 0.557349 0.273685
H63   H     H_    0.213739 0.117473 0.056379 0.273074
H64   H     H_    0.221259 0.879066 0.557805 0.274165
O45   O     O_3   0.092100 0.536880 0.086720 -0.396148
O46   O     O_3   0.092100 0.463120 0.586720 -0.397854
O47   O     O_3   0.592100 0.036880 0.086720 -0.397758
O48   O     O_3   0.592100 0.963120 0.586720 -0.395603
P13   P     P_3+3 0.899727 0.738105 0.079228 0.447118
P14   P     P_3+3 0.899746 0.261874 0.579299 0.449292
P15   P     P_3+3 0.399761 0.238130 0.079273 0.447298
P16   P     P_3+3 0.399665 0.761939 0.579235 0.448363
C29   C     C_3   0.019650 0.174253 0.602490 0.474051
C30   C     C_3   0.019241 0.825886 0.101765 0.473068
C31   C     C_3   0.518871 0.673605 0.602223 0.474131
C32   C     C_3   0.519615 0.325538 0.101725 0.473163
H65   H     H_    0.023353 0.203668 0.488028 0.023890
H66   H     H_    0.021277 0.799715 0.982892 0.022259
H67   H     H_    0.521655 0.701098 0.485118 0.022375
H68   H     H_    0.522038 0.298360 0.984098 0.023030
H69   H     H_    0.498831 0.568127 0.483532 0.264373
H70   H     H_    0.502243 0.431446 0.984281 0.262854
H71   H     H_    0.999681 0.070828 0.474807 0.264159
H72   H     H_    0.001923 0.932870 0.989076 0.263804
H73   H     H_    0.398578 0.588430 0.130965 0.249529
H74   H     H_    0.496962 0.431222 0.706513 0.262853
H75   H     H_    0.896278 0.089120 0.123225 0.247554
H76   H     H_    0.999600 0.930274 0.712182 0.263055
C33   C     C_R   0.135990 0.678101 0.923108 -0.524109
C34   C     C_R   0.135959 0.321809 0.423255 -0.521113
C35   C     C_R   0.635923 0.178203 0.923304 -0.521959
C36   C     C_R   0.635972 0.821862 0.423182 -0.522506
C37   C     C_R   0.864060 0.322191 0.265869 -0.522528
C38   C     C_R   0.863955 0.677738 0.765930 -0.523034
C39   C     C_R   0.364124 0.822112 0.265680 -0.520839
C40   C     C_R   0.363863 0.177640 0.766112 -0.524710
C41   C     C_R   0.792370 0.211158 0.299330 -0.191945
C42   C     C_R   0.792317 0.788807 0.799315 -0.191306
C43   C     C_R   0.292304 0.711182 0.299287 -0.191434
C44   C     C_R   0.292376 0.288824 0.799305 -0.191691
C45   C     C_R   0.848951 0.264221 0.363150 0.215384
C46   C     C_R   0.848902 0.735748 0.863132 0.215094
C47   C     C_R   0.348984 0.764175 0.363005 0.214343
C48   C     C_R   0.348871 0.235704 0.863228 0.215391
C49   C     C_R   0.817468 0.332907 0.110116 0.279414
C50   C     C_R   0.817411 0.667060 0.610132 0.280211
C51   C     C_R   0.317451 0.832893 0.110035 0.279466
C52   C     C_R   0.317416 0.167040 0.610189 0.280672
C53   C     C_R   0.756003 0.281436 0.046770 -0.081456
C54   C     C_R   0.755923 0.718515 0.546798 -0.080889
C55   C     C_R   0.255920 0.781470 0.046757 -0.081783
C56   C     C_R   0.255989 0.218538 0.546774 -0.080600
C57   C     C_R   0.243863 0.719073 0.142297 -0.080259
C58   C     C_R   0.243928 0.280929 0.642325 -0.081797
C59   C     C_R   0.743936 0.219049 0.142331 -0.081005
C60   C     C_R   0.743867 0.780912 0.642337 -0.081160
C61   C     C_R   0.182426 0.667593 0.079016 0.279742
C62   C     C_R   0.182482 0.332398 0.579055 0.278207
C63   C     C_R   0.682465 0.167601 0.079080 0.277667
C64   C     C_R   0.682434 0.832395 0.579047 0.279702
C65   C     C_R   0.150921 0.736174 0.825945 0.216180
C66   C     C_R   0.150948 0.263798 0.325974 0.215595
C67   C     C_R   0.650991 0.236156 0.825953 0.217628
C68   C     C_R   0.650907 0.763799 0.326004 0.214934
C69   C     C_R   0.207403 0.789365 0.889827 -0.191850
C70   C     C_R   0.207554 0.210698 0.389730 -0.191476
C71   C     C_R   0.707553 0.289286 0.889757 -0.191018
C72   C     C_R   0.707438 0.710644 0.389825 -0.192013
H77   H     H_    0.285955 0.665108 0.375674 0.182172
H78   H     H_    0.286174 0.335009 0.875497 0.183147
H79   H     H_    0.786111 0.165020 0.375628 0.183230
H80   H     H_    0.786044 0.834937 0.875608 0.182298
H81   H     H_    0.713776 0.335465 0.813569 0.182190
H82   H     H_    0.713696 0.664484 0.313606 0.181821
H83   H     H_    0.213583 0.835583 0.813700 0.182773
H84   H     H_    0.213863 0.164579 0.313434 0.181397
H85   H     H_    0.090789 0.638232 0.872824 0.173513
H86   H     H_    0.090587 0.361550 0.373168 0.173142
H87   H     H_    0.590454 0.138530 0.873314 0.173396
H88   H     H_    0.590765 0.861721 0.372909 0.173159
H89   H     H_    0.909482 0.361870 0.316065 0.173513
H90   H     H_    0.909307 0.638011 0.816208 0.173594
H91   H     H_    0.409626 0.861734 0.315793 0.173349
H92   H     H_    0.409093 0.137826 0.816528 0.173756
H93   H     H_    0.170785 0.434731 0.219260 0.125334
H94   H     H_    0.171320 0.566176 0.711499 0.127619
H95   H     H_    0.671312 0.933935 0.212279 0.127496
H96   H     H_    0.670494 0.064851 0.722744 0.123943

loop_
_geom_bond_atom_site_label_1
_geom_bond_atom_site_label_2
_geom_bond_distance
_ccdc_geom_bond_type
P6    C61   1.859054 S    
C15   H31   1.103318 S    
C12   H28   1.108579 S    
P1    O17   1.748910 S    
P5    C62   1.859291 S    
O10   Ba2   2.781281 S    
O1    Ba1   2.853361 S    
C20   H44   1.106690 S    
P3    O19   1.748886 S    
O7    Ba4   2.819369 S    
C2    H10   1.108579 S    
C16   H96   1.110710 S    
P8    O28   1.528990 D    
P4    O4    1.529665 D    
O6    Ba1   2.819471 S    
C54   C72   1.411788 A    
C28   H60   1.108015 S    
C9    H23   1.109255 S    
C54   C60   1.430185 A    
C12   H74   1.107861 S    
Ba3   Ba4   4.608562 S    
C70   H84   1.075062 S    
Ba3   O47   2.819348 S    
C26   H62   1.106801 S    
C34   C66   1.390926 A    
C1    H7    1.111043 S    
O11   Ba3   2.781241 S    
P7    C64   1.859152 S    
C18   H38   1.108104 S    
C29   H65   1.112018 S    
P1    O1    1.529668 D    
O15   P16   1.544435 D    
O28   Ba4   2.856671 S    
O38   C13   1.398784 S    
C25   H57   1.107729 S    
C3    H5    1.110880 S    
C23   H51   1.111133 S    
O37   C14   1.398820 S    
P6    O38   1.749360 S    
P3    O3    1.529668 D    
C24   H52   1.110928 S    
C43   H77   1.075033 S    
P4    O20   1.748897 S    
O18   C22   1.398162 S    
P7    O48   1.583692 S    
C22   H46   1.103332 S    
C33   C61   1.396665 A    
C21   H49   1.111071 S    
C35   C67   1.390876 A    
C16   H32   1.103255 S    
P9    O29   1.746716 S    
P4    Ba4   3.411919 S    
O22   P13   1.746992 S    
O32   Ba4   2.780513 S    
C33   C65   1.390846 A    
C36   C68   1.390816 A    
P13   C46   1.842206 S    
C17   H33   1.106842 S    
C10   H26   1.108748 S    
O23   C31   1.405675 S    
C30   H66   1.111527 S    
P5    O37   1.749299 S    
C9    H25   1.109269 S    
P11   C68   1.842315 S    
C38   H90   1.082056 S    
C10   H24   1.110899 S    
C60   C64   1.428188 A    
P10   C65   1.842291 S    
O21   C29   1.406332 S    
O16   P15   1.544652 D    
C11   H27   1.108844 S    
P9    C66   1.842685 S    
P2    O18   1.748959 S    
P12   C67   1.842662 S    
C39   C51   1.397099 A    
C40   C48   1.390818 A    
O41   C5    1.406184 S    
C38   C50   1.397028 A    
P4    O8    1.578843 S    
C3    H11   1.108771 S    
C8    C12   1.518725 S    
C43   C47   1.395568 A    
C53   C71   1.411800 A    
C52   C56   1.428530 A    
C13   C17   1.519108 S    
C33   H85   1.082092 S    
C28   H56   1.106925 S    
O26   Ba2   2.856671 S    
P7    O27   1.528985 D    
P5    O25   1.528985 D    
P9    O41   1.746946 S    
C18   H42   1.107809 S    
O12   P15   1.746209 S    
Ba2   O46   2.819451 S    
C17   H41   1.106751 S    
P2    O2    1.529665 D    
P11   O43   1.746808 S    
C6    H18   1.111604 S    
C24   H48   1.103285 S    
C19   H43   1.106959 S    
P3    Ba3   3.411871 S    
C51   C55   1.428482 A    
Ba3   O48   2.939337 S    
P2    Ba2   3.411919 S    
O31   Ba3   2.780553 S    
H4    C32   1.111685 S    
C11   H73   1.111624 S    
H3    C31   1.111692 S    
C8    H20   1.111574 S    
O30   Ba2   2.780513 S    
C16   C20   1.519374 S    
Ba1   O46   2.939337 S    
O10   P13   1.746301 S    
C42   C60   1.411632 A    
P10   O30   1.746745 S    
C68   C72   1.396335 A    
C32   H68   1.111606 S    
C2    H72   1.108243 S    
P11   O35   1.544349 D    
C40   H92   1.082075 S    
C26   H54   1.107042 S    
P14   C45   1.842463 S    
C37   H89   1.082031 S    
O20   C24   1.398225 S    
C37   C45   1.390954 A    
O4    Ba4   2.853463 S    
P5    Ba1   3.414142 S    
O23   P16   1.746965 S    
C40   C52   1.397060 A    
C42   H80   1.075073 S    
O22   C30   1.405601 S    
O24   P15   1.747102 S    
P3    C51   1.860011 S    
C20   H36   1.106765 S    
P2    C50   1.859906 S    
C3    C31   1.518786 S    
C42   C46   1.395670 A    
C1    C29   1.518950 S    
O42   C6    1.405998 S    
P12   O44   1.747202 S    
C14   H30   1.103615 S    
C27   H63   1.106970 S    
O9    Ba1   2.781241 S    
P7    Ba3   3.414142 S    
C14   H94   1.111252 S    
C35   C63   1.396689 A    
C31   H67   1.111641 S    
C13   H93   1.110833 S    
P6    O26   1.528990 D    
O5    Ba2   2.819369 S    
C25   H53   1.106638 S    
P1    O5    1.578771 S    
O44   C8    1.405770 S    
P7    O39   1.749377 S    
C6    C10   1.518857 S    
O13   P14   1.544594 D    
C5    C9    1.518756 S    
Ba1   Ba2   4.608562 S    
Ba1   O45   2.819348 S    
O39   C16   1.398810 S    
C5    H17   1.111980 S    
C56   C70   1.411876 A    
C27   H59   1.107510 S    
C7    C11   1.518829 S    
C25   H61   1.106847 S    
P8    O47   1.583619 S    
C12   H22   1.110849 S    
C15   H95   1.110973 S    
Ba4   O48   2.819451 S    
C53   C59   1.430190 A    
P12   O36   1.544618 D    
P10   O34   1.544536 D    
Ba2   O45   2.939355 S    
C2    H8    1.111120 S    
C4    H12   1.108521 S    
P11   O31   1.746792 S    
O2    Ba2   2.853463 S    
O17   C21   1.398145 S    
C1    H71   1.108452 S    
O27   Ba3   2.856776 S    
C39   H91   1.082024 S    
O9    P14   1.746207 S    
C37   C49   1.397141 A    
O24   C32   1.405825 S    
C55   C57   1.430172 A    
C18   H34   1.107113 S    
C17   H37   1.107932 S    
P4    C52   1.859812 S    
P6    O45   1.583619 S    
C28   H64   1.106675 S    
C22   C26   1.519168 S    
C57   C61   1.428103 A    
C41   H79   1.075151 S    
P1    Ba1   3.411871 S    
C58   C62   1.428137 A    
C55   C69   1.411765 A    
C19   H35   1.106514 S    
P15   C48   1.842161 S    
C8    H16   1.111583 S    
P16   C47   1.842485 S    
O3    Ba3   2.853361 S    
C2    C30   1.518659 S    
C39   C47   1.390903 A    
P8    Ba4   3.414093 S    
C41   C45   1.395603 A    
C44   H78   1.075072 S    
H2    C30   1.111775 S    
C15   C19   1.518830 S    
C43   C57   1.411649 A    
O19   C23   1.398007 S    
C4    H70   1.107885 S    
C14   C18   1.518866 S    
P8    O40   1.749370 S    
C65   C69   1.396321 A    
C44   C48   1.395713 A    
C21   C25   1.518813 S    
C20   H40   1.108071 S    
C23   H47   1.103302 S    
C4    H6    1.110863 S    
C67   C71   1.396220 A    
O12   Ba4   2.781281 S    
O40   C15   1.398722 S    
C1    H9    1.109122 S    
O11   P16   1.746351 S    
O14   P13   1.544576 D    
O25   Ba1   2.856776 S    
C41   C59   1.411665 A    
O43   C7    1.406353 S    
C69   H83   1.075116 S    
P9    O33   1.544400 D    
C7    H19   1.111637 S    
C50   C54   1.428563 A    
O8    Ba3   2.819471 S    
C59   C63   1.428050 A    
C26   H58   1.107874 S    
C49   C53   1.428429 A    
C34   C62   1.396677 A    
P8    C63   1.859062 S    
C44   C58   1.411626 A    
C9    H75   1.111848 S    
C3    H69   1.108158 S    
C36   H88   1.082092 S    
C19   H39   1.107665 S    
C10   H76   1.107918 S    
C35   H87   1.082036 S    
C72   H82   1.075069 S    
P10   O42   1.747158 S    
C34   H86   1.082056 S    
P3    O7    1.578771 S    
O29   Ba1   2.780553 S    
C21   H45   1.103248 S    
C22   H50   1.111076 S    
P12   O32   1.746681 S    
C6    H14   1.111468 S    
Ba4   O47   2.939355 S    
O21   P14   1.747185 S    
C4    C32   1.518708 S    
C11   H21   1.108658 S    
C5    H13   1.112521 S    
P1    C49   1.860065 S    
P6    Ba2   3.414093 S    
C27   H55   1.106543 S    
P5    O46   1.583692 S    
C38   C46   1.390826 A    
H1    C29   1.111813 S    
C66   C70   1.396281 A    
C36   C64   1.396604 A    
C7    H15   1.112001 S    
C23   C27   1.518568 S    
C56   C58   1.430187 A    
C13   H29   1.103382 S    
C71   H81   1.075036 S    
C24   C28   1.519121 S    
P2    O6    1.578843 S    
