data_mof_unit_51764.cif
_audit_creation_date              2012-12-10T20:28:42-0500
_audit_creation_method            fapswitch 2.2
_symmetry_space_group_name_H-M    P1
_symmetry_Int_Tables_number       1
_space_group_crystal_system       triclinic
_cell_length_a                    10.624678
_cell_length_b                    10.656813
_cell_length_c                    9.867456
_cell_angle_alpha                 89.95979
_cell_angle_beta                  90.113241
_cell_angle_gamma                 90.307773
_cell_volume                      1117.22617674

loop_
_atom_site_label
_atom_site_type_symbol
_atom_type_description
_atom_site_fract_x
_atom_site_fract_y
_atom_site_fract_z
_atom_type_partial_charge
C1    C     C_R   0.504087 0.259914 0.500121 0.851476
C2    C     C_R   0.550074 0.935504 0.378805 -0.242124
C3    C     C_R   0.527509 0.871306 0.500521 -0.064484
C4    C     C_R   0.260483 0.496970 0.499894 0.888428
C5    C     C_R   0.529713 0.936052 0.623060 0.040595
C6    C     C_3   0.445300 0.927390 0.744003 0.337720
C7    C     C_3   0.444765 0.070037 0.743999 -0.543594
C8    C     C_R   0.438786 0.407440 0.071168 0.212067
C9    C     C_R   0.569239 0.584997 0.072036 -0.135481
C10   C     C_R   0.569208 0.585039 0.928066 -0.142707
C11   C     C_R   0.438788 0.407423 0.928642 0.213010
C12   C     C_R   0.065420 0.386210 0.559924 0.096116
C13   C     C_3   0.301473 0.378192 0.922880 -0.511146
C14   C     C_3   0.301548 0.378220 0.076726 -0.502093
C15   C     C_R   0.505111 0.739999 0.499953 0.920595
C16   C     C_R   0.739498 0.497095 0.500109 0.853525
C17   C     C_R   0.130230 0.282733 0.615848 -0.196995
C18   C     C_R   0.064206 0.182489 0.673178 -0.141146
C19   C     C_R   0.933234 0.182857 0.674176 -0.133600
C20   C     C_R   0.867893 0.283442 0.617860 -0.176809
C21   C     C_R   0.933551 0.386484 0.560631 0.095668
C22   C     C_3   0.263424 0.836474 0.826675 0.113831
C23   C     C_R   0.128226 0.488696 0.499353 -0.115168
C24   C     C_3   0.135581 0.782638 0.787448 -0.819238
C25   C     C_R   0.064661 0.586309 0.436191 -0.214989
C26   C     C_R   0.936068 0.586460 0.436528 -0.213867
C27   C     C_R   0.871666 0.489054 0.500140 -0.088140
C28   C     C_R   0.529589 0.063940 0.623304 0.041636
C29   C     C_R   0.526073 0.128765 0.500779 -0.061048
C30   C     C_R   0.549219 0.065232 0.378914 -0.215236
H1    H     H_    0.114972 0.663654 0.389089 0.158449
H2    H     H_    0.282760 0.284120 0.121200 0.201040
H3    H     H_    0.231730 0.277606 0.614027 0.140549
H4    H     H_    0.114684 0.103805 0.715827 0.148083
H5    H     H_    0.882061 0.104448 0.717508 0.131541
H6    H     H_    0.766266 0.278662 0.618087 0.146062
H7    H     H_    0.886421 0.663821 0.389437 0.145688
H8    H     H_    0.557224 0.114426 0.283169 0.166103
H9    H     H_    0.558600 0.886643 0.283038 0.159839
H10   H     H_    0.248713 0.917103 0.896586 0.126144
H11   H     H_    0.317271 0.761531 0.879700 0.145637
H12   H     H_    0.494502 0.883835 0.832204 0.039923
H13   H     H_    0.147823 0.700726 0.719305 0.268672
H14   H     H_    0.084504 0.751635 0.879760 0.201135
H15   H     H_    0.078868 0.854996 0.734518 0.246282
H16   H     H_    0.351667 0.111324 0.719926 0.206575
H17   H     H_    0.492881 0.111227 0.833797 0.164260
H18   H     H_    0.623224 0.655136 0.126401 0.140466
H19   H     H_    0.623103 0.655237 0.873815 0.140981
H20   H     H_    0.245327 0.455734 0.878197 0.227644
H21   H     H_    0.282439 0.284012 0.879047 0.196424
H22   H     H_    0.245526 0.455884 0.120945 0.224558
N1    N     N_R   0.499160 0.499140 0.142800 -0.105210
N2    N     N_R   0.499160 0.499180 0.857150 -0.104987
O1    O     O_R   0.500020 0.316790 0.614690 -0.624447
O2    O     O_R   0.500000 0.316760 0.385350 -0.622608
O3    O     O_R   0.316770 0.500020 0.614690 -0.618906
O4    O     O_R   0.316760 0.499980 0.385350 -0.614884
O5    O     O_R   0.500000 0.683240 0.614650 -0.605600
O6    O     O_R   0.499980 0.683210 0.385310 -0.637088
O7    O     O_R   0.683240 0.500020 0.614650 -0.624711
O8    O     O_R   0.683230 0.499980 0.385310 -0.615266
O9    O     O_3   0.326830 0.875738 0.708535 -0.581563
Zn1   Zn    Zn3+2 0.500010 0.500020 0.653130 0.943197
Zn2   Zn    Zn3+2 0.499990 0.499980 0.346870 0.939214

loop_
_geom_bond_atom_site_label_1
_geom_bond_atom_site_label_2
_ccdc_geom_bond_type
C8    N1    A    
C6    O9    S    
O7    Zn1   S    
C26   H7    S    
C25   H1    S    
C6    C7    S    
C5    C28   A    
C11   C13   S    
C15   O6    A    
O4    Zn2   S    
C19   C20   A    
C2    C30   A    
C22   H10   S    
O1    Zn1   S    
C16   C27   S    
C1    C29   S    
C17   C18   A    
C21   C27   A    
C3    C15   S    
C19   H5    S    
C13   C14   S    
C12   C17   A    
C18   H4    S    
C12   C23   A    
O5    Zn1   S    
C29   C30   A    
C11   N2    A    
C17   H3    S    
O3    Zn1   S    
C8    C11   A    
C10   N2    A    
C24   H15   S    
C12   C21   A    
C9    C10   A    
C28   C29   A    
C1    O2    A    
O6    Zn2   S    
C1    O1    A    
C2    C3    A    
C23   C25   A    
C26   C27   A    
C5    C6    S    
C24   H14   S    
C22   C24   S    
C22   H11   S    
C9    N1    A    
C16   O7    A    
N2    Zn1   S    
O2    Zn2   S    
C20   H6    S    
C7    H16   S    
N1    Zn2   S    
C20   C21   A    
C30   H8    S    
C9    H18   S    
C22   O9    S    
C18   C19   A    
C6    H12   S    
C4    O4    A    
C24   H13   S    
C4    C23   S    
C8    C14   S    
O8    Zn2   S    
C25   C26   A    
C13   H21   S    
C10   H19   S    
C15   O5    A    
C2    H9    S    
C16   O8    A    
C14   H22   S    
C7    C28   S    
C13   H20   S    
C4    O3    A    
C14   H2    S    
C3    C5    A    
C7    H17   S    
