data_mof_unit_19636.cif
_audit_creation_date              2012-12-11T17:01:25-0500
_audit_creation_method            fapswitch 2.2
_symmetry_space_group_name_H-M    P1
_symmetry_Int_Tables_number       1
_space_group_crystal_system       triclinic
_cell_length_a                    14.955009
_cell_length_b                    14.848658
_cell_length_c                    14.866932
_cell_angle_alpha                 109.69688
_cell_angle_beta                  109.107509
_cell_angle_gamma                 109.515832
_cell_volume                      2544.27541871

loop_
_atom_site_label
_atom_site_type_symbol
_atom_type_description
_atom_site_fract_x
_atom_site_fract_y
_atom_site_fract_z
_atom_type_partial_charge
C1    C     C_R   0.929894 0.744795 0.023259 -0.150924
C2    C     C_R   0.676384 0.222761 0.673308 0.069907
C3    C     C_R   0.067164 0.501634 0.698498 0.071703
C4    C     C_R   0.699463 0.499858 0.068470 -0.000975
C5    C     C_R   0.067486 0.592998 0.313860 -0.146253
C6    C     C_R   0.222600 0.407560 0.975538 -0.132968
C7    C     C_R   0.293796 0.805852 0.201310 0.493656
C8    C     C_R   0.904300 0.195605 0.994865 -0.159853
C9    C     C_R   0.997158 0.194798 0.905040 -0.136078
C10   C     C_R   0.209156 0.807082 0.299094 -0.219506
C11   C     C_R   0.973237 0.408475 0.223830 -0.126187
C12   C     C_R   0.779770 0.253160 0.686046 -0.145322
C13   C     C_R   0.314027 0.592300 0.068204 -0.131530
C14   C     C_R   0.050759 0.501838 0.326804 0.068748
C15   C     C_R   0.325107 0.499908 0.052749 -0.032948
C16   C     C_R   0.299411 0.871431 0.296669 -0.086129
C17   C     C_R   0.934059 0.131059 0.934093 0.080315
C18   C     C_3   0.536587 0.499322 0.967638 -0.397157
C19   C     C_3   0.433790 0.499505 0.963492 -0.386589
C20   C     C_3   0.531338 0.396693 0.073228 -0.405486
C21   C     C_3   0.633594 0.604281 0.175649 -0.399941
C22   C     C_3   0.602843 0.500048 0.072660 0.396016
C23   C     C_R   0.096679 0.592201 0.792771 -0.149475
C24   C     C_3   0.426960 0.500054 0.065585 0.397683
C25   C     C_3   0.427261 0.396802 0.069300 -0.394497
C26   C     C_3   0.529421 0.603989 0.171853 -0.405915
C27   C     C_R   0.578939 0.112621 0.471461 0.162052
C28   C     C_R   0.576783 0.164036 0.567984 0.042297
C29   C     C_R   0.474789 0.141195 0.561327 -0.215395
C30   C     C_R   0.378744 0.051559 0.465593 -0.179075
C31   C     C_R   0.385405 0.985620 0.377176 0.041072
C32   C     C_R   0.484961 0.024563 0.378059 0.130032
C33   C     C_3   0.543061 0.964506 0.348349 -0.448012
C34   C     C_R   0.700010 0.408284 0.004518 -0.148611
C35   C     C_3   0.646055 0.060815 0.450730 -0.557265
C36   C     C_R   0.155761 0.605299 0.531358 0.164990
C37   C     C_R   0.099803 0.505703 0.431693 0.032557
C38   C     C_R   0.074393 0.407521 0.435954 -0.202287
C39   C     C_R   0.077439 0.407012 0.530920 -0.206067
C40   C     C_R   0.106863 0.504940 0.621374 0.032607
C41   C     C_R   0.159681 0.604807 0.625146 0.161875
C42   C     C_3   0.150171 0.706436 0.663859 -0.524297
C43   C     C_3   0.145133 0.706831 0.561216 -0.525574
C44   C     C_R   0.841142 0.872778 0.945070 0.163579
C45   C     C_R   0.004924 0.409286 0.699406 -0.145745
C46   C     C_R   0.897830 0.829511 0.902773 0.035083
C47   C     C_R   0.924604 0.859935 0.831114 -0.203027
C48   C     C_R   0.922863 0.952678 0.828348 -0.205546
C49   C     C_R   0.893149 0.013571 0.896325 0.031441
C50   C     C_R   0.838384 0.963389 0.941303 0.162032
C51   C     C_3   0.845691 0.010429 0.051408 -0.523308
C52   C     C_3   0.849526 0.912084 0.056191 -0.524613
C53   C     C_R   0.791238 0.591447 0.097109 -0.154124
C54   C     C_R   0.685339 0.248512 0.775970 -0.128474
C55   C     C_R   0.025350 0.750008 0.934629 -0.102544
C56   C     C_R   0.947029 0.774338 0.948996 0.058690
H1    H     H_    0.870842 0.746382 0.048913 0.110661
H2    H     H_    0.201129 0.321927 0.938433 0.093543
H3    H     H_    0.839826 0.167504 0.013522 0.102824
H4    H     H_    0.020357 0.165866 0.844156 0.083004
H5    H     H_    0.179704 0.836348 0.353802 0.119042
H6    H     H_    0.941291 0.323039 0.202835 0.093260
H7    H     H_    0.377121 0.677987 0.117566 0.135292
H8    H     H_    0.513376 0.424856 0.892836 0.155619
H9    H     H_    0.586602 0.573101 0.966036 0.156909
H10   H     H_    0.434441 0.573441 0.959885 0.161325
H11   H     H_    0.803554 0.249027 0.624443 0.112524
H12   H     H_    0.361228 0.425311 0.886378 0.155274
H13   H     H_    0.506057 0.319394 0.000573 0.146966
H14   H     H_    0.355779 0.319243 0.995357 0.146650
H15   H     H_    0.682229 0.606386 0.251976 0.155686
H16   H     H_    0.683834 0.680950 0.178668 0.147864
H17   H     H_    0.534191 0.681198 0.174668 0.150896
H18   H     H_    0.526005 0.604933 0.245795 0.157219
H19   H     H_    0.578407 0.396020 0.148266 0.157194
H20   H     H_    0.423089 0.396637 0.142615 0.158112
H21   H     H_    0.469589 0.183629 0.632931 0.124856
H22   H     H_    0.160629 0.675890 0.829158 0.117895
H23   H     H_    0.302226 0.027406 0.466039 0.124188
H24   H     H_    0.517081 0.886921 0.351982 0.189088
H25   H     H_    0.545501 0.956761 0.272294 0.212736
H26   H     H_    0.679272 0.038210 0.513054 0.206635
H27   H     H_    0.706465 0.107711 0.432715 0.191332
H28   H     H_    0.038750 0.329266 0.362913 0.126691
H29   H     H_    0.043944 0.328331 0.527372 0.124706
H30   H     H_    0.072651 0.691275 0.665109 0.197480
H31   H     H_    0.225618 0.777804 0.740187 0.193411
H32   H     H_    0.064449 0.691637 0.504899 0.199084
H33   H     H_    0.645178 0.322828 0.974581 0.086002
H34   H     H_    0.217329 0.778858 0.578559 0.192050
H35   H     H_    0.960613 0.822724 0.789195 0.125701
H36   H     H_    0.957631 0.983340 0.784421 0.124521
H37   H     H_    0.923056 0.089271 0.115344 0.198676
H38   H     H_    0.769856 0.010967 0.045594 0.190387
H39   H     H_    0.929417 0.936372 0.122950 0.200755
H40   H     H_    0.776280 0.856440 0.053959 0.188557
H41   H     H_    0.982120 0.325099 0.647428 0.085713
H42   H     H_    0.821583 0.676674 0.154005 0.086779
H43   H     H_    0.620708 0.236048 0.796079 0.091765
H44   H     H_    0.057640 0.761239 0.881645 0.092386
H45   H     H_    0.125663 0.678410 0.374448 0.113860
N1    N     N_R   0.995640 0.706130 0.053910 -0.043114
N2    N     N_R   0.153680 0.443190 0.946090 -0.039888
N3    N     N_R   0.208920 0.706140 0.152110 -0.066956
N4    N     N_R   0.947120 0.293870 0.002870 -0.038449
N5    N     N_R   0.004360 0.293870 0.946090 -0.038407
N6    N     N_R   0.151690 0.706140 0.208890 -0.063467
N7    N     N_R   0.945990 0.443210 0.152110 -0.039227
N8    N     N_R   0.210060 0.556810 0.002870 -0.027105
N9    N     N_R   0.848310 0.293860 0.791110 -0.041443
N10   N     N_R   0.054010 0.556790 0.847890 -0.037184
N11   N     N_R   0.789940 0.443190 0.997130 -0.032616
N12   N     N_R   0.997630 0.443170 0.791110 -0.041724
N13   N     N_R   0.846320 0.556810 0.053910 -0.032597
N14   N     N_R   0.791080 0.293860 0.847890 -0.040163
N15   N     N_R   0.052880 0.706130 0.997130 -0.034945
N16   N     N_R   0.002370 0.556830 0.208890 -0.037601
Ni1   Ni    Ni4+2 0.999010 0.630300 0.130220 0.202209
Ni2   Ni    Ni4+2 0.000990 0.369700 0.869780 0.202939
Ni3   Ni    Ni4+2 0.130280 0.630280 0.000000 0.256089
Ni4   Ni    Ni4+2 0.869720 0.369720 0.000000 0.206627
O1    O     O_3   0.335418 0.841191 0.141857 -0.800160
H46   H     H_    0.355136 0.919537 0.168604 0.307425

loop_
_geom_bond_atom_site_label_1
_geom_bond_atom_site_label_2
_ccdc_geom_bond_type
C21   C26   S    
C40   C41   A    
N14   Ni4   S    
N5    Ni2   S    
C34   N11   A    
C41   C42   S    
C6    H2    S    
C3    C23   A    
N7    Ni4   S    
C55   C56   A    
C11   H6    S    
C2    C12   A    
C8    N4    A    
C12   N9    A    
C10   N6    A    
C18   H9    S    
C29   C30   A    
C21   H15   S    
C43   H32   S    
C28   C29   A    
C1    C56   A    
C24   C26   S    
C8    H3    S    
C38   C39   A    
C4    C53   A    
C11   C14   A    
C20   C25   S    
C26   H17   S    
C19   H10   S    
C18   C19   S    
C13   N8    A    
C26   H18   S    
C6    C15   A    
N12   Ni2   S    
C31   C32   A    
C55   H44   S    
C42   H30   S    
N6    Ni1   S    
N1    Ni1   S    
C44   C52   S    
C21   C22   S    
C52   H39   S    
C36   C41   A    
N11   N13   A    
C35   H26   S    
C44   C46   A    
C4    C34   A    
C12   H11   S    
C5    H45   S    
C43   H34   S    
C21   H16   S    
C51   C52   S    
C24   C25   S    
C2    C54   A    
C17   C49   S    
C39   C40   A    
C10   C16   A    
C35   H27   S    
C27   C35   S    
C9    N5    A    
C3    C45   A    
N15   Ni3   S    
C20   H19   S    
C5    N16   A    
N10   Ni3   S    
C16   C31   S    
C55   N15   A    
C37   C38   A    
C1    H1    S    
C4    C22   S    
C47   C48   A    
C13   H7    S    
C54   N14   A    
C50   C51   S    
N4    Ni4   S    
C19   H12   S    
N10   N12   A    
C6    N2    A    
C5    C14   A    
N13   Ni1   S    
C51   H37   S    
C30   H23   S    
C9    C17   A    
C48   C49   A    
C20   C22   S    
C3    C40   S    
C7    N3    A    
C13   C15   A    
C7    C16   A    
C20   H13   S    
C10   H5    S    
C42   C43   S    
C39   H29   S    
C7    O1    S    
C11   N7    A    
C53   N13   A    
C44   C50   A    
C46   C47   A    
C15   C24   S    
C38   H28   S    
C27   C32   A    
C18   C22   S    
C47   H35   S    
N7    N16   A    
N2    Ni2   S    
N9    Ni2   S    
C33   H24   S    
C42   H31   S    
C53   H42   S    
C23   N10   A    
N4    N5    A    
C8    C17   A    
N2    N8    A    
C25   H20   S    
C32   C33   S    
C9    H4    S    
C19   C24   S    
C34   H33   S    
N11   Ni4   S    
C45   H41   S    
N16   Ni1   S    
C14   C37   S    
C18   H8    S    
C30   C31   A    
C1    N1    A    
C33   C35   S    
C52   H40   S    
C23   H22   S    
C54   H43   S    
N1    N15   A    
C51   H38   S    
C45   N12   A    
C29   H21   S    
C36   C37   A    
C49   C50   A    
C48   H36   S    
C46   C56   S    
C27   C28   A    
C36   C43   S    
C2    C28   S    
C25   H14   S    
O1    H46   S    
C33   H25   S    
N9    N14   A    
N3    N6    A    
N8    Ni3   S    
N3    Ni3   S    
