data_mof_unit_64422.cif
_audit_creation_date              2012-12-10T18:40:40-0500
_audit_creation_method            fapswitch 2.2
_symmetry_space_group_name_H-M    P1
_symmetry_Int_Tables_number       1
_space_group_crystal_system       triclinic
_cell_length_a                    21.734134
_cell_length_b                    20.908691
_cell_length_c                    13.984699
_cell_angle_alpha                 90.069764
_cell_angle_beta                  89.999795
_cell_angle_gamma                 89.999881
_cell_volume                      6355.0941079

loop_
_atom_site_label
_atom_site_type_symbol
_atom_type_description
_atom_site_fract_x
_atom_site_fract_y
_atom_site_fract_z
_atom_type_partial_charge
C1    C     C_R   0.084957 0.415060 0.499998 0.858738
C2    C     C_R   0.914596 0.584862 0.499974 0.868028
C3    C     C_R   0.914595 0.415139 0.500026 0.868029
C4    C     C_R   0.084957 0.584940 0.500002 0.858735
C5    C     C_R   0.584666 0.915147 0.499928 0.836987
C6    C     C_R   0.415158 0.085037 0.500064 0.847029
C7    C     C_R   0.415158 0.914964 0.499936 0.847024
C8    C     C_R   0.584665 0.084853 0.500072 0.836992
C9    C     C_R   0.793705 0.300358 0.587995 0.422317
C10   C     C_R   0.225763 0.676799 0.428904 0.429690
C11   C     C_R   0.179818 0.727403 0.569025 0.423094
C12   C     C_R   0.796715 0.296250 0.413926 0.421344
C13   C     C_R   0.179820 0.272597 0.430976 0.423093
C14   C     C_R   0.796687 0.703718 0.586083 0.421351
C15   C     C_R   0.793742 0.699685 0.412008 0.422306
C16   C     C_R   0.225764 0.323202 0.571096 0.429692
C17   C     C_R   0.321923 0.771249 0.567646 0.425331
C18   C     C_R   0.662698 0.243172 0.479569 0.429497
C19   C     C_R   0.738658 0.162235 0.523005 0.438502
C20   C     C_R   0.274365 0.822766 0.429754 0.428820
C21   C     C_R   0.738673 0.837783 0.477115 0.438508
C22   C     C_R   0.274365 0.177235 0.570247 0.428820
C23   C     C_R   0.321925 0.228753 0.432356 0.425331
C24   C     C_R   0.662690 0.756819 0.520329 0.429499
C25   C     C_R   0.840383 0.345928 0.587217 -0.163779
C26   C     C_R   0.178874 0.631478 0.428924 -0.168062
C27   C     C_R   0.134259 0.680682 0.569969 -0.158602
C28   C     C_R   0.842578 0.342647 0.413904 -0.158422
C29   C     C_R   0.134261 0.319319 0.430031 -0.158602
C30   C     C_R   0.842551 0.657322 0.586102 -0.158424
C31   C     C_R   0.840418 0.654113 0.412784 -0.163767
C32   C     C_R   0.178874 0.368524 0.571075 -0.168064
C33   C     C_R   0.367218 0.818253 0.568630 -0.168454
C34   C     C_R   0.617249 0.196298 0.478331 -0.143121
C35   C     C_R   0.692555 0.116034 0.523197 -0.190796
C36   C     C_R   0.320991 0.868374 0.429740 -0.166867
C37   C     C_R   0.692570 0.883983 0.476921 -0.190795
C38   C     C_R   0.320991 0.131626 0.570261 -0.166870
C39   C     C_R   0.367220 0.181748 0.431371 -0.168451
C40   C     C_R   0.617239 0.803690 0.521561 -0.143115
C41   C     C_R   0.865273 0.367249 0.500327 -0.180624
C42   C     C_R   0.133410 0.632996 0.499752 -0.168737
C43   C     C_R   0.133411 0.367005 0.500247 -0.168738
C44   C     C_R   0.865277 0.632755 0.499675 -0.180623
C45   C     C_R   0.367062 0.866574 0.499561 -0.165350
C46   C     C_R   0.632234 0.133086 0.500336 -0.139025
C47   C     C_R   0.632235 0.866916 0.499666 -0.138995
C48   C     C_R   0.367063 0.133426 0.500440 -0.165348
C49   C     C_R   0.022827 0.552277 0.107570 0.291747
C50   C     C_R   0.022830 0.447724 0.892429 0.291743
C51   C     C_R   0.976861 0.447786 0.107504 0.295611
C52   C     C_R   0.976857 0.552212 0.892497 0.295607
C53   C     C_R   0.523229 0.052026 0.107441 0.295464
C54   C     C_R   0.523229 0.947974 0.892558 0.295457
C55   C     C_R   0.476529 0.947893 0.107436 0.288200
C56   C     C_R   0.476528 0.052106 0.892565 0.288198
C57   C     C_R   0.772027 0.274981 0.501166 -0.043559
C58   C     C_R   0.226152 0.725320 0.498766 -0.045414
C59   C     C_R   0.226153 0.274682 0.501235 -0.045415
C60   C     C_R   0.772032 0.725025 0.498842 -0.043547
C61   C     C_R   0.274880 0.773683 0.498561 -0.044773
C62   C     C_R   0.723771 0.226168 0.501490 -0.045944
C63   C     C_R   0.723775 0.773837 0.498521 -0.045932
C64   C     C_R   0.274881 0.226319 0.501440 -0.044774
C65   C     C_R   0.014346 0.554505 0.207886 0.326792
C66   C     C_R   0.014349 0.445496 0.792114 0.326794
C67   C     C_R   0.985721 0.445525 0.207690 0.325295
C68   C     C_R   0.985716 0.554474 0.792311 0.325287
C69   C     C_R   0.514897 0.054324 0.207758 0.339098
C70   C     C_R   0.514898 0.945676 0.792242 0.339091
C71   C     C_R   0.485109 0.945624 0.207731 0.334773
C72   C     C_R   0.485109 0.054375 0.792269 0.334770
C73   C     C_R   0.999753 0.500038 0.054457 -0.065520
C74   C     C_R   0.999753 0.499962 0.945543 -0.065518
C75   C     C_R   0.499766 0.999996 0.054436 -0.066130
C76   C     C_R   0.499766 0.000003 0.945564 -0.066128
Cu1   Cu    Cu3+1 1.000000 0.500000 0.596430 1.053377
Cu2   Cu    Cu3+1 1.000000 0.500000 0.403570 1.053381
Cu3   Cu    Cu3+1 0.500000 0.000000 0.596430 1.056745
Cu4   Cu    Cu3+1 0.500000 0.000000 0.403570 1.056748
H1    H     H_    0.856897 0.364756 0.654699 0.218501
H2    H     H_    0.178620 0.594287 0.374876 0.204601
H3    H     H_    0.098787 0.682452 0.624232 0.223944
H4    H     H_    0.860419 0.359152 0.346096 0.228393
H5    H     H_    0.098788 0.317548 0.375769 0.223947
H6    H     H_    0.860369 0.640790 0.653909 0.228370
H7    H     H_    0.856957 0.635313 0.345299 0.218523
H8    H     H_    0.178620 0.405714 0.625124 0.204601
H9    H     H_    0.403247 0.816271 0.622013 0.219376
H10   H     H_    0.570185 0.209175 0.461420 0.196801
H11   H     H_    0.703773 0.066784 0.539931 0.178408
H12   H     H_    0.320542 0.906033 0.376559 0.203951
H13   H     H_    0.703796 0.933243 0.460273 0.178380
H14   H     H_    0.320542 0.093967 0.623441 0.203950
H15   H     H_    0.403249 0.183729 0.377989 0.219374
H16   H     H_    0.570165 0.790803 0.538388 0.196760
N1    N     N_R   1.000000 0.500000 0.258690 -0.285968
N2    N     N_R   1.000000 0.500000 0.741310 -0.285974
N3    N     N_R   0.500000 0.000000 0.258690 -0.287382
N4    N     N_R   0.500000 0.000000 0.741310 -0.287387
O1    O     O_R   0.064280 0.435730 0.581430 -0.552887
O2    O     O_R   0.935720 0.564270 0.418570 -0.564615
O3    O     O_R   0.935720 0.564270 0.581430 -0.563470
O4    O     O_R   0.064280 0.435730 0.418570 -0.558900
O5    O     O_R   0.935720 0.435730 0.418570 -0.563465
O6    O     O_R   0.064280 0.564270 0.581430 -0.558903
O7    O     O_R   0.064280 0.564270 0.418570 -0.552886
O8    O     O_R   0.935720 0.435730 0.581430 -0.564616
O9    O     O_R   0.564280 0.935730 0.581430 -0.548130
O10   O     O_R   0.435720 0.064270 0.418570 -0.562568
O11   O     O_R   0.435720 0.064270 0.581430 -0.555173
O12   O     O_R   0.564280 0.935730 0.418570 -0.546836
O13   O     O_R   0.435720 0.935730 0.418570 -0.555175
O14   O     O_R   0.564280 0.064270 0.581430 -0.546849
O15   O     O_R   0.564280 0.064270 0.418570 -0.548132
O16   O     O_R   0.435720 0.935730 0.581430 -0.562567
Cl1   Cl    Cl    0.065785 0.613500 0.051253 -0.358231
Cl2   Cl    Cl    0.065793 0.386504 0.948745 -0.358230
Cl3   Cl    Cl    0.933893 0.386441 0.051295 -0.365706
Cl4   Cl    Cl    0.933885 0.613554 0.948707 -0.365712
Cl5   Cl    Cl    0.566251 0.113061 0.050740 -0.355285
Cl6   Cl    Cl    0.566252 0.886939 0.949259 -0.355288
Cl7   Cl    Cl    0.433617 0.886679 0.050790 -0.361471
Cl8   Cl    Cl    0.433616 0.113319 0.949211 -0.361470
Cl9   Cl    Cl    0.762968 0.276355 0.698879 -0.403899
Cl10  Cl    Cl    0.283913 0.670824 0.341550 -0.400833
Cl11  Cl    Cl    0.176928 0.788536 0.655764 -0.406180
Cl12  Cl    Cl    0.771680 0.265110 0.303424 -0.391541
Cl13  Cl    Cl    0.176931 0.211464 0.344237 -0.406183
Cl14  Cl    Cl    0.771607 0.734809 0.696591 -0.391546
Cl15  Cl    Cl    0.763049 0.723740 0.301121 -0.403904
Cl16  Cl    Cl    0.283913 0.329178 0.658451 -0.400834
Cl17  Cl    Cl    0.325951 0.709411 0.652917 -0.408302
Cl18  Cl    Cl    0.641677 0.322763 0.454407 -0.413459
Cl19  Cl    Cl    0.814659 0.138481 0.548589 -0.411141
Cl20  Cl    Cl    0.215337 0.829173 0.343924 -0.399105
Cl21  Cl    Cl    0.814688 0.861553 0.451668 -0.411156
Cl22  Cl    Cl    0.215336 0.170828 0.656077 -0.399104
Cl23  Cl    Cl    0.325954 0.290591 0.347085 -0.408299
Cl24  Cl    Cl    0.641659 0.677213 0.545360 -0.413488
Br1   Br    Br    0.016427 0.637627 0.266991 -0.260614
Br2   Br    Br    0.016431 0.362374 0.733010 -0.260574
Br3   Br    Br    0.985428 0.362372 0.266016 -0.312624
Br4   Br    Br    0.985413 0.637628 0.733985 -0.312583
Br5   Br    Br    0.517822 0.137515 0.266393 -0.299392
Br6   Br    Br    0.517825 0.862484 0.733605 -0.299333
Br7   Br    Br    0.482841 0.862464 0.266419 -0.253589
Br8   Br    Br    0.482839 0.137536 0.733581 -0.253568

loop_
_geom_bond_atom_site_label_1
_geom_bond_atom_site_label_2
_ccdc_geom_bond_type
C40   C47   A    
C71   Br7   S    
C56   C76   A    
C1    O1    A    
C28   H4    S    
C33   C45   A    
C73   C74   S    
Cu1   O1    S    
C21   Cl21  S    
C67   Br3   S    
C4    C42   S    
C9    C25   A    
C57   C62   S    
Cu1   Cu2   S    
C24   Cl24  S    
C70   Br6   S    
C5    C47   S    
C59   C64   S    
C6    C48   S    
C12   C28   A    
Cu2   O5    S    
C56   Cl8   S    
C13   C29   A    
Cu1   O6    S    
C10   C58   A    
C40   H16   S    
C52   C74   A    
C50   C74   A    
C72   N4    A    
C15   Cl15  S    
Cu2   O2    S    
C2    O2    A    
C19   C62   A    
C19   Cl19  S    
C22   C38   A    
C28   C41   A    
C69   Br5   S    
C3    O5    A    
C6    O11   A    
C20   C61   A    
C8    O15   A    
C17   C61   A    
C1    C43   S    
C49   Cl1   S    
C2    C44   S    
C56   C72   A    
C51   Cl3   S    
C68   Br4   S    
C34   C46   A    
C30   H6    S    
C11   C58   A    
C29   H5    S    
C52   C68   A    
C8    O14   A    
C55   C75   A    
C10   C26   A    
C58   C61   S    
C54   Cl6   S    
C53   C69   A    
C26   H2    S    
Cu3   O16   S    
C29   C43   A    
C25   H1    S    
C6    O10   A    
C30   C44   A    
C53   C75   A    
C17   C33   A    
C14   C30   A    
C70   N4    A    
C8    C46   S    
C18   C34   A    
C4    O7    A    
C55   Cl7   S    
C31   H7    S    
C31   C44   A    
Cu3   O9    S    
Cu2   O4    S    
Cu3   N4    S    
Cu1   N2    S    
C9    C57   A    
C25   C41   A    
C18   C62   A    
C72   Br8   S    
C71   N3    A    
Cu4   O12   S    
C9    Cl9   S    
Cu2   O7    S    
C16   C59   A    
C7    O16   A    
C11   Cl11  S    
C75   C76   S    
C34   H10   S    
C33   H9    S    
C65   Br1   S    
C54   C70   A    
Cu4   O15   S    
C11   C27   A    
C38   H14   S    
Cu2   N1    S    
C37   H13   S    
C36   C45   A    
C51   C67   A    
C20   Cl20  S    
C50   C66   A    
C1    O4    A    
C39   H15   S    
C49   C65   A    
C12   Cl12  S    
C12   C57   A    
C69   N3    A    
C23   C64   A    
C24   C63   A    
C60   C63   S    
Cu4   N3    S    
C17   Cl17  S    
C54   C76   A    
Cu1   O3    S    
C37   C47   A    
C52   Cl4   S    
C26   C42   A    
C14   Cl14  S    
C23   Cl23  S    
C3    C41   S    
C50   Cl2   S    
C38   C48   A    
Cu1   O8    S    
C51   C73   A    
C7    C45   S    
C15   C31   A    
C66   Br2   S    
C5    O12   A    
C3    O8    A    
C16   C32   A    
C14   C60   A    
C22   Cl22  S    
Cu3   O11   S    
C7    O13   A    
C27   H3    S    
C65   N1    A    
C53   Cl5   S    
C27   C42   A    
C66   N2    A    
C4    O6    A    
C2    O3    A    
C23   C39   A    
C24   C40   A    
C32   C43   A    
C18   Cl18  S    
C49   C73   A    
C16   Cl16  S    
C68   N2    A    
C21   C63   A    
C36   H12   S    
C67   N1    A    
C22   C64   A    
Cu3   Cu4   S    
C20   C36   A    
C21   C37   A    
Cu4   O13   S    
Cu3   O14   S    
Cu4   O10   S    
C13   Cl13  S    
C19   C35   A    
C5    O9    A    
C13   C59   A    
C10   Cl10  S    
C35   C46   A    
C15   C60   A    
C55   C71   A    
C35   H11   S    
C39   C48   A    
C32   H8    S    
