data_mof_unit_22525.cif
_audit_creation_date              2012-12-10T21:00:40-0500
_audit_creation_method            fapswitch 2.2
_symmetry_space_group_name_H-M    P1
_symmetry_Int_Tables_number       1
_space_group_crystal_system       triclinic
_cell_length_a                    18.199605
_cell_length_b                    18.142705
_cell_length_c                    18.392625
_cell_angle_alpha                 119.808335
_cell_angle_beta                  90.189102
_cell_angle_gamma                 119.79072
_cell_volume                      4313.18601717

loop_
_atom_site_label
_atom_site_type_symbol
_atom_type_description
_atom_site_fract_x
_atom_site_fract_y
_atom_site_fract_z
_atom_type_partial_charge
C1    C     C_R   0.111959 0.220177 0.609940 0.803739
C2    C     C_3   0.449378 0.896669 0.946659 -0.009187
C3    C     C_2   0.049547 0.411757 0.138038 0.881127
C4    C     C_3   0.901139 0.651457 0.040560 -0.673031
C5    C     C_3   0.081665 0.330428 0.944688 -0.664893
C6    C     C_2   0.839059 0.295416 0.389711 0.903218
C7    C     C_2   0.161196 0.704846 0.610461 0.903311
C8    C     C_3   0.413507 0.116198 0.168822 -0.738021
C9    C     C_3   0.584464 0.881362 0.829714 -0.735230
C10   C     C_2   0.482871 0.309836 0.410136 0.904481
C11   C     C_2   0.517061 0.690108 0.589594 0.904691
C12   C     C_2   0.442793 0.528235 0.377987 0.916900
C13   C     C_3   0.478847 0.030852 0.072385 0.270413
C14   C     C_2   0.557122 0.471655 0.621886 0.915985
C15   C     C_3   0.521282 0.969183 0.927150 0.266169
C16   C     C_3   0.413024 0.420973 0.449045 -0.227176
C17   C     C_3   0.586933 0.579005 0.550890 -0.227280
C18   C     C_3   0.491506 0.410220 0.456781 -0.061162
C19   C     C_3   0.508447 0.589751 0.543138 -0.062220
C20   C     C_3   0.550840 0.500544 0.448685 -0.113538
C21   C     C_3   0.449123 0.499441 0.551258 -0.113513
C22   C     C_3   0.473609 0.512411 0.441547 -0.055401
C23   C     C_R   0.888110 0.779815 0.390035 0.803600
C24   C     C_3   0.526348 0.487552 0.558375 -0.055218
C25   C     C_R   0.240483 0.182444 0.793474 -0.160826
C26   C     C_R   0.761978 0.817259 0.204657 -0.158997
C27   C     C_R   0.392522 0.780822 0.887824 0.793993
C28   C     C_R   0.607499 0.219189 0.112025 0.796203
C29   C     C_R   0.198015 0.146267 0.707586 0.027894
C30   C     C_R   0.803718 0.854557 0.291240 0.026145
C31   C     C_R   0.103527 0.095873 0.678439 0.058571
C32   C     C_R   0.897967 0.903804 0.320864 0.057201
C33   C     C_R   0.055113 0.082873 0.735471 -0.142170
C34   C     C_3   0.923269 0.403481 0.447041 -0.106271
C35   C     C_R   0.946851 0.914202 0.263506 -0.135087
C36   C     C_R   0.098575 0.118438 0.819855 -0.150247
C37   C     C_R   0.904058 0.877151 0.178267 -0.144402
C38   C     C_R   0.190995 0.168196 0.848805 -0.159908
C39   C     C_R   0.811897 0.828886 0.148953 -0.164965
C40   C     C_R   0.994760 0.942537 0.531691 -0.200270
C41   C     C_R   0.005729 0.057402 0.468058 -0.197642
C42   C     C_R   0.943939 0.892163 0.444677 -0.015778
C43   C     C_R   0.056413 0.107810 0.555178 -0.014342
C44   C     C_R   0.949154 0.950163 0.412165 0.041886
C45   C     C_3   0.076971 0.596799 0.553075 -0.105296
C46   C     C_R   0.051532 0.049776 0.587542 0.042691
C47   C     C_R   0.693764 0.711715 0.883479 -0.104067
C48   C     C_R   0.306266 0.287044 0.115437 -0.103955
C49   C     C_R   0.644795 0.636165 0.899667 -0.132358
C50   C     C_R   0.354993 0.362549 0.099152 -0.130700
C51   C     C_R   0.110508 0.500078 0.889349 0.856910
C52   C     C_R   0.888875 0.499435 0.110033 0.853008
C53   C     C_R   0.596100 0.649578 0.958407 0.129769
C54   C     C_R   0.404075 0.349512 0.040759 0.128592
C55   C     C_R   0.598884 0.740676 0.002494 -0.112213
C56   C     C_3   0.412445 0.964055 0.978152 -0.200115
C57   C     C_R   0.402054 0.258895 0.997223 -0.112891
C58   C     C_R   0.648122 0.816157 0.986290 -0.121654
C59   C     C_R   0.353068 0.183470 0.013543 -0.120943
C60   C     C_R   0.695363 0.801574 0.926682 -0.136101
C61   C     C_R   0.305342 0.197631 0.072721 -0.136979
C62   C     C_R   0.593276 0.561476 0.025171 -0.263809
C63   C     C_R   0.406761 0.437628 0.973997 -0.263438
C64   C     C_R   0.550073 0.494257 0.050830 -0.027388
C65   C     C_R   0.449970 0.505097 0.948564 -0.027977
C66   C     C_R   0.455395 0.429231 0.023095 -0.009888
C67   C     C_3   0.587708 0.035990 0.021371 -0.202187
C68   C     C_R   0.544664 0.569906 0.976096 -0.009212
C69   C     C_R   0.220995 0.844307 0.041058 -0.190207
C70   C     C_R   0.781689 0.152737 0.959195 -0.133413
C71   C     C_R   0.178672 0.753952 0.038572 0.225610
C72   C     C_R   0.820202 0.241505 0.959438 0.234921
C73   C     C_R   0.088761 0.671907 0.982913 0.055489
C74   C     C_R   0.909729 0.326932 0.015549 0.023355
C75   C     C_R   0.392224 0.499765 0.607945 0.919139
C76   C     C_R   0.607772 0.500241 0.392044 0.919475
C77   C     C_R   0.043845 0.679848 0.926474 0.003428
C78   C     C_3   0.485706 0.037384 0.957620 -0.295925
C79   C     C_R   0.956921 0.323591 0.074538 0.026703
C80   C     C_R   0.087672 0.772947 0.932632 -0.194578
C81   C     C_R   0.915846 0.232628 0.071598 -0.194861
C82   C     C_R   0.175223 0.854757 0.990058 -0.180029
C83   C     C_R   0.829208 0.147827 0.014058 -0.209268
C84   C     C_R   0.985330 0.579297 0.040012 0.134223
C85   C     C_R   0.008604 0.416374 0.953977 0.138939
C86   C     C_R   0.943423 0.497895 0.051652 -0.089484
C87   C     C_R   0.053462 0.499837 0.945295 -0.074290
C88   C     C_R   0.955106 0.416380 0.008242 -0.071084
C89   C     C_3   0.514446 0.962681 0.041934 -0.289490
C90   C     C_R   0.041461 0.581136 0.988323 -0.017905
C91   C     C_R   0.393919 0.501844 0.890393 0.833987
C92   C     C_R   0.606098 0.497990 0.109453 0.832011
C93   C     C_R   0.109378 0.500249 0.607985 0.894765
C94   C     C_R   0.890695 0.499831 0.392035 0.894533
C95   C     C_3   0.018870 0.432880 0.448198 0.167921
C96   C     C_3   0.981380 0.567419 0.551920 0.167544
C97   C     C_3   0.042896 0.528277 0.450437 0.110054
C98   C     C_3   0.957349 0.472021 0.549671 0.108742
C99   C     C_3   0.947307 0.499550 0.448931 -0.203573
C100  C     C_3   0.550747 0.103373 0.052905 -0.010052
C101  C     C_3   0.052901 0.500715 0.551162 -0.203813
C102  C     C_3   0.176140 0.582477 0.404729 -0.621639
C103  C     C_3   0.824347 0.418475 0.595810 -0.619598
C104  C     C_2   0.254160 0.161061 0.650912 0.871544
C105  C     C_2   0.747071 0.841654 0.347959 0.874079
C106  C     C_3   0.003251 0.305988 0.298320 -0.724426
C107  C     C_3   0.998096 0.695048 0.702068 -0.720633
C108  C     C_3   0.223705 0.780915 0.178005 -0.746156
C109  C     C_3   0.690576 0.237369 0.918480 -0.763990
C110  C     C_2   0.951773 0.593553 0.861061 0.879332
H1    H     H_    0.224190 0.195381 0.914260 0.158651
H2    H     H_    0.008710 0.101773 0.443360 0.166599
H3    H     H_    0.733536 0.860093 0.914256 0.126521
H4    H     H_    0.267315 0.139137 0.085203 0.126557
H5    H     H_    0.730696 0.700736 0.837658 0.156929
H6    H     H_    0.269012 0.297720 0.160972 0.156684
H7    H     H_    0.644637 0.567279 0.866478 0.134104
H8    H     H_    0.354710 0.431142 0.132046 0.134681
H9    H     H_    0.562691 0.752783 0.048951 0.112518
H10   H     H_    0.438643 0.247127 0.951114 0.112777
H11   H     H_    0.649770 0.885992 0.020034 0.123512
H12   H     H_    0.779187 0.800660 0.082875 0.157983
H13   H     H_    0.351968 0.113996 0.980201 0.124180
H14   H     H_    0.665828 0.609933 0.044965 0.173871
H15   H     H_    0.334200 0.389046 0.954108 0.175651
H16   H     H_    0.208128 0.925970 0.993971 0.135002
H17   H     H_    0.798683 0.077910 0.012052 0.138465
H18   H     H_    0.289446 0.906803 0.083603 0.177590
H19   H     H_    0.714953 0.086349 0.914704 0.181570
H20   H     H_    0.054484 0.782372 0.892272 0.175219
H21   H     H_    0.950929 0.226712 0.113810 0.175917
H22   H     H_    0.474793 0.067946 0.922390 0.142394
H23   H     H_    0.312127 0.220145 0.817435 0.171881
H24   H     H_    0.525312 0.932119 0.077187 0.141007
H25   H     H_    0.340868 0.934764 0.959570 0.155591
H26   H     H_    0.659297 0.065115 0.039560 0.156344
H27   H     H_    0.341791 0.356210 0.407395 0.193714
H28   H     H_    0.658164 0.643773 0.592548 0.193659
H29   H     H_    0.082744 0.614837 0.397666 0.237660
H30   H     H_    0.200521 0.598508 0.355679 0.237909
H31   H     H_    0.175953 0.515965 0.392297 0.276845
H32   H     H_    0.223379 0.652292 0.472112 0.239969
H33   H     H_    0.917223 0.385242 0.602233 0.238867
H34   H     H_    0.690558 0.780462 0.180315 0.172214
H35   H     H_    0.799860 0.402084 0.644662 0.240211
H36   H     H_    0.776957 0.349078 0.528329 0.239734
H37   H     H_    0.824986 0.485449 0.608875 0.275540
H38   H     H_    0.377689 0.241632 0.645639 0.363022
H39   H     H_    0.622911 0.763682 0.353245 0.362758
H40   H     H_    0.028544 0.310055 0.410414 0.260071
H41   H     H_    0.034965 0.265613 0.263900 0.241684
H42   H     H_    0.016746 0.360952 0.281054 0.282218
H43   H     H_    0.929725 0.247310 0.274056 0.234979
H44   H     H_    0.970825 0.689707 0.589627 0.259848
H45   H     H_    0.983058 0.044090 0.714005 0.151214
H46   H     H_    0.964998 0.733431 0.736703 0.244270
H47   H     H_    0.071137 0.755464 0.725914 0.234090
H48   H     H_    0.987359 0.640973 0.719558 0.282810
H49   H     H_    0.293397 0.774496 0.089291 0.218339
H50   H     H_    0.264043 0.770243 0.212266 0.254407
H51   H     H_    0.153590 0.736094 0.175872 0.253976
H52   H     H_    0.251136 0.864746 0.216695 0.244059
H53   H     H_    0.805610 0.294223 0.885088 0.235321
H54   H     H_    0.710186 0.307318 0.984789 0.217281
H55   H     H_    0.643889 0.166758 0.916275 0.245262
H56   H     H_    0.018711 0.951867 0.285291 0.148081
H57   H     H_    0.654470 0.234564 0.867382 0.239223
H58   H     H_    0.836068 0.551569 0.791223 0.350170
H59   H     H_    0.167805 0.457426 0.206573 0.348998
H60   H     H_    0.034723 0.737587 0.118683 0.221319
H61   H     H_    0.865245 0.672075 0.087198 0.267343
H62   H     H_    0.925547 0.704768 0.019446 0.214436
H63   H     H_    0.852602 0.570239 0.981765 0.239225
H64   H     H_    0.950970 0.256845 0.867545 0.224154
H65   H     H_    0.051778 0.274370 0.962873 0.209789
H66   H     H_    0.133141 0.409297 0.004868 0.242173
H67   H     H_    0.060489 0.107510 0.862959 0.143019
H68   H     H_    0.115747 0.307243 0.896918 0.266496
H69   H     H_    0.716956 0.197378 0.296157 0.332189
H70   H     H_    0.283242 0.802820 0.704093 0.332425
H71   H     H_    0.506308 0.096361 0.208571 0.223693
H72   H     H_    0.367549 0.097623 0.205796 0.271235
H73   H     H_    0.372878 0.090488 0.105569 0.223319
H74   H     H_    0.464310 0.201374 0.209171 0.273481
H75   H     H_    0.494703 0.905544 0.791332 0.226104
H76   H     H_    0.631077 0.899600 0.793173 0.272511
H77   H     H_    0.532360 0.796480 0.788395 0.272177
H78   H     H_    0.942480 0.885927 0.134843 0.142071
H79   H     H_    0.623928 0.905050 0.892565 0.223586
H80   H     H_    0.545715 0.238262 0.378399 0.341070
H81   H     H_    0.454190 0.761663 0.621550 0.342486
H82   H     H_    0.466518 0.559957 0.286584 0.338891
H83   H     H_    0.533180 0.439513 0.713010 0.338916
H84   H     H_    0.991856 0.898091 0.556273 0.166909
N1    N     N_2   0.086806 0.559073 0.395364 -0.302522
N2    N     N_2   0.543733 0.936840 0.846361 -0.334302
N3    N     N_2   0.913472 0.441298 0.604793 -0.300702
N4    N     N_2   0.040028 0.359913 0.393116 -0.279187
N5    N     N_2   0.960290 0.640372 0.607265 -0.280567
N6    N     N_2   0.228066 0.744069 0.089169 -0.327761
N7    N     N_2   0.769428 0.241663 0.900208 -0.311112
N8    N     N_2   0.976310 0.663863 0.085510 -0.291514
N9    N     N_2   0.012065 0.328231 0.903050 -0.291107
N10   N     N_2   0.456541 0.063277 0.153256 -0.336878
O1    O     O_3   0.251620 0.500000 0.748430 -0.503258
O2    O     O_R   0.570330 0.268390 0.136490 -0.646562
O3    O     O_R   0.134680 0.268390 0.572240 -0.644689
O4    O     O_R   0.865320 0.731610 0.427760 -0.644540
O5    O     O_R   0.306670 0.731630 0.863510 -0.629650
O6    O     O_R   0.693330 0.268370 0.136490 -0.626555
O7    O     O_R   0.135450 0.439270 0.865360 -0.628023
O8    O     O_R   0.864550 0.560730 0.134640 -0.629508
O9    O     O_R   0.429670 0.560710 0.692610 -0.620385
O10   O     O_R   0.570330 0.439290 0.307390 -0.620027
O11   O     O_R   0.308540 0.439240 0.865360 -0.656633
O12   O     O_3   0.748380 0.500000 0.251570 -0.503505
O13   O     O_R   0.691460 0.560760 0.134640 -0.658882
O14   O     O_R   0.133580 0.439310 0.571150 -0.652175
O15   O     O_R   0.866420 0.560690 0.428850 -0.652443
O16   O     O_R   0.430770 0.560690 0.864590 -0.623489
O17   O     O_R   0.569230 0.439310 0.135410 -0.622897
O18   O     O_R   0.133580 0.560760 0.692610 -0.604474
O19   O     O_R   0.866420 0.439240 0.307390 -0.603902
O20   O     O_2   0.220906 0.105020 0.569957 -0.622494
O21   O     O_R   0.346423 0.238909 0.690668 -0.814656
O22   O     O_2   0.780232 0.897796 0.428924 -0.619519
O23   O     O_R   0.134680 0.560740 0.864590 -0.650694
O24   O     O_R   0.654490 0.765356 0.308212 -0.814343
O25   O     O_2   0.922540 0.503451 0.830866 -0.641110
O26   O     O_R   0.898194 0.615810 0.833698 -0.838816
O27   O     O_2   0.077189 0.500955 0.166318 -0.634688
O28   O     O_R   0.105521 0.392253 0.165762 -0.837506
O29   O     O_2   0.831210 0.227510 0.395051 -0.637957
O30   O     O_R   0.770015 0.272864 0.331068 -0.798523
O31   O     O_2   0.169128 0.772786 0.605124 -0.638578
O32   O     O_R   0.230163 0.727342 0.669149 -0.798467
O33   O     O_2   0.408488 0.227958 0.372412 -0.643322
O34   O     O_R   0.865320 0.439260 0.135410 -0.644957
O35   O     O_R   0.560031 0.310667 0.411753 -0.789046
O36   O     O_2   0.591415 0.771946 0.626671 -0.637984
O37   O     O_R   0.439896 0.689278 0.588424 -0.789584
O38   O     O_2   0.374419 0.525653 0.374359 -0.612499
O39   O     O_R   0.492944 0.547833 0.324685 -0.798484
O40   O     O_2   0.625534 0.474317 0.625574 -0.613290
O41   O     O_R   0.506863 0.451853 0.675048 -0.799450
O42   O     O_R   0.306670 0.439270 0.571150 -0.628369
O43   O     O_R   0.693330 0.560730 0.428850 -0.628201
O44   O     O_R   0.135450 0.268370 0.694460 -0.648300
O45   O     O_R   0.864550 0.731630 0.305540 -0.646747
O46   O     O_R   0.429670 0.731610 0.863510 -0.647111
Zn1   Zn    Zn3+2 0.207400 0.586780 0.791530 1.005032
Zn2   Zn    Zn3+2 0.792600 0.413220 0.208470 1.003414
Zn3   Zn    Zn3+2 0.208510 0.413230 0.792630 0.975008
Zn4   Zn    Zn3+2 0.791490 0.586770 0.207370 0.969159
Zn5   Zn    Zn3+2 0.383150 0.586740 0.791530 1.009850
Zn6   Zn    Zn3+2 0.616850 0.413260 0.208470 1.008076
Zn7   Zn    Zn3+2 0.207400 0.413250 0.618010 1.016071
Zn8   Zn    Zn3+2 0.792600 0.586750 0.381990 1.015774

loop_
_geom_bond_atom_site_label_1
_geom_bond_atom_site_label_2
_ccdc_geom_bond_type
O19   Zn2   S    
C96   N5    S    
C107  N5    S    
C63   C65   A    
C5    H65   S    
C16   C21   S    
C4    H61   S    
C23   O4    A    
C28   O2    A    
C10   O35   S    
C16   H27   S    
O12   Zn8   S    
C34   C98   S    
O2    Zn6   S    
C102  N1    S    
C56   H25   S    
C62   H14   S    
C9    N2    S    
C103  H37   S    
C104  O21   S    
C47   C49   A    
O1    Zn7   S    
C47   H5    S    
C26   H34   S    
C11   C19   S    
C54   C66   S    
C50   C54   A    
C23   C42   S    
C84   C90   A    
C109  H54   S    
C18   C24   S    
C7    C45   S    
C92   O17   A    
C19   C21   S    
C27   O46   A    
C84   C86   A    
C73   C90   S    
C63   H15   S    
C86   C88   A    
C26   C39   A    
C81   H21   S    
C37   H78   S    
C28   O6    A    
C109  N7    S    
O3    Zn7   S    
C96   C99   S    
C12   C22   S    
O11   Zn3   S    
C33   C36   A    
C56   C78   S    
C20   C76   S    
C5    H66   S    
C103  N3    S    
C105  O24   S    
C14   C24   S    
C91   O16   A    
C69   C71   A    
C53   C68   S    
C78   H22   S    
C94   O15   A    
C91   O11   A    
C69   C82   A    
C110  O26   S    
C97   C99   S    
C47   C60   A    
C7    O32   S    
C35   H56   S    
C1    C43   S    
C14   O41   S    
C49   H7    S    
C69   H18   S    
O43   Zn8   S    
C41   H2    S    
C96   C98   S    
C62   C64   A    
C31   C33   A    
C2    C27   S    
C106  H41   S    
C102  H31   S    
C109  H57   S    
C107  H46   S    
O1    Zn5   S    
C52   O34   A    
C106  N4    S    
C13   C56   S    
C13   C89   S    
O18   Zn1   S    
C8    H74   S    
C48   C50   A    
C6    O30   S    
C63   C66   A    
C3    C79   S    
O45   Zn4   S    
O12   Zn6   S    
H82   O39   S    
C25   C29   A    
C41   C43   A    
C60   H3    S    
C77   C110  S    
C42   C44   A    
C52   C86   S    
O7    Zn3   S    
H69   O30   S    
C9    H79   S    
C23   O45   A    
O6    Zn2   S    
C107  H47   S    
H29   N1    S    
C53   C55   A    
C59   H13   S    
H33   N3    S    
C7    O31   D    
C59   C61   A    
C17   C24   S    
C106  H42   S    
C36   H67   S    
C85   C87   A    
O10   Zn6   S    
H81   O37   S    
C32   C35   A    
C70   C83   A    
C8    N10   S    
C19   C22   S    
O4    Zn8   S    
C34   C95   S    
C72   C74   A    
C9    H76   S    
C3    O27   D    
C79   C81   A    
O44   Zn3   S    
C45   C101  S    
C40   H84   S    
C11   O36   D    
C108  H52   S    
C75   O9    A    
C70   H19   S    
C6    C34   S    
C29   C104  S    
C16   C22   S    
C93   O14   A    
C64   C66   A    
C108  N6    S    
C2    C89   S    
C40   C46   A    
H59   O28   S    
C5    N9    S    
O1    Zn1   S    
C110  O25   D    
H60   N8    S    
C25   C38   A    
H80   O35   S    
C4    N8    S    
O12   Zn2   S    
C12   O39   S    
C15   C67   S    
C95   C97   S    
C34   C99   S    
C32   C44   S    
C21   C24   S    
C106  H43   S    
O15   Zn8   S    
C102  H30   S    
C105  O22   D    
C78   C100  S    
C76   O43   A    
C2    C15   S    
C39   H12   S    
H70   O32   S    
C17   H28   S    
C75   O42   A    
C109  H55   S    
C67   C100  S    
O5    Zn1   S    
C57   H10   S    
C14   O40   D    
C15   N2    S    
C8    H73   S    
C80   C82   A    
H49   N6    S    
C80   H20   S    
C20   C22   S    
C26   C30   A    
C12   O38   D    
C74   C79   A    
C51   C87   S    
C30   C105  S    
C51   O23   A    
C94   O19   A    
C11   O37   S    
C41   C44   A    
C55   C58   A    
O9    Zn5   S    
H71   N10   S    
C71   N6    S    
C65   C68   A    
H75   N2    S    
C93   C101  S    
C76   O10   A    
H39   O24   S    
C107  H48   S    
C25   H23   S    
C103  H35   S    
O23   Zn1   S    
C85   C88   A    
C8    H72   S    
O46   Zn5   S    
C65   C91   S    
C93   O18   A    
H53   N7    S    
C58   H11   S    
O12   Zn4   S    
C89   H24   S    
C4    H62   S    
C98   N3    S    
O34   Zn2   S    
C50   H8    S    
O14   Zn7   S    
C17   C20   S    
C6    O29   D    
C27   O5    A    
H38   O21   S    
C83   H17   S    
C9    H77   S    
C1    O44   A    
C3    O28   S    
C81   C83   A    
C70   C72   A    
C33   H45   S    
H83   O41   S    
C108  H50   S    
O1    Zn3   S    
C62   C68   A    
C98   C101  S    
C108  H51   S    
C21   C75   S    
C13   N10   S    
C48   H6    S    
C4    H63   S    
C16   C18   S    
C97   N1    S    
C13   C100  S    
C36   C38   A    
C67   H26   S    
C35   C37   A    
C37   C39   A    
O42   Zn7   S    
C45   C97   S    
C30   C32   A    
H44   N5    S    
C77   C80   A    
C28   C100  S    
C48   C61   A    
C10   O33   D    
C94   C99   S    
C10   C18   S    
C95   N4    S    
C49   C53   A    
C40   C42   A    
H64   N9    S    
C17   C19   S    
C104  O20   D    
C84   N8    S    
C18   C20   S    
O13   Zn4   S    
O8    Zn4   S    
C92   O13   A    
C1    O3    A    
C43   C46   A    
C5    H68   S    
O17   Zn6   S    
C57   C59   A    
C85   N9    S    
H58   O26   S    
C15   C78   S    
C51   O7    A    
C55   H9    S    
O16   Zn5   S    
C31   C46   S    
C73   C77   A    
C29   C31   A    
C87   C90   A    
C71   C73   A    
C61   H4    S    
C52   O8    A    
C67   C89   S    
C64   C92   S    
C2    C56   S    
C102  H32   S    
C74   C88   S    
C38   H1    S    
C45   C96   S    
C58   C60   A    
H40   N4    S    
C82   H16   S    
C95   C101  S    
C103  H36   S    
C72   N7    S    
C54   C57   A    
