data_mof_unit_7617.cif
_audit_creation_date              2012-12-10T18:06:50-0500
_audit_creation_method            fapswitch 2.2
_symmetry_space_group_name_H-M    P1
_symmetry_Int_Tables_number       1
_space_group_crystal_system       triclinic
_cell_length_a                    12.689386
_cell_length_b                    12.925581
_cell_length_c                    15.188563
_cell_angle_alpha                 85.093025
_cell_angle_beta                  98.695318
_cell_angle_gamma                 97.268459
_cell_volume                      2437.16230019

loop_
_atom_site_label
_atom_site_type_symbol
_atom_type_description
_atom_site_fract_x
_atom_site_fract_y
_atom_site_fract_z
_atom_type_partial_charge
C1    C     C_R   0.442017 0.307684 0.506583 1.008494
C2    C     C_R   0.702927 0.536466 0.934174 -0.134820
C3    C     C_R   0.602689 0.572277 0.899368 -0.061462
C4    C     C_R   0.437216 0.516239 0.335106 1.002939
C5    C     C_R   0.761813 0.495000 0.877067 0.686553
C6    C     C_R   0.716837 0.479864 0.789011 -0.264843
C7    C     C_R   0.555982 0.549350 0.812958 -0.208487
C8    C     C_R   0.618104 0.932564 0.337084 0.075318
C9    C     C_R   0.575453 0.801576 0.455772 -0.230835
C10   C     C_R   0.328088 0.153708 0.562462 0.528514
C11   C     C_R   0.292152 0.047604 0.564842 0.544450
C12   C     C_R   0.484742 0.592129 0.100910 -0.018376
C13   C     C_R   0.338102 0.979798 0.518018 -0.043821
C14   C     C_R   0.425268 0.022635 0.470977 -0.041052
C15   C     C_R   0.440029 0.131011 0.450557 -0.158580
C16   C     C_R   0.554767 0.692384 0.486646 0.918080
C17   C     C_R   0.498031 0.963058 0.442670 0.112013
C18   C     C_R   0.554966 0.000476 0.370294 -0.053822
C19   C     C_R   0.546407 0.103934 0.335457 -0.302007
C20   C     C_R   0.491858 0.169164 0.376278 0.665384
C21   C     C_R   0.522292 0.871313 0.490989 -0.307070
C22   C     C_R   0.623050 0.831169 0.378562 0.557858
C23   C     C_R   0.400726 0.653741 0.069373 -0.038505
C24   C     C_R   0.401456 0.196625 0.504759 -0.335076
C25   C     C_R   0.142077 0.639236 0.630276 0.093189
C26   C     C_R   0.754807 0.373380 0.398162 -0.068376
C27   C     C_R   0.846571 0.351385 0.367461 0.010727
C28   C     C_R   0.565405 0.490694 0.664367 0.913288
C29   C     C_R   0.945048 0.408636 0.396926 0.651911
C30   C     C_R   0.952096 0.483076 0.462393 -0.205467
C31   C     C_R   0.854910 0.503674 0.489217 -0.010227
C32   C     C_R   0.050340 0.533739 0.506485 -0.045288
C33   C     C_R   0.048458 0.609491 0.569581 -0.032582
C34   C     C_R   0.565266 0.586749 0.047631 0.001460
C35   C     C_R   0.951499 0.647576 0.573301 0.003884
C36   C     C_R   0.857929 0.584336 0.547046 0.654991
C37   C     C_R   0.151012 0.508721 0.495017 0.102447
C38   C     C_R   0.238255 0.611712 0.612760 -0.034706
C39   C     C_R   0.411482 0.550535 0.240292 -0.309564
C40   C     C_R   0.612235 0.503795 0.757471 -0.131943
C41   C     C_R   0.324021 0.664953 0.124318 -0.253223
C42   C     C_R   0.330770 0.615957 0.210264 0.580501
C43   C     C_R   0.482628 0.533250 0.182545 0.546772
C44   C     C_3   0.676828 0.960811 0.256612 -0.358090
C45   C     C_R   0.544737 0.616490 0.956015 0.075359
C46   C     C_3   0.798449 0.972429 0.284341 -0.802083
C47   C     C_3   0.281620 0.868736 0.508608 -0.376344
C48   C     C_3   0.245863 0.844633 0.411125 -0.705657
C49   C     C_3   0.944720 0.757441 0.598957 -0.372800
C50   C     C_3   0.880219 0.820413 0.524755 -0.760557
C51   C     C_3   0.140414 0.674662 0.723097 -0.420671
C52   C     C_3   0.203258 0.782076 0.739443 -0.843961
C53   C     C_3   0.837740 0.266116 0.303934 -0.424435
C54   C     C_3   0.790797 0.302675 0.209797 -0.691027
C55   C     C_3   0.473782 0.762483 0.843207 -0.437026
C56   C     C_R   0.468417 0.688708 0.926636 0.169414
C57   C     C_3   0.584435 0.824817 0.842748 -0.802288
C58   C     C_R   0.396389 0.705410 0.984375 -0.189314
C59   C     C_R   0.667152 0.556351 0.082779 -0.236647
C60   C     C_R   0.738160 0.537629 0.026066 0.636198
F1    F     F_    0.860399 0.464794 0.906729 -0.601369
F2    F     F_    0.545648 0.454596 0.204416 -0.643172
F3    F     F_    0.670457 0.760197 0.341548 -0.679433
F4    F     F_    0.288797 0.214795 0.615329 -0.605450
F5    F     F_    0.212895 0.011325 0.614202 -0.660012
F6    F     F_    0.481905 0.266741 0.337694 -0.652636
F7    F     F_    0.029563 0.394091 0.356459 -0.668114
F8    F     F_    0.774446 0.601953 0.585108 -0.662784
F9    F     F_    0.836787 0.511953 0.061860 -0.607983
F10   F     F_    0.260404 0.635126 0.264237 -0.630588
H1    H     H_    0.336681 0.758825 0.963152 0.144605
H2    H     H_    0.694029 0.550384 0.153896 0.231048
H3    H     H_    0.838983 0.006649 0.226912 0.250615
H4    H     H_    0.821946 0.024136 0.340402 0.242787
H5    H     H_    0.826659 0.895127 0.305661 0.295633
H6    H     H_    0.654457 0.898208 0.209087 0.239562
H7    H     H_    0.654683 0.032797 0.217686 0.190425
H8    H     H_    0.196187 0.904710 0.376213 0.250033
H9    H     H_    0.315898 0.841885 0.376023 0.272674
H10   H     H_    0.196952 0.767059 0.408191 0.267500
H11   H     H_    0.330491 0.808713 0.543007 0.206332
H12   H     H_    0.584518 0.138348 0.279507 0.176383
H13   H     H_    0.207893 0.857393 0.541057 0.251288
H14   H     H_    0.912722 0.819895 0.460872 0.258492
H15   H     H_    0.794732 0.787716 0.515920 0.293670
H16   H     H_    0.885169 0.902619 0.542568 0.245662
H17   H     H_    0.908243 0.754376 0.661332 0.234295
H18   H     H_    0.025153 0.801683 0.608656 0.236863
H19   H     H_    0.280061 0.791300 0.711664 0.245560
H20   H     H_    0.156514 0.846219 0.710098 0.306945
H21   H     H_    0.220751 0.791042 0.812384 0.250785
H22   H     H_    0.057967 0.673203 0.739216 0.229731
H23   H     H_    0.496813 0.851377 0.555670 0.169868
H24   H     H_    0.177960 0.616645 0.772465 0.227846
H25   H     H_    0.709658 0.326699 0.209076 0.283197
H26   H     H_    0.844386 0.369506 0.184584 0.328873
H27   H     H_    0.784040 0.237951 0.164950 0.238971
H28   H     H_    0.917188 0.239477 0.301973 0.270444
H29   H     H_    0.785098 0.197538 0.327774 0.192301
H30   H     H_    0.608847 0.865308 0.905534 0.264013
H31   H     H_    0.645606 0.773268 0.835276 0.265223
H32   H     H_    0.581464 0.884471 0.785546 0.246711
H33   H     H_    0.450562 0.721711 0.781000 0.193716
H34   H     H_    0.312723 0.633913 0.655259 0.130352
H35   H     H_    0.416025 0.820803 0.840432 0.216495
H36   H     H_    0.473195 0.560889 0.790399 0.169342
H37   H     H_    0.164139 0.454625 0.449431 0.224677
H38   H     H_    0.677841 0.332156 0.374264 0.221799
H39   H     H_    0.763042 0.446828 0.746277 0.200429
H40   H     H_    0.260730 0.714085 0.101729 0.193959
N1    N     N_R   0.239390 0.551900 0.544730 -0.138727
N2    N     N_R   0.759950 0.448600 0.455730 -0.116056
O1    O     O_R   0.374950 0.371210 0.521360 -0.559410
O2    O     O_R   0.542050 0.338030 0.492790 -0.609173
O3    O     O_R   0.368720 0.526070 0.390200 -0.572951
O4    O     O_R   0.535820 0.492890 0.361630 -0.523664
O5    O     O_R   0.457950 0.661970 0.507210 -0.636331
O6    O     O_R   0.625050 0.628790 0.478640 -0.502819
O7    O     O_R   0.464180 0.507110 0.638370 -0.628845
O8    O     O_R   0.631280 0.473930 0.609800 -0.554148
Zn1   Zn    Zn3+2 0.388420 0.522150 0.519080 1.005102
Zn2   Zn    Zn3+2 0.611580 0.477850 0.480920 1.060745

loop_
_geom_bond_atom_site_label_1
_geom_bond_atom_site_label_2
_ccdc_geom_bond_type
C23   C58   A    
C55   C56   S    
O3    Zn1   S    
N1    Zn1   S    
C41   C42   A    
C49   H17   S    
C4    O3    A    
C52   H20   S    
C19   C20   A    
C14   C17   A    
C50   H14   S    
C53   C54   S    
C53   H29   S    
C57   H32   S    
C12   C23   A    
C26   C27   A    
O4    Zn2   S    
C55   H35   S    
C48   H9    S    
C20   F6    S    
C44   H7    S    
C9    C16   S    
C37   H37   S    
C12   C43   A    
C3    C7    A    
C30   C31   A    
C25   C38   A    
C2    C60   A    
C58   H1    S    
C27   C29   A    
C28   C40   S    
C55   H33   S    
C42   F10   S    
C18   C19   A    
O6    Zn2   S    
C48   H8    S    
C44   H6    S    
O5    Zn1   S    
C38   H34   S    
C50   H15   S    
C22   F3    S    
C29   F7    S    
C35   C36   A    
C45   C56   A    
C44   C46   S    
C35   C49   S    
C8    C22   A    
C7    C40   A    
C54   H27   S    
C47   H13   S    
C19   H12   S    
C54   H26   S    
C59   H2    S    
C59   C60   A    
C13   C14   A    
C49   H18   S    
C52   H19   S    
C1    O1    A    
C46   H5    S    
O8    Zn2   S    
C39   C42   A    
O7    Zn1   S    
C15   C20   A    
C51   C52   S    
C28   O8    A    
C26   H38   S    
C13   C47   S    
C39   C43   A    
C10   C24   A    
C57   H30   S    
C3    C45   A    
C8    C18   A    
C25   C51   S    
N2    Zn2   S    
C29   C30   A    
C16   O6    A    
C51   H22   S    
C47   C48   S    
C4    C39   S    
C31   N2    A    
C36   F8    S    
C17   C18   A    
C7    H36   S    
C5    F1    S    
C34   C45   A    
C32   C37   A    
C54   H25   S    
C15   C24   A    
C41   H40   S    
C55   C57   S    
C34   C59   A    
C6    H39   S    
C6    C40   A    
C2    C5    A    
C1    O2    A    
C12   C34   A    
C26   N2    A    
C46   H4    S    
C14   C15   A    
C4    O4    A    
C10   F4    S    
C8    C44   S    
C28   O7    A    
C27   C53   S    
C53   H28   S    
C57   H31   S    
C23   C41   A    
C32   C33   A    
C48   H10   S    
C2    C3    A    
C16   O5    A    
C30   C32   A    
C11   C13   A    
C9    C21   A    
C5    C6    A    
C21   H23   S    
C60   F9    S    
C33   C35   A    
C56   C58   A    
C47   H11   S    
C9    C22   A    
C17   C21   A    
C37   N1    A    
C10   C11   A    
C50   H16   S    
C51   H24   S    
O2    Zn2   S    
O1    Zn1   S    
C1    C24   S    
C49   C50   S    
C31   C36   A    
C52   H21   S    
C38   N1    A    
C46   H3    S    
C11   F5    S    
C43   F2    S    
C25   C33   A    
