data_mof_unit_51865.cif
_audit_creation_date              2012-12-11T15:44:50-0500
_audit_creation_method            fapswitch 2.2
_symmetry_space_group_name_H-M    P1
_symmetry_Int_Tables_number       1
_space_group_crystal_system       triclinic
_cell_length_a                    19.186069
_cell_length_b                    11.053509
_cell_length_c                    18.77015
_cell_angle_alpha                 89.956613
_cell_angle_beta                  90.317524
_cell_angle_gamma                 89.908128
_cell_volume                      3980.58186092

loop_
_atom_site_label
_atom_site_type_symbol
_atom_type_description
_atom_site_fract_x
_atom_site_fract_y
_atom_site_fract_z
_atom_type_partial_charge
C1    C     C_R   0.763321 0.523733 0.643313 0.542239
C2    C     C_R   0.239914 0.536484 0.352376 0.568006
C3    C     C_R   0.263324 0.023719 0.643309 0.542335
C4    C     C_R   0.739914 0.036483 0.352377 0.568763
C5    C     C_R   0.833676 0.117729 0.518621 -0.166906
C6    C     C_R   0.218632 0.981378 0.451972 -0.164511
C7    C     C_R   0.333671 0.617727 0.518621 -0.166918
C8    C     C_R   0.718636 0.481387 0.451976 -0.164548
C9    C     C_R   0.823523 0.099200 0.445678 -0.156770
C10   C     C_R   0.222228 0.965128 0.525043 -0.155453
C11   C     C_R   0.323521 0.599201 0.445677 -0.156747
C12   C     C_R   0.722234 0.465136 0.525046 -0.155398
C13   C     C_3   0.629994 0.118285 0.466952 -0.225394
C14   C     C_3   0.305018 0.262528 0.559731 -0.253567
C15   C     C_3   0.129994 0.618254 0.466945 -0.225329
C16   C     C_3   0.805006 0.762553 0.559737 -0.253551
C17   C     C_3   0.641722 0.131025 0.547025 0.009388
C18   C     C_3   0.288187 0.292096 0.482516 0.022192
C19   C     C_3   0.141718 0.631004 0.547018 0.009360
C20   C     C_3   0.788175 0.792117 0.482522 0.022121
C21   C     C_R   0.777629 0.148391 0.562515 -0.007989
C22   C     C_R   0.249290 0.083857 0.422351 0.015000
C23   C     C_R   0.277625 0.648387 0.562514 -0.008060
C24   C     C_R   0.749287 0.583871 0.422355 0.014910
C25   C     C_R   0.984503 0.328985 0.416435 -0.041960
C26   C     C_R   0.985433 0.347030 0.566629 -0.043367
C27   C     C_R   0.484502 0.828985 0.416435 -0.041964
C28   C     C_R   0.485437 0.847021 0.566630 -0.043360
C29   C     C_R   0.999558 0.107082 0.427788 -0.088644
C30   C     C_R   0.020884 0.133153 0.573421 -0.104193
C31   C     C_R   0.499543 0.607080 0.427779 -0.088684
C32   C     C_R   0.520861 0.633124 0.573416 -0.104173
C33   C     C_R   0.012564 0.005782 0.470028 -0.145364
C34   C     C_R   0.022985 0.019654 0.542847 -0.143081
C35   C     C_R   0.512528 0.505769 0.470016 -0.145394
C36   C     C_R   0.522941 0.519625 0.542837 -0.143091
C37   C     C_R   0.999298 0.234802 0.533501 -0.020074
C38   C     C_R   0.993808 0.223600 0.458514 0.000182
C39   C     C_R   0.499292 0.734788 0.533499 -0.020094
C40   C     C_R   0.493802 0.723596 0.458511 0.000181
C41   C     C_R   0.971518 0.451301 0.522344 0.007700
C42   C     C_R   0.961358 0.435513 0.448549 0.011217
C43   C     C_R   0.471528 0.951295 0.522346 0.007669
C44   C     C_R   0.461362 0.935512 0.448552 0.011215
C45   C     C_R   0.789657 0.167295 0.638524 0.565249
C46   C     C_R   0.226938 0.125813 0.353503 0.552375
C47   C     C_R   0.289656 0.667292 0.638524 0.565198
C48   C     C_R   0.726937 0.625816 0.353504 0.552686
C49   C     C_R   0.971084 0.572769 0.547085 -0.056913
C50   C     C_R   0.937476 0.532814 0.405887 -0.069825
C51   C     C_R   0.471105 0.072762 0.547088 -0.056939
C52   C     C_R   0.437481 0.032818 0.405892 -0.069841
C53   C     C_R   0.958836 0.670188 0.501397 -0.134563
C54   C     C_R   0.940512 0.650265 0.431092 -0.129056
C55   C     C_R   0.458854 0.170183 0.501403 -0.134553
C56   C     C_R   0.440523 0.150267 0.431100 -0.129075
C57   C     C_R   0.742442 0.050442 0.069157 0.021056
C58   C     C_R   0.254644 0.058589 0.928435 0.020470
C59   C     C_R   0.246341 0.561111 0.072066 0.022408
C60   C     C_R   0.747353 0.587365 0.921331 0.015676
C61   C     C_R   0.788034 0.979430 0.029221 0.048578
C62   C     C_R   0.209757 0.987071 0.968724 0.044368
C63   C     C_R   0.291928 0.490289 0.031981 0.044716
C64   C     C_R   0.684518 0.564119 0.956424 0.020804
C65   C     C_R   0.791308 0.988797 0.956250 0.027396
C66   C     C_R   0.206932 0.996638 0.041710 0.020543
C67   C     C_R   0.294687 0.499066 0.959052 0.020361
C68   C     C_R   0.680626 0.572465 0.029394 0.042674
C69   C     C_R   0.693421 0.124548 0.957354 -0.168383
C70   C     C_R   0.300641 0.141582 0.038753 -0.152700
C71   C     C_R   0.199616 0.641783 0.961280 -0.162476
C72   C     C_R   0.798183 0.646494 0.035382 -0.152162
C73   C     C_R   0.691259 0.116747 0.032055 -0.167326
C74   C     C_R   0.303144 0.131466 0.964353 -0.154542
C75   C     C_R   0.197365 0.632978 0.035761 -0.165479
C76   C     C_R   0.802570 0.638136 0.960958 -0.151100
C77   C     C_3   0.864719 0.962276 0.037358 -0.270425
C78   C     C_3   0.132718 0.974325 0.960979 -0.272517
C79   C     C_3   0.369025 0.477204 0.039682 -0.273420
C80   C     C_3   0.639570 0.453397 0.956004 -0.270707
C81   C     C_3   0.868581 0.969475 0.957026 -0.270395
C82   C     C_3   0.129317 0.981994 0.041082 -0.269525
C83   C     C_3   0.372358 0.483842 0.959420 -0.269312
C84   C     C_3   0.636786 0.461835 0.036108 -0.273548
C85   C     C_R   0.749062 0.072055 0.919785 0.015590
C86   C     C_R   0.248736 0.080716 0.077630 0.015668
C87   C     C_R   0.252055 0.581633 0.922718 0.014566
C88   C     C_R   0.738125 0.606070 0.070522 0.020625
C89   C     C_R   0.966435 0.348347 0.643611 0.528365
C90   C     C_R   0.025734 0.344154 0.350436 0.525345
C91   C     C_R   0.466440 0.848345 0.643612 0.528414
C92   C     C_R   0.525733 0.844154 0.350434 0.525336
C93   C     C_R   0.992950 0.340181 0.079282 0.017765
C94   C     C_R   0.983875 0.342410 0.930384 0.021660
C95   C     C_R   0.495282 0.837003 0.078340 0.016079
C96   C     C_R   0.485148 0.842350 0.929640 0.022556
C97   C     C_R   0.975383 0.446676 0.042816 0.022895
C98   C     C_R   0.971280 0.446901 0.969915 0.045845
C99   C     C_R   0.470777 0.940622 0.043512 0.022985
C100  C     C_R   0.466620 0.942611 0.970601 0.050559
C101  C     C_R   0.990269 0.232112 0.966838 -0.169868
C102  C     C_R   0.992257 0.230651 0.041358 -0.169002
C103  C     C_R   0.499255 0.732797 0.964360 -0.168752
C104  C     C_R   0.503067 0.729717 0.038667 -0.162935
C105  C     C_3   0.007437 0.570540 0.043318 -0.269651
C106  C     C_3   0.003758 0.568744 0.962972 -0.275188
C107  C     C_3   0.494698 0.069774 0.045792 -0.268966
C108  C     C_3   0.491885 0.069773 0.965396 -0.268359
C109  C     C_R   0.760473 0.532248 0.852089 0.552256
C110  C     C_R   0.238831 0.529619 0.146814 0.540886
C111  C     C_R   0.261405 0.028742 0.853433 0.549193
C112  C     C_R   0.737725 0.025983 0.145360 0.541708
C113  C     C_R   0.771923 0.124023 0.852150 0.555252
C114  C     C_R   0.227476 0.126138 0.147088 0.545867
C115  C     C_R   0.272652 0.626227 0.852966 0.556821
C116  C     C_R   0.726147 0.629512 0.145644 0.542869
C117  C     C_R   0.967601 0.347183 0.855098 0.547076
C118  C     C_R   0.028961 0.347110 0.147257 0.544331
C119  C     C_R   0.468098 0.847185 0.854715 0.547589
C120  C     C_R   0.529516 0.846736 0.146953 0.546480
C121  C     C_R   0.756449 0.107810 0.415753 0.008428
C122  C     C_R   0.260007 0.045035 0.568443 0.016602
C123  C     C_R   0.256448 0.607811 0.415751 0.008564
C124  C     C_R   0.760002 0.545055 0.568448 0.016722
C125  C     C_R   0.703583 0.158044 0.457425 -0.040270
C126  C     C_R   0.300095 0.133683 0.537602 0.008297
C127  C     C_R   0.203579 0.658036 0.457422 -0.040180
C128  C     C_R   0.800086 0.633709 0.537608 0.008331
C129  C     C_R   0.713619 0.174713 0.530033 0.023427
C130  C     C_R   0.289785 0.158727 0.466444 0.056311
C131  C     C_R   0.213613 0.674709 0.530031 0.023387
C132  C     C_R   0.789777 0.658750 0.466449 0.056262
Cr1   Cr    Cr6+3 0.885860 0.491680 0.749630 0.996242
Cr2   Cr    Cr6+3 0.114140 0.491680 0.250370 1.004841
Cr3   Cr    Cr6+3 0.385860 0.991680 0.749630 0.996711
Cr4   Cr    Cr6+3 0.614140 0.991680 0.250370 1.005131
Cr5   Cr    Cr6+3 0.730490 0.332970 0.748720 0.972005
Cr6   Cr    Cr6+3 0.269510 0.332970 0.251280 1.005065
Cr7   Cr    Cr6+3 0.230490 0.832970 0.748720 0.974563
Cr8   Cr    Cr6+3 0.769510 0.832970 0.251280 1.005957
Cr9   Cr    Cr6+3 0.887570 0.179310 0.750150 0.995737
Cr10  Cr    Cr6+3 0.112430 0.179310 0.249850 0.998048
Cr11  Cr    Cr6+3 0.387570 0.679310 0.750150 0.995614
Cr12  Cr    Cr6+3 0.612430 0.679310 0.249850 1.000297
H1    H     H_    0.883966 0.099245 0.541752 0.163015
H2    H     H_    0.186105 0.921690 0.420390 0.139323
H3    H     H_    0.383960 0.599241 0.541753 0.163018
H4    H     H_    0.686115 0.421690 0.420394 0.139290
H5    H     H_    0.962649 0.761709 0.521134 0.105799
H6    H     H_    0.928323 0.725573 0.396273 0.101520
H7    H     H_    0.462672 0.261702 0.521144 0.105807
H8    H     H_    0.428334 0.225578 0.396283 0.101489
H9    H     H_    0.655228 0.179160 0.929790 0.114205
H10   H     H_    0.334985 0.204811 0.064920 0.125594
H11   H     H_    0.164121 0.702649 0.934580 0.126752
H12   H     H_    0.842384 0.679131 0.065561 0.117762
H13   H     H_    0.879161 0.872321 0.058856 0.133921
H14   H     H_    0.116287 0.885366 0.939755 0.132242
H15   H     H_    0.385287 0.388191 0.061313 0.129283
H16   H     H_    0.668213 0.372581 0.937976 0.167045
H17   H     H_    0.897686 0.049285 0.938544 0.166473
H18   H     H_    0.102111 0.064271 0.059205 0.166242
H19   H     H_    0.400174 0.565159 0.940528 0.169570
H20   H     H_    0.583771 0.480083 0.056535 0.132280
H21   H     H_    0.883784 0.882574 0.931721 0.124980
H22   H     H_    0.112389 0.896398 0.066751 0.126265
H23   H     H_    0.388941 0.397481 0.934355 0.122427
H24   H     H_    0.664755 0.386925 0.063639 0.135444
H25   H     H_    0.996192 0.148478 0.937801 0.113044
H26   H     H_    0.999551 0.145673 0.068735 0.116213
H27   H     H_    0.509500 0.651336 0.934219 0.117198
H28   H     H_    0.518592 0.646574 0.064340 0.131054
H29   H     H_    0.061754 0.571166 0.063150 0.170683
H30   H     H_    0.967871 0.637749 0.940542 0.130296
H31   H     H_    0.548291 0.081037 0.066308 0.166144
H32   H     H_    0.452584 0.132689 0.943037 0.136250
H33   H     H_    0.865861 0.062614 0.414814 0.133131
H34   H     H_    0.192790 0.894159 0.548613 0.159922
H35   H     H_    0.365858 0.562615 0.414813 0.133123
H36   H     H_    0.692808 0.394155 0.548616 0.159957
H37   H     H_    0.120036 0.524754 0.449009 0.162720
H38   H     H_    0.858334 0.788861 0.576347 0.116256
H39   H     H_    0.620025 0.024789 0.449014 0.162664
H40   H     H_    0.358347 0.288833 0.576341 0.116265
H41   H     H_    0.593466 0.185306 0.443085 0.148862
H42   H     H_    0.264816 0.289450 0.599137 0.137166
H43   H     H_    0.093461 0.685261 0.443073 0.148864
H44   H     H_    0.764804 0.789473 0.599144 0.137201
H45   H     H_    0.639916 0.043904 0.576700 0.133885
H46   H     H_    0.330189 0.343298 0.455490 0.145701
H47   H     H_    0.139916 0.543885 0.576696 0.133856
H48   H     H_    0.830176 0.843321 0.455496 0.145664
H49   H     H_    0.014321 0.916805 0.446152 0.098788
H50   H     H_    0.030149 0.943567 0.577550 0.109491
H51   H     H_    0.514272 0.416794 0.446136 0.098773
H52   H     H_    0.530075 0.443523 0.577536 0.109522
H53   H     H_    0.989260 0.091831 0.371833 0.130701
H54   H     H_    0.035906 0.139199 0.628834 0.137909
H55   H     H_    0.489247 0.591840 0.371822 0.130580
H56   H     H_    0.535881 0.639154 0.628830 0.138142
H57   H     H_    0.922584 0.518863 0.350716 0.122882
H58   H     H_    0.986182 0.598392 0.599645 0.178215
H59   H     H_    0.422585 0.018871 0.350722 0.122913
H60   H     H_    0.486214 0.098376 0.599646 0.178212
O1    O     O_R   0.957020 0.451640 0.669920 -0.540858
O2    O     O_R   0.042980 0.451640 0.330080 -0.520957
O3    O     O_R   0.457020 0.951640 0.669920 -0.540905
O4    O     O_R   0.542980 0.951640 0.330080 -0.520948
O5    O     O_R   0.736470 0.210100 0.823360 -0.511140
O6    O     O_R   0.263530 0.210100 0.176640 -0.511230
O7    O     O_R   0.236470 0.710100 0.823360 -0.509170
O8    O     O_R   0.763530 0.710100 0.176640 -0.510885
O9    O     O_R   0.831960 0.093290 0.830130 -0.520009
O10   O     O_R   0.168040 0.093290 0.169870 -0.525429
O11   O     O_R   0.331960 0.593290 0.830130 -0.520130
O12   O     O_R   0.668040 0.593290 0.169870 -0.520699
O13   O     O_R   0.945600 0.250580 0.824860 -0.508169
O14   O     O_R   0.054400 0.250580 0.175140 -0.512917
O15   O     O_R   0.445600 0.750580 0.824860 -0.509009
O16   O     O_R   0.554400 0.750580 0.175140 -0.511870
O17   O     O_3   0.834640 0.334650 0.749500 -0.263128
O18   O     O_3   0.165360 0.334650 0.250500 -0.240468
O19   O     O_3   0.334640 0.834650 0.749500 -0.264711
O20   O     O_3   0.665360 0.834650 0.250500 -0.242534
O21   O     O_R   0.821450 0.543440 0.674610 -0.498990
O22   O     O_R   0.178550 0.543440 0.325390 -0.497502
O23   O     O_R   0.321450 0.043440 0.674610 -0.498680
O24   O     O_R   0.678550 0.043440 0.325390 -0.497163
O25   O     O_R   0.715320 0.458650 0.668100 -0.554040
O26   O     O_R   0.284680 0.458650 0.331900 -0.524331
O27   O     O_R   0.215320 0.958650 0.668100 -0.554361
O28   O     O_R   0.784680 0.958650 0.331900 -0.523914
O29   O     O_R   0.737170 0.209590 0.674530 -0.510109
O30   O     O_R   0.262830 0.209590 0.325470 -0.494711
O31   O     O_R   0.237170 0.709590 0.674530 -0.510220
O32   O     O_R   0.762830 0.709590 0.325470 -0.494416
O33   O     O_R   0.832710 0.092740 0.669580 -0.523319
O34   O     O_R   0.167290 0.092740 0.330420 -0.528327
O35   O     O_R   0.332710 0.592740 0.669580 -0.523112
O36   O     O_R   0.667290 0.592740 0.330420 -0.528516
O37   O     O_R   0.946290 0.250060 0.676040 -0.517451
O38   O     O_R   0.053710 0.250060 0.323960 -0.510991
O39   O     O_R   0.446290 0.750060 0.676040 -0.517411
O40   O     O_R   0.553710 0.750060 0.323960 -0.511265
O41   O     O_R   0.956270 0.452200 0.830470 -0.519545
O42   O     O_R   0.043730 0.452200 0.169530 -0.528815
O43   O     O_R   0.456270 0.952200 0.830470 -0.519669
O44   O     O_R   0.543730 0.952200 0.169530 -0.529211
O45   O     O_R   0.820760 0.543950 0.823440 -0.503679
O46   O     O_R   0.179240 0.543950 0.176560 -0.511873
O47   O     O_R   0.320760 0.043950 0.823440 -0.502942
O48   O     O_R   0.679240 0.043950 0.176560 -0.511412
O49   O     O_R   0.714570 0.459210 0.828640 -0.527704
O50   O     O_R   0.285430 0.459210 0.171360 -0.523612
O51   O     O_R   0.214570 0.959210 0.828640 -0.522806
O52   O     O_R   0.785430 0.959210 0.171360 -0.523670
H61   H     H_    0.651935 0.166513 0.060730 0.113365
H62   H     H_    0.340360 0.184403 0.934756 0.116209
H63   H     H_    0.159269 0.685067 0.064919 0.115515
H64   H     H_    0.850950 0.661362 0.935375 0.124424
H65   H     H_    0.889834 0.039813 0.064876 0.136570
H66   H     H_    0.108767 0.053290 0.933491 0.134165
H67   H     H_    0.393160 0.556280 0.066720 0.139013
H68   H     H_    0.588356 0.469126 0.929610 0.125350
H69   H     H_    0.972671 0.639445 0.067612 0.120720
H70   H     H_    0.055715 0.564804 0.937178 0.137449
H71   H     H_    0.455514 0.130579 0.070413 0.124319
H72   H     H_    0.543992 0.075628 0.940179 0.135442
N1    N     N_2   0.597546 0.224544 0.576110 -0.540339
H73   H     H_    0.594335 0.302742 0.547092 0.243274
C133  C     C_3   0.587785 0.232883 0.652350 -0.277191
H74   H     H_    0.533279 0.260484 0.663375 0.098181
H75   H     H_    0.621700 0.303786 0.674989 0.200654
H76   H     H_    0.597811 0.144750 0.679041 0.159081
N2    N     N_2   0.220356 0.349988 0.476048 -0.502642
H77   H     H_    0.221850 0.431105 0.502258 0.249037
C134  C     C_3   0.157714 0.284470 0.494765 -0.275927
H78   H     H_    0.115444 0.349847 0.504645 0.114671
H79   H     H_    0.164213 0.230803 0.544176 0.141483
H80   H     H_    0.140957 0.225667 0.450394 0.199348
N3    N     N_2   0.097531 0.724515 0.576094 -0.540348
H81   H     H_    0.094304 0.802695 0.547063 0.243258
C135  C     C_3   0.087779 0.732881 0.652334 -0.277261
H82   H     H_    0.033277 0.760505 0.663361 0.098147
H83   H     H_    0.121705 0.803778 0.674961 0.200496
H84   H     H_    0.097796 0.644751 0.679032 0.159012
N4    N     N_2   0.720342 0.850002 0.476052 -0.502768
H85   H     H_    0.721834 0.931118 0.502261 0.249037
C136  C     C_3   0.657702 0.784480 0.494772 -0.275947
H86   H     H_    0.615425 0.849858 0.504626 0.114722
H87   H     H_    0.664198 0.730848 0.544199 0.141526
H88   H     H_    0.640957 0.725640 0.450412 0.199271

loop_
_geom_bond_atom_site_label_1
_geom_bond_atom_site_label_2
_ccdc_geom_bond_type
C103  H27   S    
C3    O23   A    
C115  O7    A    
C116  O12   A    
C2    C123  S    
C76   H64   S    
C109  O45   A    
C77   H65   S    
C4    O28   A    
Cr1   O21   S    
C6    H2    S    
C94   C117  S    
C73   H61   S    
C133  H74   S    
C29   C33   A    
C89   O1    A    
C35   C36   A    
C70   C74   A    
C9    C121  A    
N4    C136  S    
C117  O13   A    
C87   C115  S    
C97   C105  S    
C122  C126  A    
C34   H50   S    
Cr4   O24   S    
C15   C127  S    
C22   C130  A    
C20   C132  S    
C41   C49   A    
C47   O31   A    
C111  O51   A    
C13   H41   S    
Cr11  O35   S    
C23   C47   S    
C17   N1    S    
C16   H44   S    
C62   C66   A    
C60   C76   A    
C7    H3    S    
C93   C102  A    
C43   C44   A    
C6    C10   A    
C37   C38   A    
C84   H24   S    
C66   C82   S    
C78   C82   S    
C16   C20   S    
C45   O33   A    
C115  O11   A    
C55   H7    S    
N1    C133  S    
Cr7   O31   S    
C18   C130  S    
C11   H35   S    
Cr2   O46   S    
C9    H33   S    
C51   H60   S    
C2    O22   A    
Cr11  O11   S    
Cr7   O19   S    
C18   H46   S    
C10   C122  A    
C98   C106  S    
C118  O42   A    
C57   C61   A    
Cr3   O19   S    
C59   C63   A    
C14   C126  S    
C60   C64   A    
C52   H59   S    
Cr7   O7    S    
C1    C124  S    
C110  O50   A    
C49   C53   A    
Cr12  O40   S    
C95   C99   A    
C127  C131  A    
C80   H16   S    
C125  C129  A    
C5    C21   A    
C32   H56   S    
C126  C130  A    
Cr4   O48   S    
Cr7   O27   S    
Cr2   O42   S    
C19   H47   S    
C102  H26   S    
C67   C83   S    
C72   H12   S    
C114  O10   A    
C97   C98   A    
C54   H6    S    
C53   C54   A    
C121  C125  A    
C25   C90   S    
Cr3   O23   S    
C64   C68   A    
Cr12  O16   S    
Cr6   O18   S    
C105  H69   S    
C108  H32   S    
Cr12  O36   S    
C57   C73   A    
C108  H72   S    
C119  O43   A    
Cr10  O14   S    
C60   C109  S    
C27   C44   A    
C78   H14   S    
C61   C77   S    
Cr2   O18   S    
C29   C38   A    
C107  C108  S    
C51   C55   A    
C44   C52   A    
C105  H29   S    
C134  H78   S    
C135  H84   S    
C53   H5    S    
C78   H66   S    
C21   C45   S    
C74   H62   S    
C19   N3    S    
C100  C108  S    
C5    H1    S    
C30   C34   A    
C24   C48   S    
Cr3   O43   S    
Cr6   O26   S    
C3    O27   A    
C39   C40   A    
Cr12  O12   S    
Cr8   O20   S    
C82   H18   S    
Cr10  O38   S    
C83   H23   S    
Cr6   O6    S    
C36   H52   S    
C5    C9    A    
C61   C65   A    
C25   C38   A    
C123  C127  A    
Cr4   O20   S    
C27   C40   A    
C8    C12   A    
C136  H86   S    
C23   C131  A    
C101  H25   S    
C21   C129  A    
C42   C50   A    
C47   O35   A    
C12   H36   S    
C75   H63   S    
C90   O38   A    
Cr11  O39   S    
Cr1   O45   S    
C69   C85   A    
C58   C74   A    
Cr3   O3    S    
C30   H54   S    
C62   C78   S    
Cr3   O47   S    
C66   C86   A    
C91   O3    A    
N3    C135  S    
C124  C128  A    
C85   C113  S    
C113  O5    A    
C7    C23   A    
C96   C100  A    
C8    C24   A    
C28   C91   S    
C2    O26   A    
Cr11  O15   S    
C134  H80   S    
Cr9   O17   S    
C135  H82   S    
C120  O44   A    
C112  O52   A    
Cr1   O41   S    
C58   C62   A    
C133  H76   S    
C55   C56   A    
C101  C102  A    
C93   C97   A    
C79   H67   S    
C41   C42   A    
C96   C119  S    
N2    H77   S    
C80   H68   S    
C80   C84   S    
C31   H55   S    
C110  O46   A    
C15   C19   S    
C50   C54   A    
C45   O29   A    
C79   H15   S    
Cr2   O2    S    
C94   C98   A    
C6    C22   A    
Cr5   O17   S    
C136  H88   S    
C31   C40   A    
Cr4   O44   S    
C32   C39   A    
Cr9   O13   S    
C90   O2    A    
C13   H39   S    
C118  O14   A    
Cr1   O17   S    
C69   C73   A    
C56   H8    S    
C35   H51   S    
C104  H28   S    
C33   H49   S    
N1    H73   S    
C64   C80   S    
C8    H4    S    
C48   O36   A    
C106  H70   S    
C58   C111  S    
C68   C84   S    
Cr10  O10   S    
Cr5   O25   S    
Cr4   O4    S    
C28   C39   A    
Cr9   O37   S    
C30   C37   A    
Cr5   O5    S    
C20   N4    S    
Cr7   O51   S    
C24   C132  A    
C16   H38   S    
C65   C81   S    
N4    H85   S    
C77   C81   S    
C120  O16   A    
C71   H11   S    
C106  H30   S    
C71   C87   A    
C22   C46   S    
Cr8   O28   S    
C31   C35   A    
Cr6   O30   S    
C32   C36   A    
Cr8   O8    S    
C82   H22   S    
C50   H57   S    
C1    O21   A    
Cr10  O34   S    
C83   H19   S    
C81   H17   S    
C11   C123  A    
C25   C42   A    
C20   H48   S    
C26   C37   A    
C117  O41   A    
C95   C120  S    
C99   C107  S    
C105  C106  S    
C28   C43   A    
C116  O8    A    
C79   C83   S    
C43   C51   A    
C107  H31   S    
C15   H37   S    
C109  O49   A    
C4    C121  S    
C4    O24   A    
C69   H9    S    
C13   C17   S    
C96   C103  A    
C103  C104  A    
Cr8   O32   S    
Cr6   O50   S    
C111  O47   A    
C13   C125  S    
C135  H83   S    
C14   C18   S    
C113  O9    A    
C72   C76   A    
C63   C79   S    
C26   C89   S    
C7    C11   A    
Cr2   O22   S    
N2    C134  S    
Cr11  O19   S    
C14   H42   S    
C57   C112  S    
Cr1   O1    S    
C59   C110  S    
C94   C101  A    
Cr8   O52   S    
C84   H20   S    
C3    C122  S    
C119  O15   A    
C128  C132  A    
C72   C88   A    
C112  O48   A    
C19   C131  S    
C63   C67   A    
C17   C129  S    
C10   H34   S    
Cr9   O9    S    
C17   H45   S    
N3    H81   S    
C15   H43   S    
C88   C116  S    
C92   O4    A    
C99   C100  A    
C12   C124  A    
C46   O30   A    
C33   C34   A    
C27   C92   S    
C16   C128  S    
C48   O32   A    
C91   O39   A    
C29   H53   S    
C134  H79   S    
C107  H71   S    
C68   C88   A    
C89   O37   A    
C93   C118  S    
Cr5   O29   S    
C70   C86   A    
C59   C75   A    
C95   C104  A    
C18   N2    S    
C133  H75   S    
C49   H58   S    
Cr9   O33   S    
C70   H10   S    
C14   H40   S    
C65   C85   A    
C67   C87   A    
C86   C114  S    
C114  O6    A    
C71   C75   A    
C92   O40   A    
C136  H87   S    
C46   O34   A    
Cr12  O20   S    
C1    O25   A    
C81   H21   S    
Cr10  O18   S    
Cr5   O49   S    
C52   C56   A    
C26   C41   A    
C77   H13   S    
