data_mof_unit_15448.cif
_audit_creation_date              2012-12-11T14:32:52-0500
_audit_creation_method            fapswitch 2.2
_symmetry_space_group_name_H-M    P1
_symmetry_Int_Tables_number       1
_space_group_crystal_system       triclinic
_cell_length_a                    6.93806
_cell_length_b                    13.811172
_cell_length_c                    18.081087
_cell_angle_alpha                 112.715727
_cell_angle_beta                  95.366958
_cell_angle_gamma                 90.537587
_cell_volume                      1589.22632507

loop_
_atom_site_label
_atom_site_type_symbol
_atom_type_description
_atom_site_fract_x
_atom_site_fract_y
_atom_site_fract_z
_atom_type_partial_charge
O1    O     O_R   0.484560 0.544530 0.414330 -0.542426
O2    O     O_R   0.197040 0.638810 0.585080 -0.535492
O3    O     O_R   0.026800 0.455470 0.585670 -0.528196
C1    C     C_R   0.375290 0.681162 0.607444 0.752511
O4    O     O_R   0.155000 0.556150 0.414940 -0.544762
O5    O     O_R   0.984450 0.372220 0.414320 -0.496505
C2    C     C_R   0.318107 0.565856 0.387280 0.761694
O6    O     O_R   0.526900 0.627780 0.585680 -0.550125
O7    O     O_3   0.339170 0.439750 0.499990 -0.352919
V1    V     V_3+5 0.064350 0.511180 0.500000 1.456833
O8    O     O_R   0.654880 0.361190 0.414920 -0.545127
C3    C     C_R   0.818423 0.322945 0.388096 0.799117
O9    O     O_R   0.696930 0.443850 0.585060 -0.543215
C4    C     C_R   0.872623 0.431814 0.611342 0.683774
V2    V     V_3+5 0.564340 0.488820 0.500000 1.437733
O10   O     O_3   0.839390 0.560250 0.500010 -0.392099
C5    C     C_R   0.045932 0.863732 0.824435 -0.026741
C6    C     C_R   0.903514 0.395284 0.678297 -0.049314
C7    C     C_R   0.940997 0.821936 0.683742 -0.159960
C8    C     C_R   0.995198 0.789822 0.746459 -0.141360
C9    C     C_R   0.047692 0.971681 0.838823 -0.189953
C10   C     C_R   0.998561 0.006719 0.774927 0.083106
C11   C     C_R   0.942738 0.928866 0.697007 0.122731
C12   C     C_R   0.001666 0.115422 0.785211 0.066838
C13   C     C_R   0.947997 0.143618 0.717525 0.066330
C14   C     C_R   0.892191 0.062219 0.641979 -0.178571
C15   C     C_R   0.890028 0.957491 0.632195 -0.208824
C16   C     C_R   0.058268 0.196786 0.860677 -0.175986
C17   C     C_R   0.062758 0.301459 0.870260 -0.215560
C18   C     C_R   0.010230 0.330104 0.805448 0.120890
C19   C     C_R   0.951480 0.252316 0.727785 0.100862
C20   C     C_R   0.015226 0.436989 0.818440 -0.157010
C21   C     C_R   0.960426 0.469140 0.755799 -0.121883
C22   C     C_R   0.899787 0.287397 0.664098 -0.220829
H1    H     H_    0.846487 0.897850 0.572764 0.116409
H2    H     H_    0.858915 0.233539 0.602905 0.096059
H3    H     H_    0.966133 0.552196 0.767611 0.102885
H4    H     H_    0.108111 0.361035 0.929528 0.120661
H5    H     H_    0.897103 0.762668 0.624301 0.136440
H6    H     H_    0.992939 0.706702 0.734387 0.106139
H7    H     H_    0.084635 0.025607 0.900300 0.098287
H8    H     H_    0.848763 0.076720 0.588613 0.123950
H9    H     H_    0.102278 0.182216 0.913969 0.125153
H10   H     H_    0.061801 0.496209 0.877616 0.135865
C23   C     C_2   0.131895 0.033372 0.188383 -0.362268
C24   C     C_2   0.981015 0.059903 0.234712 0.287422
H11   H     H_    0.682978 0.183600 0.286691 0.099597
C25   C     C_2   0.819991 0.217381 0.322219 -0.364771
C26   C     C_2   0.985627 0.164185 0.304375 0.278956
H12   H     H_    0.257838 0.087112 0.202392 0.096708
C27   C     C_R   0.417773 0.790073 0.672324 -0.167851
C28   C     C_R   0.528900 0.477233 0.818089 -0.148890
C29   C     C_R   0.538730 0.900068 0.811244 0.311027
C30   C     C_R   0.510912 0.800728 0.747985 0.255906
C31   C     C_R   0.391892 0.883979 0.657708 -0.283323
C32   C     C_R   0.446989 0.986626 0.719516 0.039048
C33   C     C_R   0.510977 0.991515 0.797411 0.049942
C34   C     C_R   0.441525 0.084911 0.708461 0.095504
C35   C     C_R   0.496451 0.183385 0.775649 0.085512
C36   C     C_R   0.545751 0.181497 0.851803 -0.213352
C37   C     C_R   0.553113 0.088208 0.862229 -0.159911
C38   C     C_R   0.385503 0.088635 0.632949 -0.173550
C39   C     C_R   0.376022 0.184135 0.623855 -0.206059
C40   C     C_R   0.425916 0.279568 0.689094 0.039979
C41   C     C_R   0.494258 0.281462 0.765539 0.100236
C42   C     C_R   0.398919 0.373584 0.678739 -0.123452
C43   C     C_R   0.432315 0.470683 0.743157 0.347831
C44   C     C_R   0.555683 0.381658 0.828498 -0.256318
H13   H     H_    0.596283 0.092970 0.922733 0.172328
H14   H     H_    0.621730 0.388479 0.886733 0.114532
H15   H     H_    0.325857 0.183399 0.565019 0.126735
H16   H     H_    0.332434 0.874860 0.597982 0.119983
H17   H     H_    0.578787 0.251435 0.905505 0.126478
H18   H     H_    0.345168 0.018586 0.579911 0.121360
H19   H     H_    0.336195 0.371528 0.621045 0.160213
H20   H     H_    0.616951 0.607273 0.317256 0.185161
C45   C     C_2   0.314757 0.606539 0.322184 -0.377476
C46   C     C_2   0.478675 0.625704 0.293607 -0.188058
C47   C     C_2   0.631691 0.654816 0.183768 0.112319
C48   C     C_2   0.479616 0.669922 0.229465 0.349909
H21   H     H_    0.174125 0.620484 0.297440 0.170415
O11   O     O_R   0.421600 0.630430 0.917010 -0.557906
O12   O     O_R   0.793840 0.702190 0.087630 -0.544170
O13   O     O_R   0.964010 0.886170 0.088190 -0.495573
C49   C     C_R   0.630997 0.694064 0.116622 0.716900
O14   O     O_R   0.751460 0.619510 0.917500 -0.542968
O15   O     O_R   0.921330 0.802900 0.916840 -0.527778
C50   C     C_R   0.572491 0.581718 0.888320 0.699961
O16   O     O_R   0.464290 0.713700 0.088350 -0.512032
O17   O     O_3   0.609200 0.818520 0.002630 -0.364169
V3    V     V_3+5 0.884140 0.747190 0.002530 1.480022
O18   O     O_R   0.251150 0.814630 0.917340 -0.553293
C51   C     C_R   0.075619 0.826882 0.891261 0.695614
O19   O     O_R   0.293530 0.897310 0.087470 -0.539968
C52   C     C_R   0.131516 0.932290 0.117729 0.829633
V4    V     V_3+5 0.384070 0.769710 0.002370 1.472180
O20   O     O_3   0.109180 0.698190 0.002460 -0.383524
O21   O     O_3   0.158314 0.205813 0.352002 -0.630480
H22   H     H_    0.254098 0.150472 0.339786 0.271655
O22   O     O_3   0.825024 0.988808 0.218458 -0.629658
H23   H     H_    0.746668 0.012346 0.264789 0.272507
O23   O     O_3   0.356858 0.555187 0.730297 -0.641504
H24   H     H_    0.325808 0.608400 0.782127 0.301737
O24   O     O_3   0.606452 0.910190 0.887701 -0.647694
H25   H     H_    0.592118 0.840520 0.888969 0.364934
O25   O     O_3   0.582724 0.716829 0.763212 -0.663803
H26   H     H_    0.642424 0.669202 0.716078 0.310181
O26   O     O_3   0.328901 0.729224 0.217691 -0.649173
H27   H     H_    0.256864 0.753594 0.265827 0.286801
O27   O     O_3   0.786884 0.601061 0.199826 -0.674493
H28   H     H_    0.880544 0.592181 0.159864 0.296830

loop_
_geom_bond_atom_site_label_1
_geom_bond_atom_site_label_2
_ccdc_geom_bond_type
C34   C38   A    
C31   C32   A    
C13   C19   A    
O15   V3    S    
C4    C6    S    
O2    C1    A    
C7    C8    A    
C1    O6    A    
C23   C24   D    
C32   C33   A    
C24   C26   S    
C14   C15   A    
C17   C18   A    
C16   C17   A    
H20   C46   S    
O14   V3    S    
O5    C3    A    
C18   C19   A    
C8    H6    S    
C46   C48   S    
O25   H26   S    
C29   O24   S    
V2    O10   S    
C36   H17   S    
O18   V4    S    
C5    C8    A    
O26   H27   S    
C33   C37   A    
O27   H28   S    
O18   C51   A    
C26   O21   S    
O8    V2    S    
C29   C30   A    
C17   H4    S    
O1    V2    S    
O13   V3    S    
C11   C15   A    
O7    V1    S    
C22   H2    S    
C31   H16   S    
C28   C44   A    
C3    C25   S    
C2    C45   S    
C42   C43   A    
C35   C36   A    
O9    C4    A    
O19   C52   A    
O24   H25   S    
O11   V4    S    
C30   O25   S    
O14   C50   A    
C28   C50   S    
C12   C13   A    
O4    C2    A    
C49   O16   A    
C1    C27   S    
C15   H1    S    
C13   C14   A    
C45   C46   D    
C21   H3    S    
C47   C48   D    
C36   C37   A    
O13   C52   A    
C40   C42   A    
C7    C11   A    
C38   C39   A    
H11   C25   S    
C45   H21   S    
C41   C44   A    
V4    O20   S    
C20   H10   S    
C19   C22   A    
V3    O20   S    
O19   V4    S    
C6    C22   A    
C28   C43   A    
C7    H5    S    
C9    H7    S    
C25   C26   D    
O12   C49   A    
C39   H15   S    
O6    V2    S    
O9    V2    S    
C10   C12   A    
C5    C51   S    
O2    V1    S    
C47   C49   S    
C14   H8    S    
C37   H13   S    
C24   O22   S    
C29   C33   A    
C47   O27   S    
O1    C2    A    
C12   C16   A    
O5    V1    S    
O8    C3    A    
O17   V4    S    
O3    C4    A    
O12   V3    S    
C48   O26   S    
C16   H9    S    
C27   C30   A    
C20   C21   A    
O16   V4    S    
C34   C35   A    
O4    V1    S    
O3    V1    S    
V1    O10   S    
C35   C41   A    
C18   C20   A    
O17   V3    S    
C23   H12   S    
O11   C50   A    
C42   H19   S    
O15   C51   A    
C40   C41   A    
O22   H23   S    
C32   C34   A    
C27   C31   A    
O7    V2    S    
O23   H24   S    
C6    C21   A    
C5    C9    A    
C39   C40   A    
C44   H14   S    
O21   H22   S    
C10   C11   A    
C38   H18   S    
C9    C10   A    
C43   O23   S    
C23   C52   S    
