data_mof_unit_46664.cif
_audit_creation_date              2012-12-10T19:32:10-0500
_audit_creation_method            fapswitch 2.2
_symmetry_space_group_name_H-M    P1
_symmetry_Int_Tables_number       1
_space_group_crystal_system       triclinic
_cell_length_a                    23.455663
_cell_length_b                    15.737912
_cell_length_c                    14.918911
_cell_angle_alpha                 89.293858
_cell_angle_beta                  89.794971
_cell_angle_gamma                 89.379382
_cell_volume                      5506.43997193

loop_
_atom_site_label
_atom_site_type_symbol
_atom_type_description
_atom_site_fract_x
_atom_site_fract_y
_atom_site_fract_z
_atom_type_partial_charge
C1    C     C_R   0.500553 0.337600 0.500570 0.859557
C2    C     C_R   0.498894 0.662455 0.499453 0.860482
C3    C     C_R   0.237186 0.529986 0.428808 0.387493
C4    C     C_R   0.764708 0.479338 0.432023 0.356856
C5    C     C_R   0.296398 0.535328 0.430044 0.323852
C6    C     C_R   0.705523 0.471974 0.430818 0.317219
C7    C     C_R   0.327230 0.494887 0.499998 -0.439890
C8    C     C_R   0.672892 0.507427 0.501041 -0.429581
C9    C     C_R   0.298166 0.451264 0.569615 0.319265
C10   C     C_R   0.700186 0.547532 0.573527 0.316515
C11   C     C_R   0.238889 0.457531 0.574341 0.378634
C12   C     C_R   0.759574 0.544994 0.579065 0.372441
C13   C     C_R   0.208620 0.494371 0.502773 -0.031392
C14   C     C_R   0.791491 0.512619 0.507553 -0.020282
C15   C     C_3   0.541879 0.967294 0.531790 0.094827
C16   C     C_3   0.443919 0.033654 0.470016 0.069154
C17   C     C_3   0.536544 0.025716 0.449209 0.084167
C18   C     C_3   0.449158 0.974665 0.552502 0.056331
C19   C     C_1   0.499947 0.249061 0.502254 -0.200146
C20   C     C_1   0.494385 0.750992 0.498046 -0.200708
C21   C     C_3   0.501106 0.024026 0.586479 0.447128
C22   C     C_3   0.484682 0.976557 0.415249 0.447105
C23   C     C_R   0.389223 0.498476 0.500107 0.953116
C24   C     C_R   0.610847 0.501808 0.500013 0.959701
C25   C     C_3   0.496013 0.083629 0.503478 -0.117991
C26   C     C_3   0.490071 0.916717 0.498221 -0.116836
C27   C     C_1   0.498673 0.174061 0.503658 0.030195
C28   C     C_1   0.490992 0.826020 0.497316 0.028605
C29   C     C_3   0.501861 0.419137 0.971626 0.080497
C30   C     C_3   0.497574 0.580133 0.028036 0.081828
C31   C     C_3   0.547765 0.461527 0.028839 0.073331
C32   C     C_3   0.451609 0.537578 0.970924 0.073321
C33   C     C_3   0.454346 0.457246 0.031557 0.470594
C34   C     C_3   0.545070 0.541888 0.968133 0.470217
C35   C     C_3   0.500509 0.499977 0.090301 -0.204730
C36   C     C_3   0.498797 0.499177 0.909588 -0.202188
C37   C     C_1   0.500332 0.500030 0.189961 0.164008
C38   C     C_1   0.499314 0.499560 0.810002 0.165803
C39   C     C_R   0.881076 0.585257 0.506885 0.582372
C40   C     C_R   0.118933 0.422823 0.498040 0.576821
C41   C     C_R   0.879168 0.434232 0.519856 0.596296
C42   C     C_R   0.121132 0.573044 0.516620 0.589246
C43   C     C_R   0.938781 0.428936 0.513296 -0.110641
C44   C     C_R   0.061384 0.578626 0.513941 -0.110514
C45   C     C_R   0.970012 0.505480 0.512120 -0.100270
C46   C     C_R   0.030121 0.502166 0.510376 -0.098731
C47   C     C_R   0.941007 0.585252 0.512359 -0.108195
C48   C     C_R   0.059033 0.422488 0.504885 -0.108765
C49   C     C_R   0.967478 0.349645 0.508255 0.192561
C50   C     C_R   0.032504 0.658004 0.515953 0.191029
C51   C     C_R   0.027202 0.346088 0.505789 0.152246
C52   C     C_R   0.972762 0.661455 0.516796 0.153776
N1    N     N_R   0.852199 0.510872 0.512485 -0.300369
N2    N     N_R   0.147880 0.496787 0.505845 -0.302208
N3    N     N_1   0.500020 0.500000 0.268010 -0.091662
N4    N     N_1   0.499980 0.500000 0.731990 -0.092006
O1    O     O_R   0.500000 0.376780 0.574460 -0.622871
O2    O     O_R   0.500000 0.623220 0.425540 -0.615227
O3    O     O_R   0.500010 0.376780 0.425520 -0.619670
O4    O     O_R   0.499990 0.623220 0.574480 -0.628170
O5    O     O_R   0.416150 0.499970 0.574490 -0.597510
O6    O     O_R   0.583850 0.500030 0.425510 -0.586435
O7    O     O_R   0.416160 0.499980 0.425550 -0.581110
O8    O     O_R   0.583840 0.500020 0.574450 -0.581299
O9    O     O_2   0.851242 0.658014 0.494381 -0.599440
O10   O     O_2   0.148799 0.350779 0.482845 -0.597829
O11   O     O_2   0.847754 0.363888 0.533794 -0.552434
O12   O     O_2   0.152892 0.642605 0.530743 -0.549086
Zn1   Zn    Zn3+2 0.499990 0.500000 0.599450 0.983184
Zn2   Zn    Zn3+2 0.500010 0.500000 0.400550 0.988974
N5    N     N_2   0.936224 0.272787 0.500393 -0.245888
H1    H     H_    0.952236 0.221802 0.536700 0.240225
C53   C     C_3   0.922303 0.251074 0.409130 -0.703565
H2    H     H_    0.961812 0.236519 0.370681 0.210959
H3    H     H_    0.898836 0.304275 0.375612 0.260189
H4    H     H_    0.894632 0.194278 0.409378 0.234166
N6    N     N_2   0.063466 0.735555 0.513146 -0.247281
H5    H     H_    0.048285 0.782068 0.555331 0.239173
C54   C     C_3   0.074784 0.767378 0.423504 -0.695119
H6    H     H_    0.034243 0.785754 0.389766 0.210986
H7    H     H_    0.097331 0.718355 0.383269 0.259558
H8    H     H_    0.102372 0.824109 0.427104 0.233159
N7    N     N_2   0.599217 0.421206 0.063089 -0.301991
H9    H     H_    0.592113 0.379729 0.115842 0.236722
C55   C     C_3   0.638776 0.388723 0.996829 -0.791862
H10   H     H_    0.680559 0.375611 0.029136 0.237376
H11   H     H_    0.645397 0.435520 0.941623 0.269626
H12   H     H_    0.622966 0.328706 0.968407 0.239372
N8    N     N_2   0.399764 0.577311 0.937438 -0.306101
H13   H     H_    0.406200 0.617902 0.883716 0.236394
C56   C     C_3   0.360953 0.610845 0.004274 -0.802701
H14   H     H_    0.318222 0.620418 0.973830 0.235327
H15   H     H_    0.375968 0.672879 0.028765 0.241123
H16   H     H_    0.356650 0.566420 0.062218 0.271805
N9    N     N_2   0.503714 0.333245 0.937657 -0.301979
H17   H     H_    0.533506 0.324561 0.887581 0.238280
C57   C     C_3   0.503366 0.265468 0.004069 -0.785793
H18   H     H_    0.497883 0.203747 0.970105 0.233292
H19   H     H_    0.467646 0.273815 0.052057 0.273928
H20   H     H_    0.544077 0.263269 0.041535 0.235594
N10   N     N_2   0.495603 0.666187 0.061515 -0.302706
H21   H     H_    0.465827 0.674902 0.111617 0.238568
C58   C     C_3   0.495481 0.733615 0.994619 -0.793910
H22   H     H_    0.500698 0.795601 0.028175 0.237013
H23   H     H_    0.454737 0.735184 0.957268 0.239868
H24   H     H_    0.531123 0.725444 0.946380 0.270576
O13   O     O_3   0.590757 0.584874 0.926384 -0.643550
C59   C     C_3   0.628582 0.616534 0.990894 0.075503
H25   H     H_    0.647955 0.564125 0.031281 0.179751
H26   H     H_    0.606610 0.661384 0.036804 0.171570
C60   C     C_3   0.676264 0.663680 0.941916 -0.337219
H27   H     H_    0.697218 0.620174 0.893451 0.240144
H28   H     H_    0.657829 0.718501 0.903787 0.220736
C61   C     C_3   0.720870 0.695816 0.007070 -0.973811
H29   H     H_    0.701066 0.740824 0.055102 0.269458
H30   H     H_    0.754920 0.729253 0.969168 0.266674
H31   H     H_    0.740443 0.641722 0.044719 0.265921
O14   O     O_3   0.408316 0.412532 0.070338 -0.645527
C62   C     C_3   0.370708 0.384728 0.003209 0.093424
H32   H     H_    0.393544 0.359538 0.943463 0.167523
H33   H     H_    0.342482 0.438009 0.981325 0.175524
C63   C     C_3   0.333605 0.314014 0.042097 -0.340619
H34   H     H_    0.360947 0.258451 0.060585 0.222086
H35   H     H_    0.311873 0.336780 0.103747 0.240680
C64   C     C_3   0.288785 0.286233 0.974916 -0.973660
H36   H     H_    0.259842 0.340264 0.957756 0.272800
H37   H     H_    0.263036 0.234230 0.004752 0.269239
H38   H     H_    0.309568 0.262729 0.912805 0.266700
N11   N     N_2   0.053554 0.264108 0.503880 -0.303105
H39   H     H_    0.079266 0.251139 0.449527 0.268738
C65   C     C_3   0.072770 0.231002 0.589680 -0.725598
H40   H     H_    0.107295 0.270698 0.617063 0.279080
H41   H     H_    0.089196 0.165122 0.581525 0.230632
H42   H     H_    0.036785 0.229629 0.638272 0.219643
N12   N     N_2   0.946290 0.743139 0.522727 -0.302634
H43   H     H_    0.920417 0.761568 0.470188 0.269937
C66   C     C_3   0.927187 0.767013 0.611372 -0.729694
H44   H     H_    0.892636 0.724675 0.635366 0.280033
H45   H     H_    0.910815 0.833456 0.609502 0.230850
H46   H     H_    0.963245 0.763203 0.659385 0.219721
O15   O     O_3   0.206832 0.567722 0.359368 -0.622524
C67   C     C_3   0.191305 0.505811 0.296132 0.087246
H47   H     H_    0.146974 0.520673 0.274590 0.157844
H48   H     H_    0.190904 0.439339 0.323347 0.140514
C68   C     C_3   0.230753 0.510910 0.214200 -0.305302
H49   H     H_    0.233201 0.577912 0.190132 0.234155
H50   H     H_    0.274276 0.489005 0.233166 0.254657
C69   C     C_3   0.209497 0.455855 0.138063 -1.003148
H51   H     H_    0.208002 0.388158 0.159812 0.272202
H52   H     H_    0.238932 0.461560 0.079896 0.274937
H53   H     H_    0.166289 0.477104 0.116626 0.269318
O16   O     O_3   0.797151 0.445391 0.363497 -0.624574
C70   C     C_3   0.805934 0.508903 0.297566 0.099067
H54   H     H_    0.825361 0.566511 0.327111 0.148941
H55   H     H_    0.764754 0.526813 0.265031 0.170760
C71   C     C_3   0.846643 0.473948 0.226561 -0.332860
H56   H     H_    0.887794 0.455781 0.258661 0.221328
H57   H     H_    0.828017 0.416215 0.196606 0.228051
C72   C     C_3   0.857755 0.539404 0.152466 -0.976460
H58   H     H_    0.817321 0.556765 0.118047 0.263799
H59   H     H_    0.887770 0.512195 0.102479 0.267355
H60   H     H_    0.876939 0.597414 0.180765 0.269067
O17   O     O_3   0.323831 0.575499 0.359198 -0.613512
C73   C     C_3   0.341097 0.657709 0.384423 0.146807
H61   H     H_    0.382781 0.670081 0.351386 0.173931
H62   H     H_    0.348181 0.664743 0.457966 0.095539
C74   C     C_3   0.297809 0.724269 0.351479 -0.322933
H63   H     H_    0.289761 0.715469 0.278808 0.230695
H64   H     H_    0.256983 0.716388 0.388460 0.264554
C75   C     C_3   0.319511 0.813877 0.366266 -0.995331
H65   H     H_    0.327525 0.823998 0.438662 0.267256
H66   H     H_    0.287039 0.860850 0.342781 0.272204
H67   H     H_    0.359644 0.824212 0.328057 0.282962
O18   O     O_3   0.680125 0.433769 0.358164 -0.606253
C76   C     C_3   0.665540 0.348949 0.380432 0.142934
H68   H     H_    0.629043 0.331588 0.337292 0.162578
H69   H     H_    0.650648 0.340734 0.451113 0.100322
C77   C     C_3   0.715477 0.288032 0.361564 -0.329435
H70   H     H_    0.732747 0.300893 0.293299 0.243884
H71   H     H_    0.749872 0.298036 0.411198 0.264385
C78   C     C_3   0.696850 0.195642 0.367777 -0.976629
H72   H     H_    0.678703 0.181438 0.435139 0.281290
H73   H     H_    0.734156 0.153045 0.356436 0.272634
H74   H     H_    0.664391 0.183030 0.315756 0.262027
O19   O     O_3   0.326609 0.407194 0.637308 -0.599091
C79   C     C_3   0.353076 0.332426 0.603975 0.170970
H75   H     H_    0.397834 0.332165 0.627693 0.148873
H76   H     H_    0.355320 0.328382 0.529334 0.092135
C80   C     C_3   0.324852 0.252849 0.643387 -0.392896
H77   H     H_    0.356610 0.199955 0.643764 0.175827
H78   H     H_    0.311629 0.264194 0.713915 0.243197
C81   C     C_3   0.273512 0.225220 0.588734 -0.802545
H79   H     H_    0.239737 0.274857 0.588793 0.326302
H80   H     H_    0.255711 0.166183 0.618581 0.236467
H81   H     H_    0.286401 0.212131 0.518493 0.237915
O20   O     O_3   0.669512 0.582315 0.643942 -0.599833
C82   C     C_3   0.647775 0.663759 0.619864 0.177298
H82   H     H_    0.605755 0.670793 0.653701 0.145141
H83   H     H_    0.638710 0.671979 0.546811 0.097223
C83   C     C_3   0.686587 0.734171 0.654560 -0.388495
H84   H     H_    0.659885 0.786668 0.681776 0.167698
H85   H     H_    0.713526 0.709507 0.710467 0.260566
C84   C     C_3   0.724519 0.770850 0.580588 -0.811646
H86   H     H_    0.750847 0.720264 0.549562 0.311773
H87   H     H_    0.753305 0.818941 0.609250 0.248201
H88   H     H_    0.697947 0.802022 0.527909 0.242055
O21   O     O_3   0.209759 0.421044 0.645480 -0.613274
C85   C     C_3   0.209915 0.477695 0.718060 0.114752
H89   H     H_    0.185907 0.537010 0.700289 0.143781
H90   H     H_    0.254269 0.494170 0.737443 0.173016
C86   C     C_3   0.180980 0.435067 0.798416 -0.325933
H91   H     H_    0.135871 0.421573 0.781540 0.223619
H92   H     H_    0.203009 0.373753 0.813870 0.234425
C87   C     C_3   0.182627 0.491189 0.881043 -0.993879
H93   H     H_    0.227449 0.503470 0.900513 0.265733
H94   H     H_    0.160888 0.458543 0.937789 0.272563
H95   H     H_    0.160390 0.552650 0.867432 0.272518
O22   O     O_3   0.786996 0.581471 0.650657 -0.608313
C88   C     C_3   0.788379 0.522901 0.723000 0.102300
H96   H     H_    0.813162 0.464855 0.704435 0.146897
H97   H     H_    0.744464 0.504443 0.743591 0.177603
C89   C     C_3   0.817337 0.564558 0.802539 -0.338987
H98   H     H_    0.862231 0.579242 0.784536 0.224784
H99   H     H_    0.794947 0.625202 0.818287 0.227988
C90   C     C_3   0.816601 0.506882 0.885505 -0.972116
H100  H     H_    0.772022 0.493152 0.906012 0.267313
H101  H     H_    0.838177 0.539037 0.941611 0.272405
H102  H     H_    0.839441 0.446209 0.871781 0.268929
N13   N     N_2   0.583581 0.057115 0.395561 -0.300120
H103  H     H_    0.572036 0.106370 0.353016 0.210058
C91   C     C_3   0.618752 0.992638 0.353547 -0.756763
H104  H     H_    0.651512 0.023369 0.310623 0.226201
H105  H     H_    0.592689 0.950613 0.311259 0.252188
H106  H     H_    0.641127 0.953392 0.404872 0.274154
N14   N     N_2   0.402494 0.942099 0.606215 -0.304893
H107  H     H_    0.379312 0.895984 0.574722 0.235618
C92   C     C_3   0.367416 0.004970 0.650867 -0.808559
H108  H     H_    0.341742 0.973269 0.703922 0.239195
H109  H     H_    0.337829 0.036358 0.602784 0.246384
H110  H     H_    0.393994 0.053994 0.682726 0.262246
N15   N     N_2   0.594473 0.927936 0.562821 -0.302229
H111  H     H_    0.588546 0.874832 0.602660 0.208108
C93   C     C_3   0.636754 0.985444 0.596775 -0.751823
H112  H     H_    0.677514 0.950417 0.607397 0.230221
H113  H     H_    0.622737 0.012293 0.661698 0.249873
H114  H     H_    0.644558 0.038171 0.548359 0.271160
N16   N     N_2   0.392855 0.077146 0.438628 -0.304761
H115  H     H_    0.377887 0.122539 0.482268 0.235976
C94   C     C_3   0.348635 0.024085 0.403268 -0.784817
H116  H     H_    0.313845 0.064848 0.375625 0.233562
H117  H     H_    0.330684 0.982774 0.456744 0.247276
H118  H     H_    0.365541 0.984249 0.348395 0.274342
O23   O     O_3   0.475140 0.943861 0.328822 -0.637398
C95   C     C_3   0.474117 0.010372 0.264297 0.062358
H119  H     H_    0.518093 0.031443 0.249250 0.148771
H120  H     H_    0.448525 0.066130 0.286865 0.168113
C96   C     C_3   0.448196 0.977664 0.177614 -0.320574
H121  H     H_    0.474240 0.923363 0.152724 0.227866
H122  H     H_    0.404274 0.954855 0.191104 0.221802
C97   C     C_3   0.445922 0.047169 0.105330 -0.987378
H123  H     H_    0.418740 0.101176 0.127731 0.268047
H124  H     H_    0.427564 0.021225 0.043002 0.272224
H125  H     H_    0.489472 0.070568 0.090301 0.265051
O24   O     O_3   0.510430 0.056982 0.672845 -0.635450
C98   C     C_3   0.509827 0.990868 0.737777 0.075845
H126  H     H_    0.539500 0.938274 0.719925 0.135375
H127  H     H_    0.466360 0.964706 0.745513 0.179025
C99   C     C_3   0.528096 0.026324 0.827998 -0.325984
H128  H     H_    0.571698 0.052789 0.821741 0.225339
H129  H     H_    0.498398 0.078462 0.847598 0.227901
C100  C     C_3   0.528023 0.957573 0.901117 -0.995643
H130  H     H_    0.484429 0.931909 0.910329 0.269361
H131  H     H_    0.542103 0.985066 0.965424 0.272111
H132  H     H_    0.557727 0.904926 0.883269 0.267198

loop_
_geom_bond_atom_site_label_1
_geom_bond_atom_site_label_2
_ccdc_geom_bond_type
C100  H132  S    
C84   H86   S    
C15   N15   S    
N10   H21   S    
C85   H90   S    
C82   C83   S    
C18   C21   S    
C53   H3    S    
C53   H2    S    
N9    H17   S    
C3    O15   S    
C69   H53   S    
C65   H42   S    
C57   H20   S    
C77   H70   S    
C51   N11   S    
C86   C87   S    
N12   H43   S    
C41   O11   S    
N6    H5    S    
C72   H60   S    
C84   H87   S    
C29   C36   S    
C94   H116  S    
N13   H103  S    
C11   O21   S    
C30   C35   S    
N7    H9    S    
C34   O13   S    
C32   C36   S    
C71   H56   S    
C35   C37   S    
C69   H52   S    
N15   H111  S    
C90   H101  S    
C9    O19   S    
C1    O3    A    
C55   H10   S    
O23   C95   S    
C33   C35   S    
C2    O4    A    
C16   N16   S    
C88   H97   S    
C75   H65   S    
C44   C50   A    
C100  H130  S    
C29   C33   S    
O20   C82   S    
C90   H102  S    
C31   N7    S    
C59   H25   S    
O6    Zn2   S    
C96   H122  S    
C40   C48   A    
C96   H121  S    
C45   C47   A    
C82   H83   S    
O18   C76   S    
C22   O23   S    
C95   H120  S    
C58   H22   S    
C57   H19   S    
O14   C62   S    
O17   C73   S    
C100  H131  S    
C71   H57   S    
C48   C51   A    
O19   C79   S    
C72   H58   S    
C85   H89   S    
C93   H113  S    
C18   C26   S    
C83   H84   S    
C64   H38   S    
C50   C52   A    
O13   C59   S    
C72   H59   S    
C70   H55   S    
C19   C27   T    
C98   H126  S    
C41   C43   A    
C34   C36   S    
C3    C13   A    
C57   H18   S    
C9    C11   A    
C23   O7    A    
C33   O14   S    
N10   C58   S    
N12   C66   S    
C92   H108  S    
C67   H48   S    
C42   O12   S    
C73   H62   S    
N14   C92   S    
C67   C68   S    
C80   H77   S    
C42   C44   A    
C97   H125  S    
C12   O22   S    
C68   H50   S    
C44   C46   A    
C68   H49   S    
C76   C77   S    
C5    C7    A    
C63   H34   S    
N16   C94   S    
C61   H31   S    
C4    O16   S    
C66   H46   S    
C46   C48   A    
C94   H117  S    
C1    C19   S    
C30   C34   S    
C55   H11   S    
C2    C20   S    
O21   C85   S    
C77   C78   S    
C81   H81   S    
C84   H88   S    
N6    C54   S    
C69   H51   S    
C60   H28   S    
C78   H73   S    
C88   H96   S    
C54   H7    S    
C17   N13   S    
C18   N14   S    
C43   C49   A    
C15   C26   S    
C6    C8    A    
C20   C28   T    
C89   C90   S    
C49   C51   A    
C45   C46   A    
C40   O10   S    
C74   H64   S    
N15   C93   S    
C81   H80   S    
C58   H24   S    
C78   H72   S    
C80   C81   S    
C86   H91   S    
C95   H119  S    
C1    O1    A    
C56   H15   S    
C66   H45   S    
C21   O24   S    
C61   H30   S    
C76   H68   S    
C99   C100  S    
C23   O5    A    
N14   H107  S    
C93   H114  S    
C3    C5    A    
C2    O2    A    
C90   H100  S    
C31   C34   S    
C58   H23   S    
C16   C18   S    
O8    Zn1   S    
C99   H128  S    
C70   C71   S    
C89   H99   S    
C43   C45   A    
C41   N1    A    
C62   H33   S    
C10   C12   A    
C79   H75   S    
C74   C75   S    
C97   H124  S    
C86   H92   S    
C12   C14   A    
C39   O9    S    
C76   H69   S    
C40   N2    A    
C91   H105  S    
C32   N8    S    
C22   C26   S    
C64   H36   S    
N13   C91   S    
C53   H4    S    
C31   C35   S    
C4    C6    A    
N8    C56   S    
C79   H76   S    
C65   H40   S    
N8    H13   S    
C50   N6    S    
C5    O17   S    
C74   H63   S    
C68   C69   S    
C39   C47   A    
N11   H39   S    
C55   H12   S    
O5    Zn1   S    
C16   C25   S    
C7    C9    A    
C21   C25   S    
C73   H61   S    
C94   H118  S    
C16   C22   S    
C78   H74   S    
C60   H27   S    
N7    C55   S    
O7    Zn2   S    
C87   H93   S    
C62   C63   S    
C73   C74   S    
O2    Zn2   S    
C99   H129  S    
C97   H123  S    
C65   H41   S    
C87   H95   S    
C54   H8    S    
C77   H71   S    
C62   H32   S    
N9    C57   S    
C15   C17   S    
C47   C52   A    
C71   C72   S    
C25   C27   S    
C6    O18   S    
C66   H44   S    
C13   N2    S    
C26   C28   S    
C17   C22   S    
C95   C96   S    
C59   C60   S    
C83   C84   S    
C96   C97   S    
C17   C25   S    
C81   H79   S    
C79   C80   S    
C92   H109  S    
O24   C98   S    
N5    H1    S    
C29   C31   S    
C98   H127  S    
C10   O20   S    
C32   C33   S    
C56   H16   S    
C30   C32   S    
C11   C13   A    
O22   C88   S    
C39   N1    A    
C75   H66   S    
O4    Zn1   S    
C63   C64   S    
C85   C86   S    
C7    C23   S    
C30   N10   S    
C36   C38   S    
C8    C24   S    
C59   H26   S    
C24   O8    A    
C60   C61   S    
C87   H94   S    
C61   H29   S    
C4    C14   A    
C82   H82   S    
C98   C99   S    
N3    Zn2   S    
C91   H106  S    
O3    Zn2   S    
C29   N9    S    
C54   H6    S    
C37   N3    T    
N11   C65   S    
C15   C21   S    
C14   N1    S    
C38   N4    T    
O16   C70   S    
C8    C10   A    
N4    Zn1   S    
C49   N5    S    
C92   H110  S    
N5    C53   S    
C91   H104  S    
C64   H37   S    
C52   N12   S    
C24   O6    A    
C67   H47   S    
O1    Zn1   S    
C70   H54   S    
O15   C67   S    
C63   H35   S    
C89   H98   S    
C83   H85   S    
C42   N2    A    
C56   H14   S    
C93   H112  S    
N16   H115  S    
C80   H78   S    
C88   C89   S    
C75   H67   S    
