data_mof_unit_37219.cif
_audit_creation_date              2012-12-11T15:49:04-0500
_audit_creation_method            fapswitch 2.2
_symmetry_space_group_name_H-M    P1
_symmetry_Int_Tables_number       1
_space_group_crystal_system       triclinic
_cell_length_a                    21.647215
_cell_length_b                    7.171653
_cell_length_c                    14.993163
_cell_angle_alpha                 90.000151
_cell_angle_beta                  107.852128
_cell_angle_gamma                 90.000022
_cell_volume                      2215.55979156

loop_
_atom_site_label
_atom_site_type_symbol
_atom_type_description
_atom_site_fract_x
_atom_site_fract_y
_atom_site_fract_z
_atom_type_partial_charge
O1    O     O_R   0.335860 0.638190 0.002110 -0.533106
O2    O     O_R   0.664140 0.361810 0.997890 -0.531589
O3    O     O_R   0.164140 0.138190 0.997890 -0.533107
O4    O     O_R   0.835860 0.861810 0.002110 -0.531589
O5    O     O_R   0.217530 0.305920 0.861960 -0.544000
O6    O     O_R   0.782470 0.694080 0.138040 -0.543616
O7    O     O_R   0.282470 0.805920 0.138040 -0.544000
O8    O     O_R   0.717530 0.194080 0.861960 -0.543616
C1    C     C_R   0.205119 0.476467 0.825593 0.674333
C2    C     C_R   0.795140 0.522809 0.174288 0.676429
C3    C     C_R   0.294881 0.976467 0.174407 0.674333
C4    C     C_R   0.704860 0.022808 0.825712 0.676429
O9    O     O_R   0.338690 0.308320 0.993240 -0.547162
O10   O     O_R   0.661310 0.691680 0.006760 -0.550990
O11   O     O_R   0.161310 0.808320 0.006760 -0.547162
O12   O     O_R   0.838690 0.191680 0.993240 -0.550991
O13   O     O_R   0.286170 0.140430 0.130100 -0.532474
O14   O     O_R   0.713830 0.859570 0.869900 -0.532830
O15   O     O_R   0.213830 0.640430 0.869900 -0.532474
O16   O     O_R   0.786170 0.359570 0.130100 -0.532830
C5    C     C_R   0.364359 0.477220 0.995164 0.662771
C6    C     C_R   0.635512 0.523159 0.004331 0.661348
C7    C     C_R   0.135641 0.977220 0.004836 0.662769
C8    C     C_R   0.864487 0.023159 0.995669 0.661348
O17   O     O_3   0.232630 0.472410 0.044750 -0.373397
O18   O     O_3   0.767370 0.527590 0.955250 -0.374486
O19   O     O_3   0.267370 0.972410 0.955250 -0.373396
O20   O     O_3   0.732630 0.027590 0.044750 -0.374486
V1    V     V_3+5 0.253220 0.196620 0.991700 1.459199
V2    V     V_3+5 0.746780 0.803380 0.008300 1.447869
V3    V     V_3+5 0.246780 0.696620 0.008300 1.459198
V4    V     V_3+5 0.753220 0.303380 0.991700 1.447869
C9    C     C_R   0.037935 0.848832 0.047617 -0.000742
C10   C     C_R   0.962781 0.155341 0.955464 0.019409
C11   C     C_R   0.462065 0.348831 0.952384 -0.000744
C12   C     C_R   0.537220 0.655341 0.044537 0.019410
C13   C     C_R   0.971696 0.862588 0.040115 -0.060786
C14   C     C_R   0.028912 0.140601 0.962410 -0.016589
C15   C     C_R   0.528304 0.362587 0.959885 -0.060791
C16   C     C_R   0.471088 0.640602 0.037590 -0.016584
H1    H     H_    0.950294 0.756861 0.073137 0.153555
H2    H     H_    0.050367 0.246477 0.929553 0.155796
H3    H     H_    0.549706 0.256860 0.926863 0.153554
H4    H     H_    0.449633 0.746478 0.070447 0.155796
C17   C     C_R   0.933392 0.014014 0.995190 -0.169928
C18   C     C_R   0.067028 0.988219 0.006553 -0.163926
C19   C     C_R   0.566608 0.514014 0.004811 -0.169927
C20   C     C_R   0.432972 0.488219 0.993448 -0.163926
C21   C     C_R   0.676073 0.007830 0.724106 -0.029230
C22   C     C_R   0.323074 0.979432 0.276502 -0.026549
C23   C     C_R   0.823927 0.507832 0.275893 -0.029230
C24   C     C_R   0.176926 0.479430 0.723497 -0.026549
C25   C     C_R   0.688394 0.931318 0.573601 -0.152473
C26   C     C_R   0.309433 0.948544 0.429913 -0.157354
C27   C     C_R   0.811606 0.431331 0.426400 -0.152472
C28   C     C_R   0.190568 0.448530 0.570087 -0.157355
C29   C     C_R   0.715818 0.978914 0.667584 -0.160514
C30   C     C_R   0.282764 0.974110 0.333500 -0.161112
C31   C     C_R   0.784183 0.478925 0.332417 -0.160515
C32   C     C_R   0.217236 0.474099 0.666501 -0.161110
C33   C     C_R   0.608662 0.989698 0.686241 -0.225659
C34   C     C_R   0.390210 0.958288 0.316253 -0.227666
C35   C     C_R   0.891338 0.489696 0.313758 -0.225658
C36   C     C_R   0.109790 0.458291 0.683746 -0.227668
C37   C     C_R   0.580147 0.927073 0.593233 0.075958
C38   C     C_R   0.417756 0.917127 0.412574 0.077235
C39   C     C_R   0.919853 0.427074 0.406767 0.075958
C40   C     C_R   0.082244 0.417126 0.587426 0.077236
C41   C     C_R   0.621044 0.905125 0.536047 0.101178
C42   C     C_R   0.376536 0.920682 0.469906 0.104512
C43   C     C_R   0.878956 0.405134 0.463954 0.101178
C44   C     C_R   0.123464 0.420674 0.530094 0.104512
C45   C     C_R   0.512000 0.894790 0.553824 -0.034823
C46   C     C_R   0.485451 0.882334 0.454448 -0.034253
C47   C     C_R   0.988000 0.394788 0.446176 -0.034824
C48   C     C_R   0.014548 0.382336 0.545552 -0.034253
C49   C     C_R   0.527674 0.828809 0.402438 -0.007261
C50   C     C_R   0.469203 0.867690 0.608461 -0.029184
C51   C     C_R   0.972326 0.328816 0.597563 -0.007261
C52   C     C_R   0.030796 0.367682 0.391539 -0.029183
C53   C     C_R   0.594854 0.848467 0.443102 -0.168855
C54   C     C_R   0.402156 0.887948 0.565962 -0.180444
C55   C     C_R   0.905145 0.348478 0.556899 -0.168855
C56   C     C_R   0.097844 0.387937 0.434038 -0.180443
H5    H     H_    0.627324 0.814328 0.402915 0.159779
H6    H     H_    0.369317 0.873232 0.607531 0.163260
H7    H     H_    0.872675 0.314345 0.597086 0.159779
H8    H     H_    0.130682 0.373215 0.392470 0.163260
H9    H     H_    0.420149 0.973965 0.270766 0.114253
H10   H     H_    0.579379 0.024462 0.730722 0.108559
H11   H     H_    0.079851 0.473973 0.729233 0.114253
H12   H     H_    0.920621 0.524454 0.269277 0.108560
H13   H     H_    0.230635 0.986916 0.303130 0.113256
H14   H     H_    0.768099 0.989267 0.696766 0.116728
H15   H     H_    0.269365 0.486901 0.696870 0.113255
H16   H     H_    0.731901 0.489282 0.303235 0.116727
H17   H     H_    0.720052 0.910286 0.530756 0.120068
H18   H     H_    0.277387 0.946550 0.473053 0.119390
H19   H     H_    0.779948 0.410306 0.469245 0.120068
H20   H     H_    0.222613 0.446530 0.526948 0.119390
C57   C     C_2   0.075918 0.693245 0.103463 0.431911
H21   H     H_    0.127497 0.707985 0.138706 0.041435
O21   O     O_2   0.049618 0.546510 0.111666 -0.497653
C58   C     C_2   0.925352 0.314235 0.901477 0.489721
H22   H     H_    0.873717 0.301995 0.866214 0.040868
O22   O     O_2   0.952297 0.460328 0.893817 -0.521679
C59   C     C_2   0.424082 0.193242 0.896538 0.431914
H23   H     H_    0.372504 0.207982 0.861294 0.041433
O23   O     O_2   0.450382 0.046505 0.888339 -0.497652
C60   C     C_2   0.574648 0.814235 0.098525 0.489719
H24   H     H_    0.626284 0.801995 0.133786 0.040866
O24   O     O_2   0.547704 0.960327 0.106185 -0.521679
C61   C     C_2   0.504136 0.718869 0.314342 0.360829
H25   H     H_    0.455251 0.662844 0.291784 0.051925
O25   O     O_2   0.539985 0.682096 0.267871 -0.543625
C62   C     C_2   0.491635 0.783081 0.703643 0.393402
H26   H     H_    0.539506 0.720972 0.729644 0.042511
O26   O     O_2   0.456030 0.774654 0.752852 -0.503529
C63   C     C_2   0.995862 0.218878 0.685658 0.360829
H27   H     H_    0.044747 0.162852 0.708217 0.051925
O27   O     O_2   0.960013 0.182108 0.732129 -0.543625
C64   C     C_2   0.008364 0.283071 0.296357 0.393404
H28   H     H_    0.960492 0.220963 0.270357 0.042510
O28   O     O_2   0.043969 0.274643 0.247147 -0.503530

loop_
_geom_bond_atom_site_label_1
_geom_bond_atom_site_label_2
_ccdc_geom_bond_type
O17   V3    S    
C55   H7    S    
O1    C5    A    
C57   H21   S    
C27   C31   A    
O19   V1    S    
O13   V1    S    
C45   C46   A    
O3    C7    A    
C48   C51   A    
C52   C56   A    
O4    V2    S    
O15   V3    S    
C58   O22   D    
C4    C21   S    
C21   C29   A    
C52   C64   S    
O18   V4    S    
C9    C57   S    
C8    C17   S    
C36   C40   A    
O9    V1    S    
C30   H13   S    
C14   H2    S    
O16   V4    S    
O4    C8    A    
C2    C23   S    
C38   C46   A    
C34   H9    S    
O1    V3    S    
C37   C45   A    
C62   H26   S    
C12   C19   A    
O2    V4    S    
O3    V1    S    
C60   H24   S    
C24   C32   A    
C1    O15   A    
C2    O16   A    
C28   C44   A    
C46   C49   A    
C51   C63   S    
C35   H12   S    
O2    C6    A    
C59   H23   S    
O12   V4    S    
O14   V2    S    
C47   C52   A    
C43   C55   A    
C40   C44   A    
C5    C20   S    
O11   C7    A    
C6    C19   S    
C25   C41   A    
O12   C8    A    
C7    C18   S    
C9    C18   A    
C59   O23   D    
C1    C24   S    
O10   V2    S    
C49   C61   S    
C11   C20   A    
C58   H22   S    
C53   H5    S    
O7    C3    A    
O5    V1    S    
C63   O27   D    
C35   C39   A    
O7    V3    S    
C34   C38   A    
O8    V4    S    
C12   C16   A    
C23   C35   A    
C24   C36   A    
C25   C29   A    
C15   H3    S    
C25   H17   S    
C54   H6    S    
C45   C50   A    
C9    C13   A    
C28   C32   A    
C22   C30   A    
C11   C15   A    
C47   C48   A    
O5    C1    A    
C50   C54   A    
C26   C42   A    
C49   C53   A    
O8    C4    A    
C4    O14   A    
O9    C5    A    
C10   C17   A    
C10   C58   S    
C44   C56   A    
C41   C53   A    
O6    V2    S    
C29   H14   S    
C12   C60   S    
C22   C34   A    
C23   C31   A    
C31   H16   S    
C28   H20   S    
C64   O28   D    
C33   H10   S    
C15   C19   A    
C61   H25   S    
C26   C30   A    
C16   C20   A    
C3    O13   A    
C10   C14   A    
C50   C62   S    
C56   H8    S    
O6    C2    A    
C63   H27   S    
O11   V3    S    
C40   C48   A    
O10   C6    A    
O20   V2    S    
C3    C22   S    
C51   C55   A    
C21   C33   A    
C38   C42   A    
C37   C41   A    
C62   O26   D    
C39   C43   A    
C13   H1    S    
C42   C54   A    
C60   O24   D    
C14   C18   A    
C11   C59   S    
C32   H15   S    
C33   C37   A    
C16   H4    S    
C39   C47   A    
C57   O21   D    
C27   H19   S    
C26   H18   S    
C36   H11   S    
C64   H28   S    
C13   C17   A    
C27   C43   A    
C61   O25   D    
