data_mof_unit_53245.cif
_audit_creation_date              2012-10-26T20:42:29-0400
_audit_creation_method            fapswitch 2.2
_symmetry_space_group_name_H-M    P1
_symmetry_Int_Tables_number       1
_space_group_crystal_system       triclinic
_cell_length_a                    10.845301
_cell_length_b                    9.608436
_cell_length_c                    10.899947
_cell_angle_alpha                 90.85714
_cell_angle_beta                  92.710408
_cell_angle_gamma                 90.985772
_cell_volume                      1134.26396097

loop_
_atom_site_label
_atom_site_type_symbol
_atom_type_description
_atom_site_fract_x
_atom_site_fract_y
_atom_site_fract_z
_atom_type_partial_charge
C1    C     C_R   0.262960 0.499640 0.507292 0.536098
C2    C     C_R   0.934106 0.380949 0.483266 -0.173739
C3    C     C_R   0.872638 0.507133 0.493341 0.009764
C4    C     C_R   0.129362 0.500946 0.517274 0.013093
C5    C     C_R   0.942119 0.634032 0.508359 -0.000845
C6    C     C_R   0.067664 0.625534 0.545520 0.003284
C7    C     C_R   0.433785 0.066802 0.409624 0.105783
C8    C     C_R   0.573247 0.074285 0.584807 0.112004
C9    C     C_R   0.428956 0.919777 0.417110 0.000650
C10   C     C_R   0.569171 0.926539 0.584968 0.007005
C11   C     C_3   0.890437 0.775562 0.472007 -0.240311
C12   C     C_R   0.737780 0.501873 0.495695 0.539052
C13   C     C_3   0.848430 0.778283 0.335205 -0.275892
C14   C     C_3   0.792440 0.918184 0.301501 -0.448873
C15   C     C_3   0.129626 0.742613 0.624495 -0.242602
C16   C     C_3   0.185052 0.689321 0.747225 -0.277054
C17   C     C_3   0.253007 0.805968 0.820764 -0.447444
C18   C     C_3   0.385167 0.116746 0.284236 -0.214307
C19   C     C_3   0.257969 0.183861 0.282447 -0.274812
C20   C     C_3   0.191799 0.172094 0.155656 -0.478261
C21   C     C_3   0.664020 0.141333 0.679916 -0.229038
C22   C     C_3   0.799446 0.098637 0.664922 -0.324322
C23   C     C_R   0.499121 0.499272 0.265414 0.546988
C24   C     C_3   0.848444 0.004898 0.767734 -0.463146
C25   C     C_R   0.503377 0.501068 0.734713 0.541327
C26   C     C_2   0.521006 0.389066 0.932817 -0.167414
C27   C     C_2   0.531209 0.391927 0.066981 -0.170408
C28   C     C_2   0.513139 0.505658 0.867393 -0.127607
C29   C     C_2   0.491918 0.499478 0.132900 -0.122789
C30   C     C_R   0.061288 0.378869 0.490008 -0.172689
Cu1   Cu    Cu3+1 0.500000 0.640660 0.500000 0.895371
Cu2   Cu    Cu3+1 0.500000 0.359340 0.500000 0.906513
H1    H     H_    0.374203 0.857277 0.350581 0.121057
H2    H     H_    0.860915 0.004074 0.320446 0.137307
H3    H     H_    0.764367 0.917725 0.202200 0.134364
H4    H     H_    0.929475 0.760696 0.278488 0.147940
H5    H     H_    0.779288 0.694771 0.311136 0.190694
H6    H     H_    0.816184 0.806067 0.532630 0.168497
H7    H     H_    0.961672 0.859463 0.483095 0.116961
H8    H     H_    0.330312 0.848258 0.768362 0.170613
H9    H     H_    0.188769 0.891136 0.841324 0.139808
H10   H     H_    0.291511 0.764571 0.908838 0.130744
H11   H     H_    0.109705 0.646883 0.802280 0.148869
H12   H     H_    0.623177 0.870031 0.652605 0.122660
H13   H     H_    0.250891 0.604542 0.732622 0.183170
H14   H     H_    0.199216 0.800206 0.572718 0.173463
H15   H     H_    0.061301 0.820536 0.650883 0.118045
H16   H     H_    0.248987 0.220963 0.085538 0.159643
H17   H     H_    0.172983 0.061158 0.129988 0.146113
H18   H     H_    0.102342 0.226509 0.157127 0.142006
H19   H     H_    0.199747 0.131586 0.349680 0.143549
H20   H     H_    0.268026 0.295964 0.304000 0.208739
H21   H     H_    0.454770 0.176075 0.236856 0.162793
H22   H     H_    0.375874 0.025935 0.219534 0.086801
H23   H     H_    0.522944 0.287855 0.887537 0.137896
H24   H     H_    0.835757 0.054544 0.858857 0.151205
H25   H     H_    0.801368 0.901605 0.763675 0.141477
H26   H     H_    0.948676 0.989297 0.758346 0.136739
H27   H     H_    0.811327 0.048280 0.574064 0.150306
H28   H     H_    0.859299 0.193839 0.668509 0.158466
H29   H     H_    0.666240 0.254182 0.677210 0.208560
H30   H     H_    0.633511 0.114607 0.772729 0.105055
H31   H     H_    0.570425 0.301761 0.111777 0.128107
H32   H     H_    0.518895 0.608081 0.910534 0.098416
H33   H     H_    0.451634 0.590339 0.090348 0.093461
H34   H     H_    0.105998 0.280874 0.476064 0.122929
H35   H     H_    0.884023 0.283693 0.465706 0.129308
H36   H     H_    0.709617 0.937112 0.354983 0.172116
N1    N     N_R   0.500000 0.852070 0.500000 -0.257663
N2    N     N_R   0.500000 0.147940 0.500000 -0.213857
O1    O     O_R   0.319640 0.618740 0.499990 -0.505564
O2    O     O_R   0.680360 0.618740 0.500010 -0.507069
O3    O     O_R   0.319620 0.381170 0.499990 -0.511374
O4    O     O_R   0.680380 0.381170 0.500010 -0.519709
O5    O     O_R   0.500000 0.618750 0.321940 -0.505201
O6    O     O_R   0.500000 0.618750 0.678060 -0.507027
O7    O     O_R   0.499970 0.381180 0.321940 -0.509137
O8    O     O_R   0.500030 0.381180 0.678060 -0.516654

loop_
_geom_bond_atom_site_label_1
_geom_bond_atom_site_label_2
_ccdc_geom_bond_type
C12   O4    A    
C27   C29   D    
C19   C20   S    
C15   H15   S    
C26   H23   S    
C7    N2    A    
C25   C28   S    
C26   C27   S    
C1    O1    A    
C23   C29   S    
C9    N1    A    
C5    C11   S    
C22   H28   S    
C5    C6    A    
C15   C16   S    
C18   C19   S    
C17   H10   S    
C20   H18   S    
C3    C12   S    
C18   H21   S    
C6    C15   S    
C19   H20   S    
C24   H25   S    
C13   H5    S    
Cu1   O1    S    
C12   O2    A    
C13   C14   S    
C9    H1    S    
C10   H12   S    
C25   O8    A    
C13   H4    S    
C4    C6    A    
C2    H35   S    
C14   H3    S    
C16   C17   S    
Cu2   N2    S    
C17   H8    S    
C11   H6    S    
C20   H17   S    
Cu1   O5    S    
Cu1   Cu2   S    
C7    C18   S    
C8    C21   S    
C30   H34   S    
C23   O7    A    
C11   H7    S    
C16   H11   S    
C21   H30   S    
C20   H16   S    
C27   H31   S    
C29   H33   S    
C28   H32   S    
C8    C10   A    
Cu1   O2    S    
C22   C24   S    
C22   H27   S    
C21   H29   S    
C7    C9    A    
C8    N2    A    
C23   O5    A    
C3    C5    A    
C16   H13   S    
C14   H2    S    
C24   H24   S    
C26   C28   D    
C2    C30   A    
C25   O6    A    
C1    O3    A    
C1    C4    S    
C2    C3    A    
Cu2   O4    S    
C11   C13   S    
Cu1   O6    S    
Cu2   O7    S    
C17   H9    S    
C18   H22   S    
Cu2   O8    S    
C10   N1    A    
C19   H19   S    
Cu1   N1    S    
C24   H26   S    
C14   H36   S    
C15   H14   S    
C21   C22   S    
Cu2   O3    S    
C4    C30   A    
