data_mof_unit_59980.cif
_audit_creation_date              2013-03-05T15:49:32-0500
_audit_creation_method            fapswitch 2.2
_symmetry_space_group_name_H-M    P1
_symmetry_Int_Tables_number       1
_space_group_crystal_system       triclinic
_cell_length_a                    10.619864
_cell_length_b                    11.989621
_cell_length_c                    12.838144
_cell_angle_alpha                 93.53457
_cell_angle_beta                  90.518231
_cell_angle_gamma                 87.105531
_cell_volume                      1629.43726298

loop_
_atom_site_label
_atom_site_type_symbol
_atom_site_description
_atom_site_fract_x
_atom_site_fract_y
_atom_site_fract_z
_atom_type_partial_charge
O1    O     O_R   0.506170 0.421700 0.658830 -0.580992
O2    O     O_R   0.493830 0.578300 0.341170 -0.580799
O3    O     O_R   0.491330 0.609310 0.646410 -0.641233
O4    O     O_R   0.508670 0.390690 0.353590 -0.641263
C1    C     C_R   0.501741 0.522647 0.700378 0.890055
C2    C     C_R   0.498267 0.477352 0.299621 0.890280
O5    O     O_R   0.690650 0.406190 0.506220 -0.577082
O6    O     O_R   0.309350 0.593810 0.493780 -0.577278
O7    O     O_R   0.675800 0.593810 0.493800 -0.636772
O8    O     O_R   0.324200 0.406190 0.506200 -0.636571
C3    C     C_R   0.739568 0.499257 0.484982 0.887443
C4    C     C_R   0.260474 0.500759 0.515124 0.887498
Zn1   Zn    Zn3+2 0.509910 0.374730 0.508290 0.977915
Zn2   Zn    Zn3+2 0.490090 0.625270 0.491710 0.977861
H1    H     H_    0.887177 0.885906 0.465100 0.147852
H2    H     H_    0.112856 0.114201 0.535660 0.147792
C5    C     C_R   0.899456 0.294952 0.429824 -0.102079
C6    C     C_R   0.100680 0.705034 0.570634 -0.102245
C7    C     C_R   0.960752 0.193379 0.451630 -0.036628
C8    C     C_R   0.039330 0.806634 0.548997 -0.036675
C9    C     C_R   0.068488 0.192782 0.513977 -0.041910
C10   C     C_R   0.931559 0.807297 0.486693 -0.042400
C11   C     C_R   0.120888 0.293540 0.546457 -0.125178
C12   C     C_R   0.879185 0.706565 0.454082 -0.125425
C13   C     C_R   0.065323 0.397054 0.517090 0.078997
C14   C     C_R   0.934748 0.603004 0.483342 0.079072
C15   C     C_R   0.946009 0.397599 0.470312 0.100773
C16   C     C_R   0.054081 0.602429 0.530093 0.100832
C17   C     C_R   0.124903 0.499824 0.532586 -0.245959
C18   C     C_R   0.875186 0.500214 0.467740 -0.245772
H3    H     H_    0.815008 0.292837 0.381992 0.142342
H4    H     H_    0.185201 0.707086 0.618382 0.142321
H5    H     H_    0.922349 0.115248 0.423038 0.140727
H6    H     H_    0.077743 0.884739 0.577652 0.140847
H7    H     H_    0.203092 0.289570 0.596702 0.157639
H8    H     H_    0.797023 0.710612 0.403799 0.157792
C19   C     C_R   0.491677 0.462219 0.188028 -0.050484
C20   C     C_R   0.508344 0.537775 0.811968 -0.050581
C21   C     C_R   0.593913 0.621045 0.971351 -0.138852
C22   C     C_R   0.406120 0.378946 0.028642 -0.138776
C23   C     C_R   0.580785 0.620676 0.863386 0.129636
C24   C     C_R   0.419246 0.379313 0.136606 0.129567
C25   C     C_R   0.448639 0.459648 0.867392 -0.228953
C26   C     C_R   0.551386 0.540346 0.132605 -0.228943
C27   C     C_R   0.463251 0.459558 0.973926 0.132602
C28   C     C_R   0.536778 0.540435 0.026070 0.132506
H9    H     H_    0.607499 0.602896 0.173166 0.162237
H10   H     H_    0.392523 0.397101 0.826832 0.162273
H11   H     H_    0.649496 0.683270 0.012713 0.156858
H12   H     H_    0.350544 0.316718 0.987278 0.156889
N1    N     N_R   0.523130 0.207800 0.519340 -0.186409
N2    N     N_R   0.476870 0.792200 0.480660 -0.186358
C29   C     C_R   0.393152 0.952637 0.392896 0.175200
C30   C     C_R   0.606622 0.047373 0.607190 0.175661
C31   C     C_R   0.402536 0.836432 0.403965 0.336213
C32   C     C_R   0.597276 0.163570 0.596144 0.336032
C33   C     C_R   0.545116 0.859241 0.546203 -0.092218
C34   C     C_R   0.454926 0.140776 0.453747 -0.092052
C35   C     C_R   0.538781 0.976372 0.538695 -0.120382
C36   C     C_R   0.461119 0.023647 0.461313 -0.120195
H13   H     H_    0.395183 0.179652 0.396507 0.193316
H14   H     H_    0.604997 0.820398 0.603381 0.192859
N3    N     N_R   0.316048 0.996976 0.311454 0.217369
O9    O     O_R   0.350136 0.979939 0.214478 -0.329334
O10   O     O_R   0.211865 0.054650 0.334037 -0.422284
N4    N     N_R   0.683459 0.003040 0.688769 0.217661
O11   O     O_R   0.647887 0.018278 0.785498 -0.330783
O12   O     O_R   0.788619 0.946761 0.666495 -0.421581
C37   C     C_3   0.352997 0.293760 0.194304 -0.743739
H15   H     H_    0.291161 0.243275 0.141781 0.254903
H16   H     H_    0.424272 0.235338 0.228009 0.254156
H17   H     H_    0.293075 0.335684 0.257071 0.236239
C38   C     C_3   0.647051 0.706210 0.805678 -0.743507
H18   H     H_    0.708860 0.756719 0.858205 0.254998
H19   H     H_    0.707003 0.664264 0.742941 0.235940
H20   H     H_    0.575790 0.764611 0.771926 0.254613
N5    N     N_R   0.666161 0.235071 0.666498 0.249501
O13   O     O_R   0.783058 0.252078 0.646193 -0.374967
O14   O     O_R   0.626604 0.253981 0.761856 -0.346760
N6    N     N_R   0.333267 0.764931 0.333892 0.249761
O15   O     O_R   0.216128 0.748808 0.354158 -0.375161
O16   O     O_R   0.372919 0.745227 0.238641 -0.346444

loop_
_geom_bond_atom_site_label_1
_geom_bond_atom_site_label_2
_geom_bond_distance
_ccdc_geom_bond_type
N4    O12   1.300052 A    
N3    O10   1.300062 A    
H2    C9    1.082722 S    
C4    C17   1.459807 S    
C38   H18   1.110911 S    
C29   C31   1.407627 A    
C33   H14   1.078849 S    
C21   C23   1.391560 A    
N5    O13   1.299480 A    
O5    C3    1.299208 A    
C12   H8    1.081578 S    
O1    C1    1.291003 A    
C16   C17   1.411046 A    
C7    C9    1.390355 A    
C12   C14   1.417932 A    
C33   C35   1.411768 A    
C34   C36   1.411836 A    
C19   C24   1.415166 A    
N1    C32   1.371768 A    
O4    Zn1   2.006828 S    
C37   H16   1.108479 S    
Zn1   N1    2.012912 S    
H1    C10   1.082718 S    
Zn2   N2    2.012913 S    
C3    C18   1.459857 S    
C25   H10   1.086304 S    
C26   H9    1.086306 S    
C8    H6    1.082619 S    
C34   H13   1.078765 S    
C22   C24   1.391548 A    
N4    O11   1.300682 A    
C35   C36   1.412736 A    
C1    C20   1.434441 S    
C15   C18   1.411233 A    
C38   H19   1.110851 S    
O2    C2    1.291019 A    
C29   C36   1.405607 A    
C26   C28   1.375148 A    
C30   C35   1.405407 A    
N5    O14   1.300779 A    
C13   C17   1.415780 A    
C22   C27   1.395117 A    
C30   C32   1.407478 A    
C5    C15   1.416741 A    
C6    C16   1.416695 A    
C20   C23   1.415152 A    
O4    C2    1.283617 A    
C7    H5    1.082619 S    
C27   C28   1.408946 A    
C24   C37   1.507262 S    
C32   N5    1.428915 S    
C37   H17   1.110845 S    
O7    Zn2   1.989419 S    
O7    C3    1.290205 A    
O6    C4    1.299203 A    
C2    C19   1.434464 S    
N1    C34   1.357877 A    
C25   C27   1.375136 A    
O3    Zn2   2.006829 S    
O8    C4    1.290201 A    
C21   C28   1.395130 A    
N6    O16   1.300820 A    
C21   H11   1.084874 S    
C8    C10   1.390346 A    
C14   C18   1.415999 A    
C11   H7    1.081611 S    
C9    C11   1.394457 A    
C5    H3    1.082801 S    
C38   H20   1.108487 S    
C10   C12   1.394474 A    
O1    Zn1   1.979597 S    
O6    Zn2   1.975471 S    
N6    O15   1.299595 A    
O3    C1    1.283624 A    
O8    Zn1   1.989418 S    
N2    C31   1.371844 A    
C30   N4    1.433402 S    
C13   C15   1.397176 A    
C14   C16   1.397215 A    
C19   C26   1.391445 A    
C20   C25   1.391430 A    
C31   N6    1.428985 S    
C29   N3    1.433664 S    
C22   H12   1.084874 S    
C5    C7    1.394236 A    
C6    C8    1.394215 A    
C11   C13   1.417877 A    
C37   H15   1.110907 S    
O2    Zn2   1.979596 S    
N2    C33   1.357877 A    
C23   C38   1.507264 S    
N3    O9    1.300816 A    
O5    Zn1   1.975472 S    
C6    H4    1.082814 S    
