data_mof_unit_17810.cif
_audit_creation_date              2012-12-11T15:09:44-0500
_audit_creation_method            fapswitch 2.2
_symmetry_space_group_name_H-M    P1
_symmetry_Int_Tables_number       1
_space_group_crystal_system       triclinic
_cell_length_a                    21.187573
_cell_length_b                    7.165584
_cell_length_c                    13.892019
_cell_angle_alpha                 89.803498
_cell_angle_beta                  98.070814
_cell_angle_gamma                 91.190299
_cell_volume                      2087.76392769

loop_
_atom_site_label
_atom_site_type_symbol
_atom_type_description
_atom_site_fract_x
_atom_site_fract_y
_atom_site_fract_z
_atom_type_partial_charge
O1    O     O_R   0.447130 0.507140 0.597350 -0.537495
O2    O     O_R   0.552870 0.007140 0.402650 -0.544768
O3    O     O_R   0.578910 0.181280 0.586990 -0.542160
O4    O     O_R   0.421090 0.681280 0.413010 -0.538099
C1    C     C_R   0.604471 0.345948 0.607403 0.722979
C2    C     C_R   0.395509 0.842710 0.392499 0.726170
O5    O     O_R   0.449230 0.177860 0.608640 -0.546001
O6    O     O_R   0.550770 0.677860 0.391360 -0.539489
O7    O     O_R   0.422260 0.000770 0.424450 -0.539128
O8    O     O_R   0.577740 0.500770 0.575550 -0.536276
C3    C     C_R   0.433896 0.344943 0.635914 0.685060
C4    C     C_R   0.567124 0.846733 0.365410 0.685683
O9    O     O_3   0.491310 0.336980 0.439550 -0.378221
O10   O     O_3   0.508690 0.836980 0.560450 -0.377931
V1    V     V_3+5 0.501610 0.064760 0.511210 1.377225
V2    V     V_3+5 0.498390 0.564760 0.488790 1.396743
C5    C     C_R   0.622053 0.869257 0.123449 -0.167211
C6    C     C_R   0.375935 0.286186 0.874757 -0.167309
H1    H     H_    0.533414 0.888118 0.178052 0.112351
H2    H     H_    0.466187 0.290633 0.823527 0.113426
C7    C     C_R   0.611351 0.854104 0.294052 -0.020866
C8    C     C_R   0.389846 0.344912 0.707530 -0.022179
C9    C     C_R   0.914035 0.859193 0.306235 0.040042
C10   C     C_R   0.083092 0.424788 0.694995 0.055803
C11   C     C_R   0.880622 0.762513 0.373282 0.117282
C12   C     C_R   0.123875 0.499127 0.631187 0.117594
C13   C     C_R   0.817745 0.703591 0.340782 -0.227237
C14   C     C_R   0.188939 0.515823 0.664727 -0.234218
C15   C     C_R   0.784284 0.782542 0.256590 0.046659
C16   C     C_R   0.216796 0.407557 0.742715 0.047347
C17   C     C_R   0.821212 0.830348 0.182436 0.045929
C18   C     C_R   0.177167 0.353147 0.812504 0.042595
C19   C     C_R   0.716765 0.812279 0.242309 0.045432
C20   C     C_R   0.283193 0.363898 0.756821 0.047261
C21   C     C_R   0.687670 0.844479 0.144791 0.122438
C22   C     C_R   0.310267 0.309433 0.852101 0.123560
C23   C     C_R   0.724523 0.858751 0.068670 -0.187616
C24   C     C_R   0.271487 0.275440 0.924305 -0.189616
C25   C     C_R   0.790620 0.858831 0.087590 -0.178274
C26   C     C_R   0.205670 0.289852 0.903825 -0.183158
C27   C     C_R   0.678171 0.829780 0.320164 0.029292
C28   C     C_R   0.323038 0.362029 0.680208 0.029366
C29   C     C_R   0.584391 0.871323 0.197011 -0.212294
C30   C     C_R   0.415335 0.308771 0.803837 -0.213317
C31   C     C_R   0.887876 0.855524 0.207074 -0.124442
C32   C     C_R   0.110137 0.371650 0.790178 -0.126349
C33   C     C_1   0.166831 0.858927 0.167962 -0.192718
C34   C     C_1   0.833544 0.355482 0.831068 -0.197470
C35   C     C_1   0.219107 0.853153 0.218934 -0.001495
C36   C     C_1   0.781252 0.355881 0.779960 0.002102
C37   C     C_1   0.280849 0.847138 0.278909 -0.010101
C38   C     C_1   0.719407 0.357937 0.720150 -0.009345
C39   C     C_1   0.333114 0.844843 0.330166 -0.203646
C40   C     C_1   0.667017 0.355872 0.669226 -0.199732
O11   O     O_R   0.922300 0.202240 0.924350 -0.532504
O12   O     O_R   0.077700 0.702240 0.075650 -0.531216
O13   O     O_R   0.050780 0.535130 0.891350 -0.540449
O14   O     O_R   0.949220 0.035130 0.108650 -0.543350
C41   C     C_R   0.069861 0.370190 0.868415 0.694808
C42   C     C_R   0.930181 0.867841 0.131666 0.701810
O15   O     O_R   0.921100 0.531560 0.912990 -0.537225
O16   O     O_R   0.078900 0.031560 0.087010 -0.538945
O17   O     O_R   0.947120 0.708470 0.097370 -0.537806
O18   O     O_R   0.052880 0.208470 0.902630 -0.538160
C43   C     C_R   0.895999 0.362581 0.893176 0.710998
C44   C     C_R   0.104291 0.864702 0.106195 0.710624
O19   O     O_3   0.008710 0.375800 0.060400 -0.374945
O20   O     O_3   0.991290 0.875800 0.939600 -0.373791
V3    V     V_3+5 0.998380 0.648080 0.988790 1.413092
V4    V     V_3+5 0.001620 0.148080 0.011210 1.408021
H3    H     H_    0.702195 0.882791 0.994680 0.124072
H4    H     H_    0.292056 0.230875 0.996379 0.124736
H5    H     H_    0.599685 0.889452 0.049146 0.119925
H6    H     H_    0.396990 0.249416 0.947846 0.120231
C45   C     C_3   0.709276 0.830076 0.427635 -0.446431
C46   C     C_3   0.678178 0.927754 0.506848 -0.270354
C47   C     C_3   0.722816 0.936828 0.603291 -0.802034
H7    H     H_    0.742708 0.797493 0.622957 0.236925
H8    H     H_    0.762003 0.040464 0.599060 0.229531
H9    H     H_    0.695767 0.979093 0.662160 0.234458
H10   H     H_    0.665387 0.071972 0.483350 0.207854
H11   H     H_    0.636137 0.846016 0.523347 0.224865
H12   H     H_    0.715720 0.683129 0.451653 0.175787
H13   H     H_    0.755006 0.907650 0.429709 0.204145
C48   C     C_3   0.293858 0.371462 0.572106 -0.445164
C49   C     C_3   0.321237 0.256678 0.494833 -0.268270
C50   C     C_3   0.277306 0.260932 0.397603 -0.799245
H14   H     H_    0.233603 0.174461 0.401189 0.233570
H15   H     H_    0.264286 0.406439 0.377141 0.234744
H16   H     H_    0.302610 0.207136 0.339287 0.233851
H17   H     H_    0.366481 0.319663 0.478346 0.229267
H18   H     H_    0.328005 0.109939 0.519588 0.200848
H19   H     H_    0.244970 0.313246 0.567262 0.203714
H20   H     H_    0.294559 0.519629 0.548465 0.172898
C51   C     C_3   0.972868 0.978009 0.338152 -0.386912
C52   C     C_3   0.032743 0.865784 0.338962 -0.312804
C53   C     C_3   0.091885 0.981582 0.377113 -0.805392
H21   H     H_    0.098332 0.092669 0.324045 0.245712
H22   H     H_    0.086871 0.041853 0.449030 0.226805
H23   H     H_    0.135155 0.895593 0.385497 0.224935
H24   H     H_    0.028922 0.742925 0.385580 0.209014
H25   H     H_    0.036590 0.817056 0.264448 0.191032
H26   H     H_    0.974624 0.100438 0.289243 0.191119
H27   H     H_    0.970632 0.038460 0.410626 0.174251
C54   C     C_3   0.011508 0.413968 0.665577 -0.370698
C55   C     C_3   0.991143 0.240767 0.604072 -0.310056
C56   C     C_3   0.918658 0.215945 0.588555 -0.800796
H28   H     H_    0.902536 0.148180 0.653004 0.238757
H29   H     H_    0.894056 0.350168 0.577312 0.237149
H30   H     H_    0.904064 0.130813 0.522773 0.225105
H31   H     H_    0.008289 0.253202 0.532536 0.190865
H32   H     H_    0.012583 0.114232 0.640724 0.198290
H33   H     H_    0.985570 0.409905 0.729420 0.171995
H34   H     H_    0.995908 0.542109 0.625756 0.177156
H35   H     H_    0.794211 0.607239 0.384029 0.126065
H36   H     H_    0.217996 0.603655 0.624907 0.128319
C57   C     C_3   0.910355 0.713596 0.476384 -0.390899
C58   C     C_3   0.864655 0.749299 0.551519 -0.325853
C59   C     C_3   0.896377 0.751028 0.657301 -0.746501
H37   H     H_    0.900675 0.607082 0.686006 0.222583
H38   H     H_    0.943853 0.822118 0.665393 0.228257
H39   H     H_    0.865868 0.826277 0.702489 0.219684
H40   H     H_    0.842665 0.886075 0.536218 0.208769
H41   H     H_    0.825950 0.641423 0.544667 0.190512
H42   H     H_    0.922397 0.564222 0.476484 0.176099
H43   H     H_    0.955659 0.791487 0.498480 0.181173
C60   C     C_3   0.101731 0.560597 0.527198 -0.390130
C61   C     C_3   0.139944 0.462781 0.455935 -0.316489
C62   C     C_3   0.110751 0.470150 0.349241 -0.768171
H44   H     H_    0.059701 0.425799 0.339414 0.227172
H45   H     H_    0.116870 0.610335 0.318914 0.236281
H46   H     H_    0.137433 0.377476 0.306329 0.217682
H47   H     H_    0.187715 0.530613 0.461312 0.198611
H48   H     H_    0.145331 0.314036 0.476862 0.205084
H49   H     H_    0.050579 0.531062 0.504572 0.174391
H50   H     H_    0.109531 0.713670 0.523352 0.180010
H51   H     H_    0.817444 0.886938 0.028091 0.119507
H52   H     H_    0.177515 0.253174 0.960602 0.127255

loop_
_geom_bond_atom_site_label_1
_geom_bond_atom_site_label_2
_ccdc_geom_bond_type
C16   C18   A    
C50   H14   S    
C25   H51   S    
C31   C42   S    
C9    C31   A    
C52   H25   S    
C32   C41   S    
C13   C15   A    
C51   C52   S    
O1    C3    A    
O2    C4    A    
C61   C62   S    
C2    O7    A    
C53   H21   S    
C33   C35   T    
C55   H32   S    
C47   H7    S    
O5    C3    A    
C41   O18   A    
C9    C51   S    
C42   O17   A    
C54   H33   S    
C21   C23   A    
C10   C12   A    
C61   H48   S    
C49   H17   S    
C45   H13   S    
C59   H39   S    
C55   C56   S    
O14   C42   A    
C15   C19   A    
O16   V4    S    
C58   C59   S    
C14   H36   S    
C53   H22   S    
C7    C29   A    
C48   H19   S    
C8    C30   A    
O17   V3    S    
C51   H26   S    
C20   C28   A    
C35   C37   S    
C26   H52   S    
C36   C38   S    
C56   H28   S    
O18   V4    S    
C34   C43   S    
C57   H43   S    
C33   C44   S    
C12   C60   S    
C62   H46   S    
C34   C36   T    
C6    H6    S    
C52   H24   S    
C5    H5    S    
C56   H29   S    
O11   C43   A    
C38   C40   T    
C55   H31   S    
C47   H8    S    
C23   C25   A    
C24   H4    S    
C16   C20   A    
C54   H34   S    
C60   H50   S    
O4    C2    A    
C46   H11   S    
C28   C48   S    
O16   C44   A    
C49   C50   S    
O14   V4    S    
H1    C29   S    
C48   C49   S    
C4    C7    S    
O19   V3    S    
O4    V2    S    
C45   C46   S    
C5    C29   A    
C6    C30   A    
C27   C45   S    
C48   H20   S    
C1    C40   S    
O6    C4    A    
C52   C53   S    
O1    V2    S    
C58   H41   S    
C46   C47   S    
O2    V1    S    
C59   H38   S    
C7    C27   A    
O20   V4    S    
H2    C30   S    
C23   H3    S    
C56   H30   S    
O9    V2    S    
C2    C39   S    
C60   C61   S    
C53   H23   S    
O3    V1    S    
C51   H27   S    
C62   H44   S    
C47   H9    S    
O15   V3    S    
C18   C32   A    
O20   V3    S    
C60   H49   S    
O3    C1    A    
C11   C57   S    
C46   H10   S    
C59   H37   S    
C14   C16   A    
C11   C13   A    
C54   C55   S    
C3    C8    S    
C12   C14   A    
O19   V4    S    
C19   C27   A    
C22   C24   A    
O7    V1    S    
C10   C32   A    
C1    O8    A    
C15   C17   A    
O8    V2    S    
C57   C58   S    
C24   C26   A    
C45   H12   S    
C8    C28   A    
C6    C22   A    
O12   C44   A    
O5    V1    S    
C19   C21   A    
C17   C25   A    
C20   C22   A    
C58   H40   S    
C18   C26   A    
O11   V4    S    
O13   C41   A    
C37   C39   T    
O15   C43   A    
C9    C11   A    
O6    V2    S    
O12   V3    S    
C17   C31   A    
C50   H16   S    
C50   H15   S    
O10   V1    S    
C49   H18   S    
C10   C54   S    
C5    C21   A    
O13   V3    S    
C61   H47   S    
C57   H42   S    
C62   H45   S    
C13   H35   S    
