data_mof_unit_36446.cif
_audit_creation_date              2012-12-10T17:57:52-0500
_audit_creation_method            fapswitch 2.2
_symmetry_space_group_name_H-M    P1
_symmetry_Int_Tables_number       1
_space_group_crystal_system       triclinic
_cell_length_a                    10.869493
_cell_length_b                    9.519161
_cell_length_c                    15.037831
_cell_angle_alpha                 89.991452
_cell_angle_beta                  91.424496
_cell_angle_gamma                 90.005356
_cell_volume                      1555.46024005

loop_
_atom_site_label
_atom_site_type_symbol
_atom_type_description
_atom_site_fract_x
_atom_site_fract_y
_atom_site_fract_z
_atom_type_partial_charge
C1    C     C_R   0.262020 0.499964 0.500313 0.781782
C2    C     C_R   0.737971 0.499976 0.499488 0.782614
C3    C     C_R   0.273252 0.510076 0.036303 -0.263596
C4    C     C_R   0.726582 0.511902 0.963775 -0.264525
C5    C     C_R   0.063726 0.372264 0.499563 -0.197500
C6    C     C_R   0.936280 0.627406 0.500324 -0.204448
C7    C     C_R   0.936160 0.372296 0.497711 -0.200161
C8    C     C_R   0.063781 0.627393 0.500952 -0.204276
C9    C     C_R   0.871801 0.499895 0.498818 -0.019747
C10   C     C_R   0.128174 0.499861 0.500586 -0.017477
C11   C     C_R   0.417058 0.074353 0.448472 -0.019792
C12   C     C_R   0.582849 0.925547 0.551631 -0.020296
C13   C     C_R   0.582958 0.074353 0.551516 -0.020301
C14   C     C_R   0.417163 0.925549 0.448361 -0.020184
C15   C     C_R   0.494960 0.500154 0.329108 0.806680
C16   C     C_R   0.504922 0.500124 0.670904 0.806818
C17   C     C_R   0.621614 0.509462 0.816228 0.043537
C18   C     C_R   0.378261 0.509693 0.183835 0.043379
C19   C     C_R   0.509596 0.501664 0.767352 -0.071976
C20   C     C_R   0.490285 0.501793 0.232682 -0.071376
C21   C     C_R   0.397837 0.499070 0.809245 -0.287531
C22   C     C_R   0.602046 0.499658 0.190788 -0.287975
C23   C     C_R   0.391283 0.509023 0.901636 0.086292
C24   C     C_R   0.608550 0.509993 0.098413 0.086543
C25   C     C_R   0.502264 0.513422 0.953084 0.002212
C26   C     C_R   0.497552 0.513526 0.046960 0.002214
C27   C     C_R   0.617960 0.512495 0.910681 0.070746
C28   C     C_R   0.381869 0.512054 0.089377 0.070178
C29   C     C_R   0.276190 0.510597 0.943563 0.145451
C30   C     C_R   0.723632 0.512789 0.056513 0.145113
Cu1   Cu    Cu3+1 0.500000 0.640660 0.500000 0.935175
Cu2   Cu    Cu3+1 0.500000 0.359340 0.500000 0.935793
N1    N     N_R   0.500000 0.852070 0.500000 -0.157645
N2    N     N_R   0.500000 0.147930 0.500000 -0.157143
O1    O     O_R   0.319640 0.618740 0.499990 -0.594433
O2    O     O_R   0.680360 0.381260 0.500010 -0.588656
O3    O     O_R   0.680360 0.618740 0.500010 -0.594486
O4    O     O_R   0.319640 0.381260 0.499990 -0.589789
O5    O     O_R   0.499970 0.618800 0.370260 -0.580559
O6    O     O_R   0.500030 0.381200 0.629740 -0.580881
O7    O     O_R   0.500030 0.618800 0.629740 -0.580342
O8    O     O_R   0.499970 0.381200 0.370260 -0.581375
C31   C     C_3   0.742229 0.503053 0.766841 -0.421538
C32   C     C_3   0.781402 0.349457 0.754953 -0.336146
C33   C     C_3   0.915414 0.337552 0.729038 -0.874028
H1    H     H_    0.938691 0.417603 0.678649 0.273761
H2    H     H_    0.974650 0.353147 0.788908 0.246408
H3    H     H_    0.933465 0.231255 0.701930 0.241990
H4    H     H_    0.768978 0.289439 0.817567 0.222908
H5    H     H_    0.722372 0.300493 0.702268 0.223584
H6    H     H_    0.732666 0.552958 0.700291 0.180113
H7    H     H_    0.815294 0.566547 0.800139 0.198124
C34   C     C_3   0.257663 0.505038 0.233328 -0.421252
C35   C     C_3   0.218251 0.351967 0.247474 -0.336699
C36   C     C_3   0.082797 0.340851 0.269610 -0.874840
H8    H     H_    0.056608 0.422888 0.317941 0.273496
H9    H     H_    0.027004 0.353770 0.207783 0.246356
H10   H     H_    0.063368 0.235630 0.297887 0.242240
H11   H     H_    0.234303 0.288517 0.186743 0.223250
H12   H     H_    0.274415 0.306194 0.302859 0.223581
H13   H     H_    0.267359 0.557354 0.299126 0.179516
H14   H     H_    0.184674 0.567597 0.199192 0.198640
H15   H     H_    0.316010 0.489224 0.767361 0.140473
H16   H     H_    0.683925 0.490117 0.232655 0.140601
C37   C     C_3   0.154681 0.503192 0.891404 -0.408429
C38   C     C_3   0.125511 0.638033 0.837946 -0.345522
C39   C     C_3   0.069212 0.751978 0.895061 -0.832663
H17   H     H_    0.979516 0.715402 0.919948 0.246778
H18   H     H_    0.132540 0.778940 0.951573 0.264224
H19   H     H_    0.052897 0.847790 0.854341 0.236819
H20   H     H_    0.208773 0.681978 0.807096 0.227282
H21   H     H_    0.058793 0.612019 0.783211 0.208366
H22   H     H_    0.159066 0.412018 0.845761 0.159383
H23   H     H_    0.076546 0.479915 0.935466 0.186132
C40   C     C_3   0.845187 0.507216 0.108721 -0.409330
C41   C     C_3   0.872668 0.642298 0.162349 -0.344230
C42   C     C_3   0.928655 0.757015 0.105623 -0.832165
H24   H     H_    0.019297 0.721857 0.081745 0.246567
H25   H     H_    0.866070 0.782897 0.048475 0.264312
H26   H     H_    0.943040 0.853216 0.146321 0.236666
H27   H     H_    0.788704 0.685249 0.192750 0.227393
H28   H     H_    0.939035 0.616904 0.217426 0.208004
H29   H     H_    0.841809 0.415894 0.154306 0.159855
H30   H     H_    0.923637 0.485327 0.064687 0.186406
H31   H     H_    0.183967 0.503952 0.065674 0.151485
H32   H     H_    0.815915 0.506781 0.934435 0.150942
H33   H     H_    0.111586 0.272487 0.499088 0.155033
H34   H     H_    0.888451 0.727195 0.501149 0.150112
H35   H     H_    0.888232 0.272529 0.496574 0.155720
H36   H     H_    0.111683 0.727182 0.501778 0.150213
H37   H     H_    0.350481 0.130251 0.407317 0.106388
H38   H     H_    0.649168 0.869441 0.593046 0.114142
H39   H     H_    0.649564 0.130261 0.592642 0.107398
H40   H     H_    0.350855 0.869448 0.406937 0.114128

loop_
_geom_bond_atom_site_label_1
_geom_bond_atom_site_label_2
_ccdc_geom_bond_type
C32   H4    S    
C36   H8    S    
C3    H31   S    
C31   C32   S    
C40   H29   S    
C6    C9    A    
C37   H22   S    
C35   H12   S    
C34   C35   S    
Cu2   O2    S    
C3    C28   A    
C19   C21   A    
C24   C26   A    
C11   C14   A    
C31   H7    S    
C33   H3    S    
C4    H32   S    
C32   H5    S    
C7    H35   S    
C6    H34   S    
C3    C29   A    
C18   C34   S    
C34   H13   S    
C38   H21   S    
C38   H20   S    
Cu1   N1    S    
Cu2   O4    S    
C18   C20   A    
C42   H24   S    
C42   H25   S    
C38   C39   S    
C14   N1    A    
C35   H11   S    
C33   H2    S    
C15   C20   S    
C39   H17   S    
C17   C27   A    
C18   C28   A    
C41   C42   S    
C41   H28   S    
C5    C7    A    
C6    C8    A    
C25   C26   A    
C33   H1    S    
C37   H23   S    
Cu1   O3    S    
C13   H39   S    
C39   H18   S    
Cu2   N2    S    
C40   C41   S    
C17   C31   S    
C34   H14   S    
Cu1   Cu2   S    
C15   O5    A    
C1    O4    A    
C16   O6    A    
C29   C37   S    
C20   C22   A    
C36   H9    S    
Cu1   O1    S    
C8    H36   S    
C23   C29   A    
C4    C27   A    
C32   C33   S    
C1    O1    A    
C42   H26   S    
C2    O2    A    
C7    C9    A    
C35   C36   S    
Cu1   O7    S    
C12   H38   S    
C11   N2    A    
C1    C10   S    
C15   O8    A    
C41   H27   S    
C25   C27   A    
C26   C28   A    
C39   H19   S    
C21   C23   A    
C13   N2    A    
C30   C40   S    
C2    O3    A    
C31   H6    S    
C16   C19   S    
C17   C19   A    
Cu1   O5    S    
C22   C24   A    
Cu2   O6    S    
C40   H30   S    
C24   C30   A    
C21   H15   S    
C22   H16   S    
C5    H33   S    
C11   H37   S    
C5    C10   A    
C23   C25   A    
C12   C13   A    
C8    C10   A    
C37   C38   S    
C36   H10   S    
Cu2   O8    S    
C12   N1    A    
C2    C9    S    
C16   O7    A    
C14   H40   S    
C4    C30   A    
