data_mof_unit_55708.cif
_audit_creation_date              2012-12-10T17:22:55-0500
_audit_creation_method            fapswitch 2.2
_symmetry_space_group_name_H-M    P1
_symmetry_Int_Tables_number       1
_space_group_crystal_system       triclinic
_cell_length_a                    10.224576
_cell_length_b                    10.529616
_cell_length_c                    10.611426
_cell_angle_alpha                 90.038725
_cell_angle_beta                  93.428461
_cell_angle_gamma                 80.624217
_cell_volume                      1125.10852656

loop_
_atom_site_label
_atom_site_type_symbol
_atom_type_description
_atom_site_fract_x
_atom_site_fract_y
_atom_site_fract_z
_atom_type_partial_charge
C1    C     C_R   0.446526 0.501079 0.266389 0.905854
C2    C     C_3   0.501148 0.122169 0.500883 -0.033947
C3    C     C_3   0.576590 0.945330 0.596949 0.170456
C4    C     C_3   0.422179 0.053925 0.403492 0.175316
C5    C     C_2   0.421081 0.481756 0.132366 -0.345973
C6    C     C_2   0.576080 0.454449 0.867125 -0.350669
C7    C     C_2   0.504448 0.397294 0.066941 0.133761
C8    C     C_2   0.487181 0.401489 0.930838 0.159128
C9    C     C_2   0.071232 0.502906 0.479889 0.044127
C10   C     C_2   0.922272 0.522886 0.495880 0.037936
C11   C     C_3   0.663881 0.880326 0.707335 -0.805720
C12   C     C_R   0.553090 0.484119 0.733484 0.916666
C13   C     C_3   0.332848 0.117820 0.293786 -0.818468
C14   C     C_3   0.368234 0.350361 0.871211 -0.762296
C15   C     C_3   0.619126 0.303344 0.124898 -0.719997
C16   C     C_R   0.500540 0.257273 0.500722 0.856095
C17   C     C_R   0.499333 0.742514 0.499402 0.886838
C18   C     C_3   0.625400 0.020026 0.489624 -0.128188
C19   C     C_3   0.373675 0.979029 0.510998 -0.104072
C20   C     C_3   0.545406 0.950207 0.390752 -0.236241
C21   C     C_3   0.453574 0.049002 0.609612 -0.207590
C22   C     C_3   0.498018 0.877329 0.499542 -0.047724
H1    H     H_    0.581531 0.906458 0.301434 0.159195
H2    H     H_    0.603283 0.830864 0.768628 0.226705
H3    H     H_    0.744708 0.808624 0.671568 0.277609
H4    H     H_    0.284947 0.044393 0.241921 0.247593
H5    H     H_    0.254951 0.192416 0.329893 0.288608
H6    H     H_    0.392215 0.163463 0.228371 0.219393
H7    H     H_    0.328994 0.287579 0.938868 0.230794
H8    H     H_    0.287231 0.430841 0.844006 0.269336
H9    H     H_    0.396876 0.291847 0.787494 0.221839
H10   H     H_    0.655976 0.228670 0.055726 0.218322
H11   H     H_    0.702266 0.354944 0.153346 0.296612
H12   H     H_    0.416985 0.089851 0.699628 0.156424
H13   H     H_    0.587075 0.253507 0.206801 0.243419
H14   H     H_    0.850131 0.134343 0.301345 0.367114
H15   H     H_    0.240428 0.676999 0.827836 0.354744
H16   H     H_    0.729091 0.037097 0.484549 0.213671
H17   H     H_    0.271036 0.959179 0.518679 0.209103
H18   H     H_    0.664330 0.480297 0.916147 0.159904
H19   H     H_    0.334922 0.540307 0.084643 0.147312
H20   H     H_    0.877235 0.604609 0.548750 0.169132
H21   H     H_    0.111758 0.441846 0.405089 0.175991
H22   H     H_    0.707913 0.953695 0.763165 0.249403
N1    N     N_2   0.157310 0.552180 0.551120 0.040551
N2    N     N_2   0.842690 0.447820 0.448880 0.055550
O1    O     O_R   0.568940 0.489500 0.307530 -0.589378
O2    O     O_2   0.023190 0.235357 0.462571 -0.318106
O3    O     O_3   0.801413 0.208359 0.346009 -0.549993
O4    O     O_2   0.016138 0.777344 0.604664 -0.302980
O5    O     O_2   0.027023 0.602046 0.758625 -0.344981
O6    O     O_3   0.234968 0.713661 0.741388 -0.500655
O7    O     O_R   0.431060 0.510500 0.692470 -0.576700
O8    O     O_R   0.348880 0.522990 0.340350 -0.629718
O9    O     O_R   0.651120 0.477010 0.659650 -0.608892
O10   O     O_R   0.610000 0.297210 0.483560 -0.550795
O11   O     O_R   0.390000 0.702790 0.516440 -0.566861
O12   O     O_R   0.389940 0.330700 0.516390 -0.635066
O13   O     O_R   0.610060 0.669300 0.483610 -0.645549
O14   O     O_2   0.967209 0.338689 0.254752 -0.347514
S1    S     S_3+6 0.912591 0.306315 0.377058 0.071015
S2    S     S_3+6 0.104096 0.662727 0.665494 0.088159
Zn1   Zn    Zn3+2 0.646930 0.477640 0.478080 1.046544
Zn2   Zn    Zn3+2 0.353070 0.522360 0.521920 1.037856

loop_
_geom_bond_atom_site_label_1
_geom_bond_atom_site_label_2
_ccdc_geom_bond_type
C10   N2    D    
C2    C4    S    
C1    O8    A    
C16   O10   A    
C13   H6    S    
C9    N1    D    
C9    H21   S    
C10   H20   S    
O9    Zn1   S    
C2    C16   S    
C9    C10   S    
C14   H9    S    
N1    Zn2   S    
O13   Zn1   S    
C17   C22   S    
C20   H1    S    
N2    Zn1   S    
C3    C11   S    
C2    C21   S    
C7    C15   S    
C18   H16   S    
O10   Zn1   S    
C11   H22   S    
O6    S2    S    
N1    S2    S    
C6    C12   S    
O2    S1    D    
O5    S2    D    
O8    Zn2   S    
C17   O13   A    
C1    C5    S    
C19   H17   S    
C15   H13   S    
C3    C18   S    
C19   C21   S    
C20   C22   S    
C18   C20   S    
O1    Zn1   S    
O4    S2    D    
O7    Zn2   S    
C6    H18   S    
C13   H4    S    
C3    C21   S    
C12   O9    A    
C2    C18   S    
C11   H3    S    
N2    S1    S    
C4    C20   S    
C11   H2    S    
C7    C8    S    
C19   C22   S    
O3    S1    S    
C6    C8    D    
O11   Zn2   S    
C4    C13   S    
C5    C7    D    
H15   O6    S    
C5    H19   S    
C13   H5    S    
C3    C22   S    
C16   O12   A    
C21   H12   S    
C8    C14   S    
O12   Zn2   S    
C14   H8    S    
C4    C19   S    
C15   H11   S    
O14   S1    D    
C1    O1    A    
H14   O3    S    
C12   O7    A    
C17   O11   A    
C14   H7    S    
C15   H10   S    
