data_mof_unit_30237.cif
_audit_creation_date              2012-12-11T15:55:46-0500
_audit_creation_method            fapswitch 2.2
_symmetry_space_group_name_H-M    P1
_symmetry_Int_Tables_number       1
_space_group_crystal_system       triclinic
_cell_length_a                    6.935943
_cell_length_b                    14.544262
_cell_length_c                    16.099543
_cell_angle_alpha                 89.955736
_cell_angle_beta                  90.075468
_cell_angle_gamma                 90.10847
_cell_volume                      1624.08767046

loop_
_atom_site_label
_atom_site_type_symbol
_atom_type_description
_atom_site_fract_x
_atom_site_fract_y
_atom_site_fract_z
_atom_type_partial_charge
O1    O     O_R   0.505680 0.583900 0.413320 -0.540093
O2    O     O_R   0.176010 0.594950 0.586080 -0.543603
O3    O     O_R   0.005680 0.416100 0.586680 -0.536511
C1    C     C_R   0.345317 0.617178 0.614783 0.695949
O4    O     O_R   0.175960 0.594930 0.413930 -0.543672
O5    O     O_R   0.005640 0.416080 0.413300 -0.540704
C2    C     C_R   0.345036 0.617183 0.385014 0.686811
O6    O     O_R   0.505720 0.583920 0.586700 -0.539033
O7    O     O_3   0.339190 0.441320 0.500000 -0.370664
V1    V     V_3+5 0.064350 0.510890 0.500000 1.397670
O8    O     O_R   0.675920 0.405050 0.413920 -0.543999
C3    C     C_R   0.844855 0.382770 0.384981 0.684376
O9    O     O_R   0.675960 0.405070 0.586070 -0.543801
C4    C     C_R   0.844781 0.382896 0.614812 0.697127
V2    V     V_3+5 0.564340 0.489110 0.500000 1.394568
O10   O     O_3   0.839370 0.558680 0.500000 -0.369063
C5    C     C_R   0.007493 0.317194 0.741421 0.102114
C6    C     C_R   0.852833 0.317273 0.685321 -0.113318
C7    C     C_R   0.701239 0.254959 0.700560 -0.177360
H1    H     H_    0.578814 0.252412 0.659086 0.133136
C8    C     C_R   0.712468 0.190758 0.766015 -0.174511
H2    H     H_    0.597754 0.140963 0.773200 0.127291
C9    C     C_R   0.875940 0.186712 0.818037 -0.112975
C10   C     C_R   0.019055 0.253396 0.805958 0.103693
C11   C     C_3   0.230401 0.241191 0.794126 -0.409145
C12   C     C_3   0.217977 0.311104 0.724194 -0.397565
H3    H     H_    0.266247 0.170788 0.772348 0.165265
H4    H     H_    0.315000 0.265959 0.848385 0.177251
H5    H     H_    0.247552 0.281538 0.661864 0.170959
H6    H     H_    0.294563 0.376514 0.738170 0.169031
C13   C     C_R   0.046893 0.224779 0.217742 -0.157416
H7    H     H_    0.187635 0.206398 0.194024 0.116509
C14   C     C_R   0.035615 0.288298 0.282939 -0.151412
H8    H     H_    0.168304 0.317021 0.307232 0.118710
C15   C     C_R   0.856010 0.314427 0.316144 -0.046622
C16   C     C_R   0.688012 0.275222 0.282207 -0.157762
H9    H     H_    0.547270 0.293604 0.305924 0.116225
C17   C     C_R   0.699291 0.211701 0.217011 -0.150995
H10   H     H_    0.566602 0.182979 0.192716 0.118946
C18   C     C_R   0.878896 0.185571 0.183807 -0.047201
C19   C     C_R   0.200347 0.745023 0.697737 -0.153663
H11   H     H_    0.072641 0.739784 0.659151 0.124241
C20   C     C_R   0.207350 0.811423 0.761146 0.162925
C21   C     C_R   0.374557 0.818024 0.812804 -0.060936
C22   C     C_R   0.531110 0.759473 0.796062 -0.201020
H12   H     H_    0.660355 0.762439 0.833745 0.132374
C23   C     C_R   0.522787 0.695160 0.731562 -0.155729
H13   H     H_    0.646006 0.651024 0.721141 0.127252
C24   C     C_R   0.356463 0.686517 0.682351 -0.085948
C25   C     C_R   0.188187 0.724483 0.282337 -0.157124
H14   H     H_    0.047484 0.705894 0.306137 0.116715
C26   C     C_R   0.199333 0.788026 0.217112 -0.151495
H15   H     H_    0.066649 0.816583 0.192855 0.119020
C27   C     C_R   0.378868 0.814375 0.183838 -0.047242
C28   C     C_R   0.546948 0.775412 0.217688 -0.157231
H16   H     H_    0.687647 0.794005 0.193885 0.116769
C29   C     C_R   0.535802 0.711865 0.282915 -0.151283
H17   H     H_    0.668480 0.683305 0.307175 0.118940
C30   C     C_R   0.356262 0.685517 0.316187 -0.046677
O11   O     O_R   0.229200 0.915950 0.913350 -0.535297
O12   O     O_R   0.559090 0.905000 0.086080 -0.543049
O13   O     O_R   0.729280 0.083880 0.086680 -0.540010
C31   C     C_R   0.390043 0.882710 0.115010 0.688995
O14   O     O_R   0.558920 0.904980 0.913920 -0.545745
O15   O     O_R   0.729110 0.083860 0.913300 -0.538699
C32   C     C_R   0.389087 0.884547 0.883471 0.694718
O16   O     O_R   0.229360 0.915970 0.086730 -0.539966
O17   O     O_3   0.395680 0.058580 0.000030 -0.368506
V3    V     V_3+5 0.670570 0.989070 0.999990 1.392016
O18   O     O_R   0.058820 0.094950 0.913870 -0.540333
C33   C     C_R   0.889755 0.116710 0.884838 0.698968
O19   O     O_R   0.058990 0.094970 0.086020 -0.543239
C34   C     C_R   0.890057 0.117222 0.114975 0.687023
V4    V     V_3+5 0.170560 0.010930 0.999930 1.395296
O20   O     O_3   0.895590 0.941310 0.999960 -0.370830
C35   C     C_3   0.036538 0.875012 0.769653 -0.758095
H18   H     H_    0.930653 0.865434 0.718576 0.189858
H19   H     H_    0.959488 0.861001 0.828636 0.222506
H20   H     H_    0.085062 0.947768 0.767535 0.196297

loop_
_geom_bond_atom_site_label_1
_geom_bond_atom_site_label_2
_ccdc_geom_bond_type
C28   H16   S    
C19   H11   S    
C4    C6    S    
C21   C32   S    
C15   C16   A    
C35   H20   S    
C1    O6    A    
C23   C24   A    
C22   H12   S    
C18   C34   S    
C11   H4    S    
O11   V4    S    
C5    C12   S    
C16   H9    S    
C7    C8    A    
C35   H19   S    
O5    C3    A    
C17   H10   S    
C29   C30   A    
C27   C31   S    
O17   V4    S    
V2    O10   S    
C13   C18   A    
C6    C7    A    
C2    C30   S    
O12   C31   A    
O8    V2    S    
C13   H7    S    
O17   V3    S    
O18   V4    S    
C25   C26   A    
C9    C10   A    
C13   C14   A    
O13   C34   A    
O18   C33   A    
O1    V2    S    
O7    V1    S    
O11   C32   A    
C8    H2    S    
C19   C20   A    
C19   C24   A    
C26   C27   A    
C14   H8    S    
C22   C23   A    
C31   O16   A    
C5    C10   A    
V4    O20   S    
C9    C33   S    
C10   C11   S    
O19   V4    S    
O4    C2    A    
C25   H14   S    
C11   C12   S    
O15   C33   A    
O13   V3    S    
O14   C32   A    
O2    C1    A    
C20   C21   A    
C23   H13   S    
O9    V2    S    
C5    C6    A    
O16   V4    S    
O14   V3    S    
C35   H18   S    
C3    C15   S    
O3    C4    A    
C12   H6    S    
O6    V2    S    
C28   C29   A    
C25   C30   A    
O2    V1    S    
C21   C22   A    
O12   V3    S    
C20   C35   S    
C27   C28   A    
O1    C2    A    
O19   C34   A    
O5    V1    S    
O8    C3    A    
C11   H3    S    
C1    C24   S    
C7    H1    S    
C8    C9    A    
O7    V2    S    
O4    V1    S    
O3    V1    S    
V1    O10   S    
C17   C18   A    
C29   H17   S    
O15   V3    S    
C16   C17   A    
C14   C15   A    
V3    O20   S    
C12   H5    S    
O9    C4    A    
C26   H15   S    
