data_mof_unit_21644.cif
_audit_creation_date              2012-12-11T16:26:25-0500
_audit_creation_method            fapswitch 2.2
_symmetry_space_group_name_H-M    P1
_symmetry_Int_Tables_number       1
_space_group_crystal_system       triclinic
_cell_length_a                    6.936321
_cell_length_b                    17.524894
_cell_length_c                    19.471175
_cell_angle_alpha                 108.635542
_cell_angle_beta                  89.611951
_cell_angle_gamma                 90.556201
_cell_volume                      2242.66545025

loop_
_atom_site_label
_atom_site_type_symbol
_atom_type_description
_atom_site_fract_x
_atom_site_fract_y
_atom_site_fract_z
_atom_type_partial_charge
O1    O     O_R   0.494330 0.415720 0.413720 -0.535358
O2    O     O_R   0.819330 0.430070 0.560210 -0.548157
O3    O     O_R   0.994320 0.584280 0.586280 -0.534823
C1    C     C_R   0.650137 0.414584 0.581535 0.706869
O4    O     O_R   0.823730 0.406300 0.412670 -0.538812
O5    O     O_R   0.998760 0.560340 0.437690 -0.539600
C2    C     C_R   0.654930 0.383438 0.385061 0.697116
O6    O     O_R   0.489890 0.439660 0.562310 -0.539229
O7    O     O_3   0.662340 0.550560 0.508380 -0.368002
V1    V     V_3+5 0.935370 0.490620 0.498450 1.413261
O8    O     O_R   0.328750 0.569930 0.439790 -0.547490
C3    C     C_R   0.160688 0.585000 0.418090 0.706176
O9    O     O_R   0.324340 0.593700 0.587330 -0.538731
C4    C     C_R   0.155475 0.616557 0.614939 0.697700
V2    V     V_3+5 0.435940 0.509380 0.501550 1.413488
O10   O     O_3   0.159100 0.449440 0.491620 -0.368333
H1    H     H_    0.349866 0.868752 0.573920 0.114798
C5    C     C_R   0.034012 0.592243 0.748892 -0.142983
C6    C     C_R   0.973805 0.578512 0.812363 -0.122735
C7    C     C_R   0.961573 0.642199 0.876762 -0.117669
C8    C     C_R   0.009430 0.720102 0.878187 -0.134975
C9    C     C_R   0.069431 0.736100 0.814459 0.069208
C10   C     C_R   0.082011 0.670830 0.748426 0.069523
C11   C     C_R   0.120244 0.815234 0.816025 -0.184529
C12   C     C_R   0.183591 0.829084 0.751527 0.069516
C13   C     C_R   0.196184 0.763813 0.685495 0.069197
C14   C     C_R   0.145324 0.684683 0.683925 -0.184571
C15   C     C_R   0.231605 0.907669 0.751061 -0.143063
C16   C     C_R   0.291854 0.921396 0.687592 -0.122744
C17   C     C_R   0.304113 0.857708 0.623197 -0.117656
C18   C     C_R   0.256232 0.779807 0.621770 -0.134956
H2    H     H_    0.043837 0.540405 0.700528 0.104867
H3    H     H_    0.937613 0.518006 0.811617 0.115534
H4    H     H_    0.915861 0.631150 0.926042 0.114808
H5    H     H_    0.000054 0.767307 0.929895 0.100769
H6    H     H_    0.221771 0.959508 0.799424 0.104882
H7    H     H_    0.328066 0.981901 0.688338 0.115539
H8    H     H_    0.265639 0.732600 0.570065 0.100801
C19   C     C_R   0.990260 0.629544 0.324269 -0.210776
C20   C     C_R   0.152629 0.634178 0.368571 -0.084720
C21   C     C_R   0.307044 0.685536 0.364887 -0.234652
C22   C     C_R   0.299194 0.732404 0.318347 0.091292
C23   C     C_R   0.136589 0.726774 0.273713 0.051243
C24   C     C_R   0.982036 0.674859 0.276491 0.087526
C25   C     C_R   0.450954 0.784994 0.315710 -0.184881
C26   C     C_R   0.443029 0.830867 0.268673 -0.188189
C27   C     C_R   0.283053 0.825065 0.223445 0.087538
C28   C     C_R   0.128505 0.773147 0.226220 0.051251
C29   C     C_R   0.965901 0.767516 0.181585 0.091283
C30   C     C_R   0.814133 0.714932 0.184227 -0.184884
C31   C     C_R   0.822053 0.669061 0.231266 -0.188181
C32   C     C_R   0.274830 0.870382 0.175669 -0.210783
C33   C     C_R   0.112469 0.865743 0.131362 -0.084722
C34   C     C_R   0.958058 0.814382 0.135043 -0.234622
H9    H     H_    0.871106 0.589741 0.326189 0.123555
H10   H     H_    0.432399 0.689846 0.398928 0.127617
H11   H     H_    0.576579 0.790319 0.349761 0.133923
H12   H     H_    0.562768 0.870593 0.267386 0.129102
H13   H     H_    0.393978 0.910190 0.173754 0.123560
H14   H     H_    0.832707 0.810069 0.101000 0.127622
H15   H     H_    0.688503 0.709611 0.150179 0.133925
H16   H     H_    0.702306 0.629342 0.232559 0.129124
C35   C     C_R   0.467964 0.185942 0.867637 -0.231903
C36   C     C_R   0.623501 0.135672 0.869924 -0.084249
C37   C     C_R   0.783619 0.132111 0.824243 -0.214635
C38   C     C_R   0.787492 0.176982 0.775940 0.088829
C39   C     C_R   0.631028 0.227344 0.774223 0.051274
C40   C     C_R   0.471345 0.232179 0.820609 0.089325
C41   C     C_R   0.944494 0.172013 0.728911 -0.184769
C42   C     C_R   0.947626 0.217145 0.681178 -0.187622
C43   C     C_R   0.793778 0.268023 0.679575 0.089312
C44   C     C_R   0.634106 0.272868 0.725967 0.051270
C45   C     C_R   0.477640 0.323229 0.724246 0.088840
C46   C     C_R   0.320637 0.328197 0.771276 -0.184747
C47   C     C_R   0.317501 0.283059 0.819007 -0.187614
C48   C     C_R   0.797138 0.314237 0.632530 -0.231925
C49   C     C_R   0.641601 0.364501 0.630232 -0.084297
C50   C     C_R   0.481503 0.368086 0.675930 -0.214610
H17   H     H_    0.344291 0.189505 0.902852 0.128003
H18   H     H_    0.903443 0.093176 0.825191 0.123163
H19   H     H_    0.065529 0.133499 0.729292 0.130023
H20   H     H_    0.071189 0.212616 0.645779 0.133181
H21   H     H_    0.920792 0.310650 0.597301 0.128030
H22   H     H_    0.361677 0.407018 0.674974 0.123171
H23   H     H_    0.199597 0.366707 0.770891 0.130008
H24   H     H_    0.193930 0.287583 0.854402 0.133191
H25   H     H_    0.837422 0.131590 0.426268 0.114741
C51   C     C_R   0.539048 0.407541 0.251096 -0.143662
C52   C     C_R   0.481909 0.421167 0.187581 -0.122588
C53   C     C_R   0.470089 0.357483 0.123147 -0.117523
C54   C     C_R   0.515337 0.279691 0.121727 -0.135046
C55   C     C_R   0.572140 0.263794 0.185503 0.069256
C56   C     C_R   0.584231 0.329054 0.251571 0.069592
C57   C     C_R   0.620279 0.184779 0.183954 -0.184271
C58   C     C_R   0.680325 0.171011 0.248502 0.069646
C59   C     C_R   0.692410 0.236269 0.314570 0.069244
C60   C     C_R   0.644341 0.315290 0.316113 -0.184464
C61   C     C_R   0.725425 0.092518 0.248983 -0.143527
C62   C     C_R   0.782420 0.078881 0.312508 -0.122557
C63   C     C_R   0.794222 0.142564 0.376945 -0.117566
C64   C     C_R   0.749111 0.220366 0.378354 -0.135082
H26   H     H_    0.548702 0.459382 0.299487 0.104557
H27   H     H_    0.447786 0.481591 0.188325 0.115105
H28   H     H_    0.426764 0.368449 0.073834 0.114742
H29   H     H_    0.506502 0.232498 0.069985 0.100568
H30   H     H_    0.715779 0.040678 0.200591 0.104513
H31   H     H_    0.816435 0.018450 0.311774 0.115061
H32   H     H_    0.757933 0.267556 0.430097 0.100489
O11   O     O_R   0.775200 0.060470 0.937800 -0.539266
O12   O     O_R   0.441110 0.093720 0.087350 -0.538759
O13   O     O_R   0.266330 0.939630 0.062280 -0.539601
C65   C     C_R   0.609850 0.116638 0.114997 0.697363
O14   O     O_R   0.445750 0.069950 0.939820 -0.548135
O15   O     O_R   0.271000 0.915700 0.913700 -0.534860
C66   C     C_R   0.614947 0.085529 0.918568 0.706832
O16   O     O_R   0.770530 0.084400 0.086380 -0.535522
O17   O     O_3   0.602830 0.949510 0.991680 -0.368056
V3    V     V_3+5 0.329710 0.009370 0.001550 1.413207
O18   O     O_R   0.940990 0.906170 0.912570 -0.538976
C67   C     C_R   0.109924 0.883371 0.885000 0.697468
O19   O     O_R   0.936350 0.929940 0.060100 -0.547517
C68   C     C_R   0.104408 0.914925 0.081845 0.706155
V4    V     V_3+5 0.829160 0.990450 0.998310 1.413663
O20   O     O_3   0.105910 0.050480 0.008320 -0.368261

loop_
_geom_bond_atom_site_label_1
_geom_bond_atom_site_label_2
_ccdc_geom_bond_type
O16   V4    S    
C21   C22   A    
C54   H29   S    
C58   C59   A    
C65   O16   A    
C1    O6    A    
O12   V3    S    
C58   C61   A    
V4    O20   S    
C35   H17   S    
C33   C34   A    
C40   C47   A    
C25   H11   S    
C13   C14   A    
O13   V3    S    
C15   C16   A    
C39   C44   A    
C33   C68   S    
O5    C3    A    
C17   C18   A    
C38   C41   A    
V2    O10   S    
C61   C62   A    
C5    C6    A    
C45   C46   A    
C55   C56   A    
C51   C56   A    
O8    V2    S    
C19   H9    S    
C6    C7    A    
C45   C50   A    
C42   C43   A    
O1    V2    S    
C10   C14   A    
C4    C14   S    
C23   C28   A    
C7    H4    S    
C64   H32   S    
C38   C39   A    
C13   C18   A    
C37   H18   S    
C8    C9    A    
C52   H27   S    
O13   C68   A    
H1    C17   S    
C41   C42   A    
C31   H16   S    
C48   H21   S    
C11   C67   S    
C46   C47   A    
C35   C36   A    
C5    C10   A    
C27   C28   A    
C59   C64   A    
C11   C12   A    
C6    H3    S    
C19   C20   A    
O4    C2    A    
O11   V4    S    
C34   H14   S    
C12   C13   A    
C49   C50   A    
C39   C40   A    
C12   C15   A    
C22   C25   A    
C3    C20   S    
C27   C32   A    
O2    C1    A    
C23   C24   A    
C21   H10   S    
C16   C17   A    
C32   H13   S    
C50   H22   S    
C47   H24   S    
C62   C63   A    
O18   C67   A    
C59   C60   A    
C7    C8    A    
C55   C57   A    
C30   C31   A    
V3    O20   S    
C48   C49   A    
C53   H28   S    
O19   C68   A    
O15   V3    S    
O3    C4    A    
C24   C31   A    
C20   C21   A    
C37   C38   A    
O6    V2    S    
O9    V2    S    
C9    C11   A    
C5    H2    S    
C22   C23   A    
O2    V1    S    
C56   C60   A    
C54   C55   A    
C32   C33   A    
H25   C63   S    
O7    V1    S    
O15   C67   A    
C26   C27   A    
C28   C29   A    
C2    C60   S    
O1    C2    A    
C44   C45   A    
O5    V1    S    
C51   H26   S    
O8    C3    A    
C19   C24   A    
C8    H5    S    
O18   V4    S    
C62   H31   S    
C35   C40   A    
C61   H30   S    
C18   H8    S    
C36   C37   A    
O7    V2    S    
C1    C49   S    
O3    V1    S    
V1    O10   S    
O17   V3    S    
C53   C54   A    
C43   C48   A    
C57   C65   S    
C63   C64   A    
C46   H23   S    
O17   V4    S    
C57   C58   A    
C42   H20   S    
O12   C65   A    
O19   V4    S    
C41   H19   S    
O11   C66   A    
O14   V3    S    
C25   C26   A    
O4    V1    S    
C43   C44   A    
C51   C52   A    
C15   H6    S    
C29   C30   A    
C16   H7    S    
C36   C66   S    
C30   H15   S    
C9    C10   A    
C52   C53   A    
O9    C4    A    
C26   H12   S    
C29   C34   A    
O14   C66   A    
