data_mof_unit_56768.cif
_audit_creation_date              2012-12-10T16:57:08-0500
_audit_creation_method            fapswitch 2.2
_symmetry_space_group_name_H-M    P1
_symmetry_Int_Tables_number       1
_space_group_crystal_system       triclinic
_cell_length_a                    7.829591
_cell_length_b                    8.599565
_cell_length_c                    16.399498
_cell_angle_alpha                 92.47107
_cell_angle_beta                  80.899239
_cell_angle_gamma                 92.968362
_cell_volume                      1088.14994007

loop_
_atom_site_label
_atom_site_type_symbol
_atom_type_description
_atom_site_fract_x
_atom_site_fract_y
_atom_site_fract_z
_atom_type_partial_charge
C1    C     C_R   0.544505 0.794164 0.499585 0.867835
C2    C     C_R   0.410397 0.630174 0.227856 0.435269
C3    C     C_R   0.620658 0.583077 0.861578 -0.188177
C4    C     C_R   0.446293 0.702781 0.152617 -0.165689
C5    C     C_R   0.516008 0.707275 0.892677 0.120550
C6    C     C_R   0.612672 0.702573 0.105544 0.113779
C7    C     C_R   0.388055 0.751329 0.848888 -0.136338
C8    C     C_R   0.744682 0.631534 0.136471 -0.150972
C9    C     C_R   0.368814 0.676850 0.773810 -0.212423
C10   C     C_R   0.711192 0.560413 0.212213 -0.191052
C11   C     C_2   0.517741 0.774187 0.976587 -0.174706
C12   C     C_R   0.455454 0.205858 0.500521 0.889517
C13   C     C_2   0.646717 0.749560 0.018730 -0.180190
C14   C     C_2   0.666407 0.012416 0.577211 0.999343
C15   C     C_2   0.332893 0.987395 0.423467 1.008337
C16   C     C_2   0.558858 0.956642 0.513682 -0.285657
C17   C     C_2   0.440769 0.043333 0.486797 -0.286275
C18   C     C_R   0.478776 0.507108 0.655005 0.912343
C19   C     C_R   0.523471 0.507246 0.344959 0.892321
C20   C     C_R   0.477818 0.557201 0.741154 -0.124846
C21   C     C_R   0.544581 0.558930 0.259300 -0.140795
C22   C     C_R   0.603212 0.508921 0.786190 0.412726
Cl1   Cl    Cl    0.738927 0.354236 0.751811 -0.534443
Cl2   Cl    Cl    0.194041 0.636265 0.278342 -0.572510
Cl3   Cl    Cl    0.053941 0.328468 0.405526 -0.412058
Cl4   Cl    Cl    0.945216 0.666223 0.597099 -0.440343
H1    H     H_    0.817397 0.508158 0.234335 0.225108
H2    H     H_    0.094147 0.954629 0.392729 0.384091
H3    H     H_    0.273253 0.717648 0.739617 0.202988
H4    H     H_    0.773604 0.725519 0.984485 0.151563
H5    H     H_    0.396060 0.817310 0.007535 0.147213
H6    H     H_    0.302617 0.843393 0.872934 0.157915
H7    H     H_    0.873554 0.627436 0.100961 0.153852
H8    H     H_    0.340363 0.756152 0.131523 0.157024
H9    H     H_    0.713092 0.539108 0.896322 0.163294
H10   H     H_    0.904151 0.039313 0.609618 0.380622
N1    N     N_2   0.953500 0.457650 0.478520 0.162210
N2    N     N_2   0.046500 0.542350 0.521480 0.159006
O1    O     O_R   0.388470 0.738640 0.505270 -0.603631
O2    O     O_R   0.845022 0.995397 0.562348 -0.681959
O3    O     O_2   0.401852 0.931369 0.357395 -0.621249
O4    O     O_R   0.153460 0.998088 0.440027 -0.680802
O5    O     O_R   0.611530 0.261360 0.494730 -0.596510
O6    O     O_R   0.679650 0.711510 0.491500 -0.563820
O7    O     O_R   0.320350 0.288490 0.508500 -0.564677
O8    O     O_R   0.337210 0.515200 0.623500 -0.609000
O9    O     O_R   0.662790 0.484800 0.376500 -0.605440
O10   O     O_R   0.628380 0.488060 0.609730 -0.543998
O11   O     O_R   0.371620 0.511940 0.390270 -0.534760
O12   O     O_2   0.597890 0.073444 0.642082 -0.591672
Zn1   Zn    Zn3+2 0.305580 0.518120 0.509190 1.146568
Zn2   Zn    Zn3+2 0.694420 0.481880 0.490810 1.150515

loop_
_geom_bond_atom_site_label_1
_geom_bond_atom_site_label_2
_ccdc_geom_bond_type
C12   C17   S    
C10   H1    S    
O1    Zn1   S    
C15   C17   S    
O9    Zn2   S    
C7    H6    S    
C9    H3    S    
C19   O11   A    
C1    O6    A    
C2    C4    A    
C3    H9    S    
C3    C5    A    
O6    Zn2   S    
C2    C21   A    
C11   H5    S    
C1    C16   S    
C14   O12   D    
C6    C13   S    
C11   C13   D    
N1    N2    D    
C18   O8    A    
C4    C6    A    
C19   C21   S    
C20   C22   A    
C5    C11   S    
C12   O5    A    
C4    H8    S    
C8    H7    S    
C10   C21   A    
C2    Cl2   S    
C14   C16   S    
O5    Zn2   S    
O7    Zn1   S    
C14   O2    S    
C12   O7    A    
C7    C9    A    
C13   H4    S    
O10   Zn2   S    
C15   O3    D    
C18   C20   S    
C8    C10   A    
C19   O9    A    
H2    O4    S    
C5    C7    A    
N1    Zn2   S    
C1    O1    A    
C22   Cl1   S    
Cl4   N2    S    
H10   O2    S    
C6    C8    A    
N2    Zn1   S    
C9    C20   A    
Cl3   N1    S    
O8    Zn1   S    
O11   Zn1   S    
C15   O4    S    
C16   C17   D    
C3    C22   A    
C18   O10   A    
