data_mof_unit_53488.cif
_audit_creation_date              2012-12-10T17:30:21-0500
_audit_creation_method            fapswitch 2.2
_symmetry_space_group_name_H-M    P1
_symmetry_Int_Tables_number       1
_space_group_crystal_system       triclinic
_cell_length_a                    12.046207
_cell_length_b                    12.731581
_cell_length_c                    14.87293
_cell_angle_alpha                 90.526163
_cell_angle_beta                  86.854163
_cell_angle_gamma                 94.89035
_cell_volume                      2269.26880261

loop_
_atom_site_label
_atom_site_type_symbol
_atom_type_description
_atom_site_fract_x
_atom_site_fract_y
_atom_site_fract_z
_atom_type_partial_charge
C1    C     C_R   0.523239 0.700336 0.497106 0.943177
C2    C     C_R   0.390634 0.138665 0.576138 0.502011
C3    C     C_R   0.472672 0.869210 0.548073 -0.335297
C4    C     C_R   0.526888 0.131204 0.448987 -0.300030
C5    C     C_R   0.466675 0.974986 0.534049 0.113758
C6    C     C_R   0.531182 0.024807 0.461994 0.118633
C7    C     C_R   0.948380 0.387362 0.427665 0.500686
C8    C     C_R   0.049826 0.598526 0.586777 0.500430
C9    C     C_R   0.832480 0.399089 0.436258 -0.251418
C10   C     C_R   0.165295 0.584727 0.579545 -0.238069
C11   C     C_R   0.861300 0.550291 0.529329 0.654921
C12   C     C_R   0.476637 0.299696 0.502158 0.947927
C13   C     C_R   0.140230 0.459486 0.461704 0.639965
C14   C     C_R   0.977623 0.537364 0.530224 -0.272067
C15   C     C_R   0.022087 0.460637 0.472491 -0.281392
C16   C     C_R   0.500766 0.501055 0.672529 0.943531
C17   C     C_R   0.498967 0.498025 0.327268 0.963370
C18   C     C_R   0.516950 0.403600 0.184446 0.502233
C19   C     C_R   0.487381 0.596753 0.814010 0.495507
C20   C     C_R   0.496275 0.495637 0.231894 -0.200112
C21   C     C_R   0.501348 0.502678 0.767630 -0.182631
C22   C     C_R   0.471128 0.586201 0.189600 -0.302090
C23   C     C_R   0.452432 0.686183 0.959182 0.103255
C24   C     C_R   0.506334 0.407809 0.810801 -0.271279
C25   C     C_R   0.471691 0.589353 0.096568 0.010525
C26   C     C_R   0.498107 0.403967 0.903844 -0.003591
C27   C     C_R   0.486125 0.495664 0.046927 -0.090699
C28   C     C_R   0.486174 0.498235 0.953206 -0.094168
C29   C     C_R   0.502616 0.399956 0.091234 -0.099922
C30   C     C_R   0.474646 0.594831 0.908488 -0.071279
C31   C     C_R   0.456658 0.684438 0.053078 0.453616
C32   C     C_R   0.499151 0.306765 0.947718 0.471483
C33   C     C_3   0.663575 0.315822 0.222583 -0.320936
C34   C     C_R   0.504798 0.304506 0.041560 0.095498
C35   C     C_3   0.593276 0.736603 0.752145 -0.308249
C36   C     C_3   0.933714 0.263757 0.310777 -0.355917
C37   C     C_3   0.070628 0.754355 0.670327 -0.340990
C38   C     C_3   0.542564 0.829457 0.117891 -0.366660
C39   C     C_3   0.389729 0.174471 0.885491 -0.313172
C40   C     C_3   0.305392 0.776338 0.898341 -0.684325
C41   C     C_3   0.586419 0.135201 0.060465 -0.675466
C42   C     C_3   0.216300 0.180295 0.619827 -0.281845
C43   C     C_3   0.756460 0.846701 0.313689 -0.406521
C44   C     C_3   0.185461 0.449719 0.311749 -0.206433
C45   C     C_R   0.460224 0.187867 0.507311 -0.143241
C46   C     C_3   0.838140 0.724481 0.520950 -0.242623
C47   C     C_R   0.538866 0.812186 0.489503 -0.161747
C48   C     C_R   0.599942 0.968194 0.404411 -0.301033
C49   C     C_R   0.395907 0.031315 0.590267 -0.287206
C50   C     C_R   0.604927 0.859647 0.417499 0.515589
H1    H     H_    0.455013 0.655149 0.230082 0.211728
H2    H     H_    0.706035 0.385449 0.255699 0.171242
H3    H     H_    0.695353 0.312593 0.151081 0.169302
H4    H     H_    0.646185 0.686534 0.709281 0.206566
H5    H     H_    0.632448 0.754822 0.817188 0.163833
H6    H     H_    0.589840 0.812240 0.716424 0.190717
H7    H     H_    0.989224 0.216303 0.268107 0.201381
H8    H     H_    0.911894 0.330125 0.268677 0.131757
H9    H     H_    0.858537 0.211128 0.331401 0.155651
H10   H     H_    0.017009 0.811948 0.702971 0.194692
H11   H     H_    0.108416 0.790947 0.606788 0.140758
H12   H     H_    0.515568 0.336983 0.770876 0.211167
H13   H     H_    0.135988 0.740360 0.717633 0.169027
H14   H     H_    0.595835 0.781234 0.156756 0.195585
H15   H     H_    0.527939 0.901075 0.158365 0.209520
H16   H     H_    0.587942 0.855334 0.053669 0.144562
H17   H     H_    0.391163 0.100346 0.845789 0.204291
H18   H     H_    0.344993 0.230506 0.846739 0.188974
H19   H     H_    0.343136 0.155404 0.950754 0.146672
H20   H     H_    0.451147 0.848950 0.945656 0.243367
H21   H     H_    0.290631 0.847535 0.859616 0.212829
H22   H     H_    0.253535 0.775411 0.962529 0.228575
H23   H     H_    0.578771 0.171250 0.395639 0.177993
H24   H     H_    0.279787 0.705634 0.857650 0.247962
H25   H     H_    0.423340 0.169762 0.101534 0.227090
H26   H     H_    0.613364 0.097314 0.121581 0.208122
H27   H     H_    0.660865 0.178304 0.026196 0.232513
H28   H     H_    0.551496 0.072509 0.015074 0.244256
H29   H     H_    0.183838 0.097682 0.635437 0.141295
H30   H     H_    0.200534 0.199963 0.549060 0.201378
H31   H     H_    0.168969 0.232885 0.664522 0.189999
H32   H     H_    0.807568 0.894856 0.361710 0.163172
H33   H     H_    0.734008 0.895259 0.256835 0.169532
H34   H     H_    0.422071 0.829672 0.602483 0.188874
H35   H     H_    0.809047 0.786070 0.284694 0.194456
H36   H     H_    0.238381 0.409615 0.261059 0.183627
H37   H     H_    0.218109 0.534193 0.314259 0.140283
H38   H     H_    0.099595 0.444454 0.287706 0.145282
H39   H     H_    0.813632 0.710450 0.450557 0.179995
H40   H     H_    0.927572 0.753948 0.519810 0.149473
H41   H     H_    0.789115 0.787576 0.550304 0.178182
H42   H     H_    0.645554 0.008474 0.348263 0.136125
H43   H     H_    0.347169 0.992957 0.646022 0.147160
H44   H     H_    0.222404 0.626027 0.623917 0.180852
H45   H     H_    0.773266 0.342445 0.406608 0.170387
H46   H     H_    0.686740 0.244097 0.256128 0.165036
N1    N     N_R   0.207800 0.519350 0.516680 -0.168099
N2    N     N_R   0.792200 0.480650 0.483320 -0.166000
N3    N     N_2   0.422326 0.778812 0.916575 -0.245048
N4    N     N_2   0.502025 0.205809 0.086709 -0.239315
O1    O     O_R   0.421700 0.658830 0.504450 -0.632378
O2    O     O_3   0.483600 0.688907 0.765808 -0.614941
O3    O     O_3   0.991078 0.298971 0.387141 -0.553198
O4    O     O_3   0.003667 0.659983 0.654848 -0.551842
O5    O     O_3   0.438326 0.774628 0.102600 -0.610014
O6    O     O_3   0.500753 0.213994 0.898450 -0.608509
O7    O     O_3   0.330431 0.197895 0.636631 -0.624687
O8    O     O_3   0.659849 0.794906 0.356662 -0.615943
O9    O     O_3   0.189350 0.398933 0.395635 -0.544641
O10   O     O_3   0.815755 0.633088 0.574370 -0.557054
O11   O     O_R   0.578300 0.341170 0.495550 -0.636555
O12   O     O_R   0.609310 0.646410 0.493750 -0.575147
O13   O     O_R   0.390690 0.353590 0.506250 -0.561583
O14   O     O_R   0.406180 0.506230 0.637500 -0.604483
O15   O     O_R   0.593820 0.493770 0.362500 -0.615874
O16   O     O_R   0.593800 0.493820 0.626800 -0.601053
O17   O     O_R   0.406200 0.506180 0.373200 -0.611325
O18   O     O_3   0.546337 0.317224 0.230818 -0.599243
Zn1   Zn    Zn3+2 0.374730 0.508290 0.507150 1.002211
Zn2   Zn    Zn3+2 0.625270 0.491710 0.492850 0.993777

loop_
_geom_bond_atom_site_label_1
_geom_bond_atom_site_label_2
_ccdc_geom_bond_type
C25   C31   A    
C39   O6    S    
C23   N3    S    
C26   C32   A    
C9    N2    A    
C40   H21   S    
C27   C29   A    
C43   H33   S    
C39   H18   S    
C36   H9    S    
C40   N3    S    
C46   H39   S    
C33   H2    S    
C42   H30   S    
C16   C21   S    
C6    C48   A    
C36   O3    S    
C19   C21   A    
C24   C26   A    
C36   H8    S    
O17   Zn1   S    
C1    O12   A    
C41   H27   S    
C5    C6    A    
C19   O2    S    
C10   H44   S    
C2    O7    S    
C17   C20   S    
C3    C47   A    
C13   O9    S    
C32   C34   A    
O13   Zn1   S    
C38   H16   S    
C22   C25   A    
C34   N4    S    
C44   H37   S    
C42   O7    S    
C18   O18   S    
O14   Zn1   S    
C17   O17   A    
C44   O9    S    
C35   O2    S    
C7    C15   A    
C33   O18   S    
C7    O3    S    
C35   H4    S    
C50   O8    S    
C31   O5    S    
C5    C49   A    
C42   H31   S    
C44   H36   S    
C16   O16   A    
C37   H13   S    
C47   C50   A    
C38   H14   S    
C4    C45   A    
C2    C45   A    
C33   H3    S    
C35   H5    S    
O1    Zn1   S    
C23   C30   A    
C4    C6    A    
C36   H7    S    
C41   H28   S    
O12   Zn2   S    
C1    C47   S    
C46   H41   S    
C29   C34   A    
O16   Zn2   S    
O11   Zn2   S    
C43   H35   S    
N1    Zn1   S    
C10   N1    A    
C2    C49   A    
C38   H15   S    
C39   H19   S    
C41   N4    S    
C18   C29   A    
C8    O4    S    
C4    H23   S    
C20   C22   A    
C46   O10   S    
C8    C14   A    
C33   H46   S    
C1    O1    A    
C27   C28   A    
C11   N2    A    
H20   N3    S    
C17   O15   A    
C12   O13   A    
C7    C9    A    
C9    H45   S    
C24   H12   S    
C40   H22   S    
C35   H6    S    
C39   H17   S    
C12   C45   S    
C3    C5    A    
C16   O14   A    
C37   O4    S    
C37   H11   S    
N2    Zn2   S    
C46   H40   S    
C25   C27   A    
C26   C28   A    
C38   O5    S    
C13   C15   A    
C28   C30   A    
C41   H26   S    
C48   C50   A    
H25   N4    S    
C11   C14   A    
C40   H24   S    
C18   C20   A    
C43   O8    S    
C13   N1    A    
C37   H10   S    
C42   H29   S    
C8    C10   A    
O15   Zn2   S    
C48   H42   S    
C21   C24   A    
C3    H34   S    
C43   H32   S    
C14   C15   A    
C32   O6    S    
C49   H43   S    
C44   H38   S    
C19   C30   A    
C12   O11   A    
C23   C31   A    
C22   H1    S    
C11   O10   S    
