data_mof_unit_35035.cif
_audit_creation_date              2012-12-10T18:47:40-0500
_audit_creation_method            fapswitch 2.2
_symmetry_space_group_name_H-M    P1
_symmetry_Int_Tables_number       1
_space_group_crystal_system       triclinic
_cell_length_a                    9.827752
_cell_length_b                    10.80738
_cell_length_c                    15.486746
_cell_angle_alpha                 89.985808
_cell_angle_beta                  68.019814
_cell_angle_gamma                 90.005057
_cell_volume                      1525.32108808

loop_
_atom_site_label
_atom_site_type_symbol
_atom_type_description
_atom_site_fract_x
_atom_site_fract_y
_atom_site_fract_z
_atom_type_partial_charge
C1    C     C_R   0.500313 0.740580 0.499548 1.013717
C2    C     C_R   0.500005 0.260043 0.499733 1.060617
C3    C     C_R   0.313831 0.525412 0.108282 -0.197989
C4    C     C_R   0.641871 0.636182 0.910167 -0.210567
C5    C     C_R   0.211871 0.509933 0.066869 -0.221852
C6    C     C_R   0.743452 0.651063 0.952269 -0.218064
C7    C     C_R   0.626475 0.940022 0.497138 0.303729
C8    C     C_R   0.366560 0.062762 0.523213 0.307341
C9    C     C_R   0.634223 0.063376 0.472689 0.312027
C10   C     C_R   0.375684 0.939454 0.498333 0.299218
C11   C     C_R   0.500196 0.127953 0.498637 -0.426532
C12   C     C_R   0.500937 0.873738 0.498278 -0.424271
C13   C     C_R   0.974597 0.473630 0.420645 0.021259
C14   C     C_R   0.025497 0.526614 0.579294 0.006513
C15   C     C_R   0.118223 0.472908 0.420801 -0.012064
C16   C     C_R   0.881821 0.526536 0.579276 0.016602
C17   C     C_R   0.408518 0.502302 0.676001 0.899750
C18   C     C_R   0.591314 0.501603 0.323945 0.901497
C19   C     C_R   0.350465 0.513526 0.777049 -0.038643
C20   C     C_R   0.645784 0.522770 0.223848 -0.031723
C21   C     C_R   0.157023 0.488035 0.927941 -0.203625
C22   C     C_R   0.815186 0.620162 0.084609 -0.200458
C23   C     C_R   0.204149 0.485820 0.831252 -0.166383
C24   C     C_R   0.781563 0.578986 0.175731 -0.191243
C25   C     C_R   0.446084 0.551296 0.819347 -0.227035
C26   C     C_R   0.546699 0.505576 0.180213 -0.223324
C27   C     C_R   0.401507 0.555043 0.916032 0.094596
C28   C     C_R   0.571607 0.556950 0.093175 0.100965
C29   C     C_R   0.255688 0.518891 0.970666 0.171532
C30   C     C_R   0.710948 0.609476 0.042910 0.167606
C31   C     C_R   0.502146 0.582931 0.959132 0.070283
C32   C     C_R   0.462170 0.554293 0.054455 0.076726
H1    H     H_    0.100045 0.485314 0.109894 0.145161
H2    H     H_    0.848867 0.692895 0.913057 0.163539
H3    H     H_    0.448443 0.453060 0.216496 0.146427
H4    H     H_    0.558049 0.570671 0.775357 0.153396
H5    H     H_    0.858883 0.594620 0.209337 0.159806
H6    H     H_    0.128088 0.458353 0.799136 0.152228
H7    H     H_    0.045375 0.460829 0.969114 0.153470
H8    H     H_    0.920613 0.663343 0.047771 0.156094
H9    H     H_    0.272880 0.516847 0.183120 0.135947
H10   H     H_    0.673932 0.671061 0.840065 0.151817
H11   H     H_    0.957535 0.452318 0.357226 0.113156
H12   H     H_    0.042647 0.548232 0.642651 0.115059
H13   H     H_    0.208982 0.450175 0.357386 0.118441
H14   H     H_    0.791091 0.548108 0.642928 0.115785
N1    N     N_R   0.142780 0.500030 0.500020 -0.071273
N2    N     N_R   0.857220 0.499970 0.499980 -0.068972
O1    O     O_R   0.385370 0.683250 0.500010 -0.558060
O2    O     O_R   0.614630 0.316750 0.499990 -0.560430
O3    O     O_R   0.614700 0.683220 0.500000 -0.550570
O4    O     O_R   0.385300 0.316780 0.500000 -0.563878
O5    O     O_R   0.319830 0.500020 0.632250 -0.629920
O6    O     O_R   0.680170 0.499980 0.367750 -0.628261
O7    O     O_R   0.549160 0.499990 0.632240 -0.628549
O8    O     O_R   0.450840 0.500010 0.367760 -0.632624
Zn1   Zn    Zn3+2 0.346870 0.500020 0.500000 1.043067
Zn2   Zn    Zn3+2 0.653130 0.499980 0.500000 1.054011
S1    S     S_3+6 0.760164 0.881828 0.539571 0.128312
O9    O     O_2   0.871932 0.805637 0.465405 -0.227887
O10   O     O_2   0.836664 0.986652 0.566546 -0.161723
O11   O     O_3   0.677101 0.794035 0.634625 -0.581792
H15   H     H_    0.752235 0.781093 0.662101 0.366089
S2    S     S_3+6 0.192943 0.124826 0.596139 0.107773
O12   O     O_2   0.124795 0.193642 0.538088 -0.214255
O13   O     O_2   0.091595 0.022483 0.647830 -0.220485
O14   O     O_3   0.215819 0.222207 0.674363 -0.578236
H16   H     H_    0.119539 0.263454 0.704383 0.366803
S3    S     S_3+6 0.806084 0.126023 0.397821 0.101342
O15   O     O_2   0.877518 0.194037 0.454310 -0.216749
O16   O     O_2   0.906029 0.023809 0.344561 -0.219883
O17   O     O_3   0.779172 0.224263 0.321421 -0.586113
H17   H     H_    0.877511 0.258504 0.284977 0.364475
S4    S     S_3+6 0.243345 0.880095 0.455147 0.133829
O18   O     O_2   0.128595 0.808009 0.530702 -0.245329
O19   O     O_2   0.170514 0.983992 0.424275 -0.154256
O20   O     O_3   0.326051 0.787529 0.362876 -0.553195
H18   H     H_    0.244909 0.744704 0.351831 0.376208

loop_
_geom_bond_atom_site_label_1
_geom_bond_atom_site_label_2
_ccdc_geom_bond_type
C27   C29   A    
C15   N1    A    
C16   N2    A    
O20   H18   S    
C4    H10   S    
C9    S3    S    
O1    Zn1   S    
O8    Zn1   S    
S3    O16   D    
C2    O2    A    
C20   C24   A    
S4    O20   S    
C5    H1    S    
S4    O19   D    
C14   C16   A    
C17   O7    A    
C18   O8    A    
S1    O9    D    
C3    C32   A    
C1    C12   S    
C2    C11   S    
C10   C12   A    
C7    S1    S    
C5    C29   A    
C21   C23   A    
C7    C12   A    
S1    O10   D    
S4    O18   D    
C27   C31   A    
O14   H16   S    
O2    Zn2   S    
S2    O14   S    
C28   C32   A    
C4    C6    A    
C16   H14   S    
O5    Zn1   S    
C21   C29   A    
C6    H2    S    
S2    O13   D    
S3    O17   S    
C19   C23   A    
O11   H15   S    
N1    Zn1   S    
C9    C11   A    
C31   C32   A    
C21   H7    S    
C22   H8    S    
C24   H5    S    
O3    Zn2   S    
C1    O3    A    
C2    O4    A    
C8    S2    S    
C6    C30   A    
C13   C15   A    
C22   C24   A    
C15   H13   S    
C17   O5    A    
C13   H11   S    
C14   H12   S    
O6    Zn2   S    
C7    C9    A    
C3    H9    S    
S1    O11   S    
C22   C30   A    
O17   H17   S    
C3    C5    A    
C13   N2    A    
N2    Zn2   S    
C14   N1    A    
C25   C27   A    
C23   H6    S    
C26   C28   A    
S2    O12   D    
C28   C30   A    
C10   S4    S    
C20   C26   A    
C8    C11   A    
C17   C19   S    
C18   C20   S    
S3    O15   D    
C19   C25   A    
C4    C31   A    
O4    Zn1   S    
C18   O6    A    
C25   H4    S    
C26   H3    S    
C8    C10   A    
O7    Zn2   S    
C1    O1    A    
