data_mof_unit_34612.cif
_audit_creation_date              2012-12-10T18:06:42-0500
_audit_creation_method            fapswitch 2.2
_symmetry_space_group_name_H-M    P1
_symmetry_Int_Tables_number       1
_space_group_crystal_system       triclinic
_cell_length_a                    12.592791
_cell_length_b                    13.158839
_cell_length_c                    15.46436
_cell_angle_alpha                 83.402026
_cell_angle_beta                  98.516961
_cell_angle_gamma                 97.598386
_cell_volume                      2500.12915799

loop_
_atom_site_label
_atom_site_type_symbol
_atom_type_description
_atom_site_fract_x
_atom_site_fract_y
_atom_site_fract_z
_atom_type_partial_charge
C1    C     C_R   0.443759 0.307425 0.513431 0.879462
C2    C     C_R   0.462116 0.575349 0.096954 0.091569
C3    C     C_R   0.356466 0.598486 0.062182 0.177896
C4    C     C_R   0.541045 0.576261 0.040521 0.069712
C5    C     C_R   0.507213 0.580469 0.949192 0.070503
C6    C     C_R   0.403405 0.609323 0.915759 -0.226250
C7    C     C_R   0.329956 0.620141 0.971870 -0.234362
C8    C     C_R   0.651806 0.570647 0.072166 -0.232169
C9    C     C_R   0.724140 0.556371 0.016135 -0.237251
C10   C     C_R   0.687125 0.542926 0.928299 0.177567
C11   C     C_R   0.577768 0.553464 0.894736 0.091129
C12   C     C_R   0.436556 0.515452 0.335982 0.867825
C13   C     C_R   0.757078 0.516618 0.873919 -0.202364
C14   C     C_R   0.718168 0.497111 0.787453 -0.200177
C15   C     C_R   0.539680 0.528885 0.809549 -0.258046
C16   C     C_R   0.733568 0.937229 0.546712 -0.292098
C17   C     C_R   0.596976 0.801067 0.496675 -0.173159
C18   C     C_R   0.298699 0.154706 0.516196 0.177603
C19   C     C_R   0.270638 0.049080 0.515752 -0.166247
C20   C     C_R   0.349454 0.984183 0.520111 -0.243663
C21   C     C_R   0.460033 0.023276 0.530125 0.112928
C22   C     C_R   0.489484 0.126962 0.546662 0.050299
C23   C     C_R   0.557869 0.692000 0.491177 0.890217
C24   C     C_R   0.542454 0.962167 0.525082 0.095196
C25   C     C_R   0.652072 0.998538 0.551361 0.091877
C26   C     C_R   0.678305 0.095088 0.582611 -0.212382
C27   C     C_R   0.597951 0.158450 0.580852 -0.177082
C28   C     C_R   0.518223 0.866504 0.492407 -0.341429
C29   C     C_R   0.706796 0.838446 0.518614 0.527800
C30   C     C_R   0.409638 0.195809 0.528285 -0.180860
C31   C     C_R   0.140105 0.631225 0.631000 -0.305853
C32   C     C_R   0.756477 0.384657 0.392217 0.017590
C33   C     C_R   0.851237 0.366110 0.364584 -0.245485
C34   C     C_R   0.565313 0.490204 0.663677 0.850489
C35   C     C_R   0.949285 0.413414 0.403038 -0.163434
C36   C     C_R   0.952466 0.478351 0.470593 0.014356
C37   C     C_R   0.853648 0.495515 0.495415 0.198439
C38   C     C_R   0.049005 0.525818 0.514976 -0.013836
C39   C     C_R   0.045048 0.587897 0.583787 0.164654
C40   C     C_R   0.946348 0.605719 0.604879 -0.252590
C41   C     C_R   0.851880 0.560952 0.560255 -0.155512
C42   C     C_R   0.150311 0.512286 0.495400 -0.018989
C43   C     C_R   0.237880 0.610889 0.610691 0.011530
C44   C     C_R   0.405122 0.540520 0.241893 -0.056052
C45   C     C_R   0.608653 0.502217 0.755437 -0.051308
C46   C     C_R   0.278023 0.596918 0.118128 -0.205002
C47   C     C_R   0.302414 0.568508 0.207829 -0.191895
C48   C     C_R   0.483378 0.543733 0.186322 -0.265291
H1    H     H_    0.250532 0.640755 0.944230 0.144246
H2    H     H_    0.841325 0.510138 0.898519 0.136141
H3    H     H_    0.761184 0.122536 0.606742 0.157497
H4    H     H_    0.817663 0.964751 0.566660 0.162718
H5    H     H_    0.436954 0.839781 0.464744 0.178955
H6    H     H_    0.321573 0.903184 0.518462 0.148952
H7    H     H_    0.186436 0.016893 0.508468 0.166683
H8    H     H_    0.621670 0.231619 0.607801 0.173034
H9    H     H_    0.312937 0.641806 0.647190 0.130896
H10   H     H_    0.454801 0.527023 0.785116 0.162094
H11   H     H_    0.942004 0.654690 0.655761 0.173375
H12   H     H_    0.138681 0.678600 0.683619 0.144230
H13   H     H_    0.162059 0.469877 0.442875 0.142886
H14   H     H_    0.679408 0.349660 0.361950 0.143530
H15   H     H_    0.020410 0.397441 0.378552 0.157109
H16   H     H_    0.848736 0.316091 0.313236 0.155115
H17   H     H_    0.778479 0.580130 0.577024 0.239524
H18   H     H_    0.773419 0.478083 0.746004 0.160743
H19   H     H_    0.808136 0.551171 0.042536 0.144464
H20   H     H_    0.197534 0.616040 0.092314 0.134198
H21   H     H_    0.241054 0.567897 0.250175 0.156124
H22   H     H_    0.560067 0.517584 0.213315 0.161563
H23   H     H_    0.377803 0.625727 0.846321 0.142796
H24   H     H_    0.684918 0.579091 0.139804 0.147950
N1    N     N_R   0.239390 0.551900 0.544730 -0.100195
N2    N     N_R   0.759950 0.448600 0.455730 -0.133497
O1    O     O_R   0.374950 0.371210 0.521360 -0.566540
O2    O     O_R   0.542050 0.338030 0.492790 -0.619309
O3    O     O_R   0.368720 0.526070 0.390200 -0.617440
O4    O     O_R   0.535820 0.492890 0.361630 -0.625832
O5    O     O_R   0.457950 0.661970 0.507210 -0.620990
O6    O     O_R   0.625050 0.628790 0.478640 -0.590970
O7    O     O_R   0.464180 0.507110 0.638370 -0.615114
O8    O     O_R   0.631280 0.473930 0.609800 -0.650477
Zn1   Zn    Zn3+2 0.388420 0.522150 0.519080 0.955507
Zn2   Zn    Zn3+2 0.611580 0.477850 0.480920 0.930761
O9    O     O_3   0.787357 0.776654 0.519623 -0.617683
C49   C     C_3   0.834731 0.803365 0.441775 -0.301869
H25   H     H_    0.875015 0.884005 0.438629 0.159889
H26   H     H_    0.774017 0.791946 0.382521 0.162748
H27   H     H_    0.897760 0.752132 0.441079 0.195842
I1    I     I_    0.163270 0.239034 0.496762 -0.435509

loop_
_geom_bond_atom_site_label_1
_geom_bond_atom_site_label_2
_ccdc_geom_bond_type
C43   N1    A    
C37   N2    A    
C17   C29   A    
C19   C20   A    
O6    Zn2   S    
O2    Zn2   S    
O9    C49   S    
C26   C27   A    
C17   C23   S    
C31   C43   A    
C36   C37   A    
C5    C11   A    
C3    C7    A    
C32   N2    A    
C38   C39   A    
C49   H26   S    
O3    Zn1   S    
C18   C19   A    
C47   H21   S    
C11   C15   A    
C35   C36   A    
C8    C9    A    
C12   O4    A    
C18   C30   A    
C34   O7    A    
C23   O6    A    
C9    C10   A    
C29   O9    S    
C44   C47   A    
C4    C8    A    
C40   H11   S    
C21   C22   A    
C17   C28   A    
O7    Zn1   S    
C14   C45   A    
C6    H23   S    
C8    H24   S    
C1    O1    A    
C16   H4    S    
C24   C25   A    
C7    H1    S    
C20   H6    S    
C48   H22   S    
C39   C40   A    
C49   H25   S    
C41   H17   S    
C2    C48   A    
C25   C26   A    
C10   C13   A    
C18   I1    S    
C31   H12   S    
C2    C4    A    
C9    H19   S    
C46   H20   S    
C12   O3    A    
C14   H18   S    
C34   C45   S    
C42   H13   S    
C40   C41   A    
O8    Zn2   S    
C22   C27   A    
C15   H10   S    
C15   C45   A    
C19   H7    S    
C16   C25   A    
C46   C47   A    
C42   N1    A    
C22   C30   A    
C27   H8    S    
C1    O2    A    
C24   C28   A    
N2    Zn2   S    
C4    C5    A    
C49   H27   S    
C28   H5    S    
C38   C42   A    
C6    C7    A    
C3    C46   A    
C32   C33   A    
C36   C38   A    
C2    C3    A    
C16   C29   A    
C32   H14   S    
C12   C44   S    
C26   H3    S    
O5    Zn1   S    
O1    Zn1   S    
C5    C6    A    
C33   H16   S    
C1    C30   S    
C33   C35   A    
C31   C39   A    
C37   C41   A    
C10   C11   A    
C43   H9    S    
C13   H2    S    
O4    Zn2   S    
C20   C21   A    
C21   C24   A    
C35   H15   S    
C34   O8    A    
C23   O5    A    
C13   C14   A    
N1    Zn1   S    
C44   C48   A    
