data_mof_unit_12806.cif
_audit_creation_date              2012-12-10T20:42:38-0500
_audit_creation_method            fapswitch 2.2
_symmetry_space_group_name_H-M    P1
_symmetry_Int_Tables_number       1
_space_group_crystal_system       triclinic
_cell_length_a                    8.90321
_cell_length_b                    10.689875
_cell_length_c                    9.877907
_cell_angle_alpha                 90.467323
_cell_angle_beta                  90.04143
_cell_angle_gamma                 89.809876
_cell_volume                      940.085241794

loop_
_atom_site_label
_atom_site_type_symbol
_atom_type_description
_atom_site_fract_x
_atom_site_fract_y
_atom_site_fract_z
_atom_type_partial_charge
C1    C     C_R   0.500491 0.260391 0.499321 0.882220
C2    C     C_R   0.580358 0.936208 0.391605 -0.025300
C3    C     C_R   0.509024 0.871878 0.498492 -0.147787
C4    C     C_R   0.421881 0.936145 0.593195 0.107789
C5    C     C_3   0.426526 0.931871 0.744455 -0.479315
C6    C     C_3   0.422473 0.073521 0.743506 -0.470013
C7    C     C_R   0.422094 0.587586 0.071931 0.255497
C8    C     C_R   0.588320 0.417782 0.071298 -0.124101
C9    C     C_R   0.588332 0.417813 0.927342 -0.136183
C10   C     C_R   0.421643 0.587347 0.929542 0.216704
C11   C     C_3   0.256184 0.609217 0.924760 -0.520972
C12   C     C_R   0.218744 0.500324 0.499958 0.938217
C13   C     C_3   0.257194 0.610807 0.078417 -0.540789
C14   C     C_R   0.505395 0.739603 0.500199 0.869156
C15   C     C_R   0.781257 0.499918 0.500055 0.926920
C16   C     C_1   0.065415 0.500243 0.499985 -0.226145
C17   C     C_1   0.934585 0.500066 0.500104 -0.215505
C18   C     C_R   0.417723 0.063771 0.592642 0.117938
C19   C     C_R   0.497554 0.128696 0.495474 -0.104981
C20   C     C_R   0.570335 0.065539 0.389552 -0.272922
H1    H     H_    0.629271 0.116928 0.311712 0.162720
H2    H     H_    0.193813 0.528476 0.881078 0.225451
H3    H     H_    0.230819 0.704333 0.122487 0.200084
H4    H     H_    0.194268 0.531660 0.123326 0.223631
H5    H     H_    0.323178 0.890205 0.787523 0.194865
H6    H     H_    0.533699 0.892998 0.783748 0.203293
H7    H     H_    0.316953 0.113369 0.786050 0.202335
H8    H     H_    0.527752 0.116732 0.782185 0.208145
H9    H     H_    0.657427 0.351134 0.124997 0.142915
H10   H     H_    0.657459 0.351180 0.872569 0.144872
H11   H     H_    0.226880 0.701237 0.880565 0.193578
N1    N     N_R   0.499010 0.499140 0.142800 -0.104765
N2    N     N_R   0.499010 0.499180 0.857150 -0.107821
O1    O     O_R   0.500020 0.316790 0.614690 -0.623189
O2    O     O_R   0.500000 0.316760 0.385350 -0.625524
O3    O     O_R   0.285350 0.500020 0.614650 -0.614803
O4    O     O_R   0.285340 0.499980 0.385310 -0.621329
O5    O     O_R   0.500000 0.683240 0.614650 -0.621057
O6    O     O_R   0.499980 0.683210 0.385310 -0.607326
O7    O     O_R   0.714660 0.500020 0.614690 -0.620083
O8    O     O_R   0.714650 0.499980 0.385350 -0.611524
Zn1   Zn    Zn3+2 0.500010 0.500020 0.653130 0.934696
Zn2   Zn    Zn3+2 0.499990 0.499980 0.346870 0.949956
C21   C     C_R   0.677622 0.872755 0.290054 0.158670
C22   C     C_R   0.804772 0.804995 0.331935 -0.125489
C23   C     C_R   0.893650 0.741641 0.236839 -0.116746
C24   C     C_R   0.856480 0.745512 0.099518 -0.114138
C25   C     C_R   0.731061 0.813642 0.056960 -0.155421
C26   C     C_R   0.642043 0.877663 0.151629 -0.154130
H12   H     H_    0.834184 0.800514 0.438212 0.100541
H13   H     H_    0.990841 0.688993 0.269775 0.133582
H14   H     H_    0.924807 0.695766 0.026066 0.139422
H15   H     H_    0.702612 0.816138 0.950627 0.124621
H16   H     H_    0.544226 0.929051 0.117487 0.129537

loop_
_geom_bond_atom_site_label_1
_geom_bond_atom_site_label_2
_ccdc_geom_bond_type
C21   C26   A    
O4    Zn2   S    
C7    C10   A    
C24   H14   S    
C5    H6    S    
C12   O3    A    
O2    Zn2   S    
O8    Zn2   S    
C11   H2    S    
O3    Zn1   S    
C6    H7    S    
O1    Zn1   S    
C4    C18   A    
O7    Zn1   S    
C2    C3    A    
C11   H11   S    
C22   C23   A    
C21   C22   A    
C9    N2    A    
C11   C13   S    
C15   O8    A    
C5    C6    S    
C3    C14   S    
C22   H12   S    
C5    H5    S    
N2    Zn1   S    
C9    H10   S    
C25   C26   A    
N1    Zn2   S    
C1    O1    A    
O5    Zn1   S    
C10   N2    A    
C25   H15   S    
C6    C18   S    
C16   C17   T    
C15   O7    A    
C1    C19   S    
C14   O5    A    
C10   C11   S    
C8    H9    S    
C2    C20   A    
C26   H16   S    
C8    N1    A    
C24   C25   A    
C12   C16   S    
C7    C13   S    
C20   H1    S    
C13   H3    S    
C18   C19   A    
C12   O4    A    
C15   C17   S    
C1    O2    A    
C23   C24   A    
C4    C5    S    
O6    Zn2   S    
C7    N1    A    
C14   O6    A    
C23   H13   S    
C6    H8    S    
C3    C4    A    
C19   C20   A    
C13   H4    S    
C2    C21   S    
C8    C9    A    
