data_mof_unit_49545.cif
_audit_creation_date              2012-12-11T17:10:41-0500
_audit_creation_method            fapswitch 2.2
_symmetry_space_group_name_H-M    P1
_symmetry_Int_Tables_number       1
_space_group_crystal_system       triclinic
_cell_length_a                    15.145527
_cell_length_b                    14.95118
_cell_length_c                    14.911832
_cell_angle_alpha                 108.455828
_cell_angle_beta                  111.007861
_cell_angle_gamma                 109.428806
_cell_volume                      2582.92049537

loop_
_atom_site_label
_atom_site_type_symbol
_atom_type_description
_atom_site_fract_x
_atom_site_fract_y
_atom_site_fract_z
_atom_type_partial_charge
C1    C     C_R   0.186107 0.278950 0.249895 -0.111165
C2    C     C_R   0.450951 0.449418 0.774778 0.044540
C3    C     C_R   0.563829 0.196313 0.498206 -0.054865
C4    C     C_R   0.191450 0.546743 0.494133 0.088362
C5    C     C_R   0.470440 0.719417 0.404672 -0.129107
C6    C     C_R   0.813065 0.565655 0.592490 -0.128741
C7    C     C_R   0.493584 0.403721 0.196395 -0.128851
C8    C     C_R   0.707248 0.798863 0.803621 -0.181048
C9    C     C_R   0.800447 0.711726 0.807959 0.015662
C10   C     C_R   0.405640 0.496760 0.194433 -0.153650
C11   C     C_R   0.564749 0.814275 0.589673 -0.132233
C12   C     C_R   0.520882 0.430286 0.743301 -0.075310
C13   C     C_R   0.722880 0.464930 0.408824 -0.138989
C14   C     C_R   0.546460 0.821977 0.494599 0.050748
C15   C     C_R   0.825170 0.539374 0.503133 0.060956
C16   C     C_R   0.432894 0.433220 0.131095 0.076381
C17   C     C_R   0.800023 0.802969 0.871223 0.046292
C18   C     C_R   0.201772 0.738502 0.336048 -0.108733
C19   C     C_R   0.173728 0.704276 0.403880 -0.141262
C20   C     C_R   0.067966 0.618742 0.359522 0.126358
C21   C     C_R   0.990287 0.569948 0.246758 -0.166467
C22   C     C_R   0.018537 0.604838 0.179354 -0.111949
C23   C     C_R   0.501930 0.200439 0.407897 -0.145952
C24   C     C_R   0.124279 0.688754 0.223855 -0.104567
C25   C     C_R   0.948415 0.578865 0.436039 -0.249363
C26   C     C_R   0.926300 0.554193 0.510923 0.091742
C27   C     C_R   0.991396 0.526592 0.579659 -0.059770
C28   C     C_R   0.066614 0.506741 0.558546 -0.088264
C29   C     C_R   0.096161 0.543378 0.492183 0.022071
C30   C     C_R   0.038092 0.580300 0.430558 -0.002125
C31   C     C_R   0.074877 0.617795 0.783360 -0.152586
C32   C     C_R   0.087972 0.615192 0.879940 -0.010709
C33   C     C_R   0.017235 0.521933 0.873297 -0.014804
C34   C     C_R   0.288635 0.588406 0.588556 -0.105779
C35   C     C_R   0.934868 0.430491 0.770113 -0.012034
C36   C     C_R   0.921077 0.432358 0.672828 -0.169908
C37   C     C_R   0.991106 0.526624 0.679136 0.053378
C38   C     C_R   0.470985 0.365613 0.892755 0.133027
C39   C     C_R   0.412589 0.403653 0.835013 -0.002431
C40   C     C_R   0.328023 0.410324 0.849871 -0.167922
C41   C     C_R   0.318997 0.402089 0.938387 -0.053814
C42   C     C_R   0.401330 0.394925 0.015025 -0.092753
C43   C     C_R   0.466219 0.362439 0.981822 0.183629
C44   C     C_3   0.585529 0.398902 0.045375 -0.525391
C45   C     C_R   0.594934 0.289217 0.590885 0.030823
C46   C     C_3   0.590717 0.402335 0.947412 -0.475756
C47   C     C_R   0.513595 0.914857 0.390344 0.113069
C48   C     C_R   0.582465 0.919769 0.486055 0.049764
C49   C     C_R   0.665842 0.021210 0.578914 -0.183225
C50   C     C_R   0.671668 0.116094 0.578845 -0.214624
C51   C     C_R   0.590089 0.109392 0.489084 0.050988
C52   C     C_R   0.516818 0.008870 0.391942 0.157011
C53   C     C_3   0.515146 0.978000 0.285303 -0.500009
C54   C     C_3   0.511643 0.875827 0.283876 -0.483015
C55   C     C_R   0.975681 0.083377 0.104634 0.127024
C56   C     C_R   0.194978 0.492390 0.404313 -0.075611
C57   C     C_R   0.067259 0.078714 0.165181 0.036809
C58   C     C_R   0.056567 0.977275 0.149114 -0.181529
C59   C     C_R   0.958526 0.881821 0.063156 -0.095704
C60   C     C_R   0.876099 0.888345 0.987496 0.024651
C61   C     C_R   0.880820 0.988803 0.015577 0.146914
C62   C     C_3   0.811092 0.020727 0.052850 -0.520511
C63   C     C_3   0.914146 0.123347 0.149263 -0.463094
C64   C     C_R   0.437291 0.527822 0.751189 -0.092974
C65   C     C_R   0.275201 0.185495 0.250522 -0.126252
C66   C     C_R   0.173404 0.176806 0.224155 0.068709
H1    H     H_    0.123246 0.300349 0.237364 0.101522
H2    H     H_    0.877764 0.623314 0.675730 0.133095
H3    H     H_    0.513110 0.340752 0.169159 0.098433
H4    H     H_    0.673209 0.848083 0.829228 0.109040
H5    H     H_    0.349781 0.524938 0.166280 0.086148
H6    H     H_    0.618084 0.879695 0.674438 0.098605
H7    H     H_    0.146061 0.715374 0.171455 0.107046
H8    H     H_    0.283563 0.803727 0.370532 0.111686
H9    H     H_    0.234469 0.744274 0.490828 0.108836
H10   H     H_    0.539247 0.367356 0.743457 0.123457
H11   H     H_    0.908308 0.504117 0.210819 0.116952
H12   H     H_    0.958487 0.566572 0.092502 0.122821
H13   H     H_    0.897628 0.600345 0.384758 0.135620
H14   H     H_    0.131618 0.689910 0.789542 0.120479
H15   H     H_    0.152997 0.685435 0.959900 0.109622
H16   H     H_    0.883324 0.357895 0.766475 0.102006
H17   H     H_    0.858466 0.360105 0.593346 0.127873
H18   H     H_    0.274249 0.428515 0.797571 0.169458
H19   H     H_    0.476712 0.150386 0.323179 0.108038
H20   H     H_    0.634443 0.480972 0.120383 0.204873
H21   H     H_    0.599320 0.334487 0.058713 0.185262
H22   H     H_    0.642735 0.486391 0.966288 0.210493
H23   H     H_    0.607289 0.339840 0.904640 0.191876
H24   H     H_    0.722378 0.026980 0.652961 0.129273
H25   H     H_    0.737032 0.192772 0.650490 0.114825
H26   H     H_    0.438604 0.961461 0.217614 0.183994
H27   H     H_    0.315419 0.643466 0.672489 0.069670
H28   H     H_    0.586437 0.872385 0.292934 0.203826
H29   H     H_    0.124878 0.971670 0.198675 0.129609
H30   H     H_    0.950933 0.804266 0.052471 0.151001
H31   H     H_    0.756921 0.036239 0.994014 0.187027
H32   H     H_    0.768846 0.965189 0.077328 0.201724
H33   H     H_    0.919650 0.198198 0.146084 0.183466
H34   H     H_    0.932672 0.128187 0.230472 0.215137
H35   H     H_    0.136848 0.461099 0.318603 0.085618
H36   H     H_    0.387742 0.561835 0.765255 0.096549
H37   H     H_    0.293708 0.120382 0.239122 0.101157
H38   H     H_    0.436245 0.696005 0.318406 0.106367
N1    N     N_R   0.291070 0.347930 0.293870 -0.046526
N2    N     N_R   0.708930 0.502750 0.556810 -0.044087
N3    N     N_R   0.502760 0.445970 0.293860 -0.040411
N4    N     N_R   0.652110 0.708890 0.706130 -0.045970
N5    N     N_R   0.708930 0.652070 0.706130 -0.073229
N6    N     N_R   0.445950 0.502780 0.293850 -0.039055
N7    N     N_R   0.502760 0.708900 0.556790 -0.043811
N8    N     N_R   0.652110 0.445950 0.443190 -0.041753
N9    N     N_R   0.554050 0.497220 0.706150 -0.037497
N10   N     N_R   0.497240 0.291100 0.443210 -0.048685
N11   N     N_R   0.347890 0.554050 0.556810 -0.033515
N12   N     N_R   0.554050 0.347900 0.556830 -0.046298
N13   N     N_R   0.291070 0.497250 0.443190 -0.040870
N14   N     N_R   0.497240 0.554030 0.706140 -0.050975
N15   N     N_R   0.347890 0.291110 0.293870 -0.043398
N16   N     N_R   0.445950 0.652100 0.443170 -0.044463
Ni1   Ni    Ni4+2 0.369690 0.500010 0.369700 0.213889
Ni2   Ni    Ni4+2 0.630310 0.499990 0.630300 0.257630
Ni3   Ni    Ni4+2 0.500000 0.369720 0.369720 0.206413
Ni4   Ni    Ni4+2 0.500000 0.630280 0.630280 0.207339
C67   C     C_2   0.880987 0.678420 0.846532 0.359914
H39   H     H_    0.855239 0.593504 0.818342 0.123032
O1    O     O_2   0.978710 0.745079 0.900743 -0.606200
H40   H     H_    0.703093 0.424005 0.324374 0.100930
C68   C     C_2   0.111040 0.444792 0.603805 0.469600
H41   H     H_    0.124076 0.453117 0.683082 0.056376
O2    O     O_2   0.129072 0.380048 0.550272 -0.575821
H42   H     H_    0.027441 0.519766 0.948089 0.096944
C69   C     C_2   0.225030 0.400773 0.948650 0.486658
H43   H     H_    0.205331 0.374068 0.002078 0.007995
O3    O     O_2   0.166141 0.426049 0.894666 -0.616611
H44   H     H_    0.591947 0.034631 0.294974 0.201259
H45   H     H_    0.433055 0.800438 0.215541 0.184244
C70   C     C_2   0.668809 0.325005 0.707212 0.351192
H46   H     H_    0.668341 0.265861 0.734403 0.026043
O4    O     O_2   0.726820 0.421565 0.775947 -0.638835

loop_
_geom_bond_atom_site_label_1
_geom_bond_atom_site_label_2
_ccdc_geom_bond_type
C41   C42   A    
C40   H18   S    
C3    C23   A    
C35   C36   A    
C34   H27   S    
N3    Ni3   S    
C57   C66   S    
C58   H29   S    
C2    C12   A    
C41   C69   S    
C31   H14   S    
C46   H23   S    
C20   C30   S    
C53   C54   S    
C52   C53   S    
C64   H36   S    
C32   H15   S    
C26   C27   A    
C62   C63   S    
N12   Ni2   S    
C18   C24   A    
C28   C29   A    
C56   H35   S    
C18   C19   A    
C13   N8    A    
N6    Ni1   S    
C38   C39   A    
C11   C14   A    
C24   H7    S    
C54   H45   S    
C36   H17   S    
C64   N14   A    
N4    N5    A    
C28   C68   S    
C56   N13   A    
N13   Ni1   S    
C63   H33   S    
C1    H1    S    
C6    C15   A    
C62   H32   S    
C13   H40   S    
C2    C39   S    
N9    Ni2   S    
C47   C48   A    
C44   C46   S    
N11   N13   A    
C55   C63   S    
C10   N6    A    
C44   H21   S    
C49   H24   S    
C4    C29   S    
C10   H5    S    
C6    H2    S    
C5    H38   S    
C59   C60   A    
C18   H8    S    
C21   C22   A    
C4    C56   A    
C53   H44   S    
N4    Ni4   S    
C44   H20   S    
C8    N4    A    
C35   H16   S    
C2    C64   A    
C1    C66   A    
C46   H22   S    
C9    N5    A    
N2    N8    A    
C4    C34   A    
C38   C46   S    
C5    N16   A    
C11   N7    A    
C51   C52   A    
C22   H12   S    
N8    Ni3   S    
C39   C40   A    
C3    C51   S    
C11   H6    S    
C15   C26   S    
C14   C48   S    
C25   C26   A    
C3    C45   A    
C9    C67   S    
C31   C37   A    
C60   C61   A    
C43   C44   S    
C63   H34   S    
C62   H31   S    
C31   C32   A    
N2    Ni2   S    
C53   H26   S    
C50   C51   A    
C65   N15   A    
N1    Ni1   S    
N14   Ni4   S    
C6    N2    A    
C5    C14   A    
C70   O4    D    
C47   C54   S    
N10   Ni3   S    
C33   H42   S    
C9    C17   A    
C40   C41   A    
C65   C66   A    
C13   C15   A    
C12   H10   S    
C23   H19   S    
C69   H43   S    
N3    N6    A    
C22   C24   A    
C58   C59   A    
C42   C43   A    
C65   H37   S    
C16   C42   S    
N16   Ni1   S    
C69   O3    D    
C68   H41   S    
C25   C30   A    
C36   C37   A    
N11   Ni4   S    
N7    Ni4   S    
C25   H13   S    
C7    C16   A    
C7    H3    S    
N10   N12   A    
C47   C52   A    
N15   Ni3   S    
C8    H4    S    
C8    C17   A    
N1    N15   A    
C32   C33   A    
C19   C20   A    
C55   C57   A    
C34   N11   A    
C38   C43   A    
C10   C16   A    
C23   N10   A    
C45   N12   A    
C57   C58   A    
C67   H39   S    
C27   C37   S    
C48   C49   A    
C55   C61   A    
C19   H9    S    
C45   C70   S    
C33   C35   A    
C12   N9    A    
C7    N3    A    
C61   C62   S    
N5    Ni2   S    
C54   H28   S    
C70   H46   S    
C17   C60   S    
C29   C30   A    
N9    N14   A    
C50   H25   S    
C20   C21   A    
C49   C50   A    
C59   H30   S    
C21   H11   S    
C27   C28   A    
C67   O1    D    
N7    N16   A    
C1    N1    A    
C68   O2    D    
