data_mof_unit_10357.cif
_audit_creation_date              2012-12-11T15:37:20-0500
_audit_creation_method            fapswitch 2.2
_symmetry_space_group_name_H-M    P1
_symmetry_Int_Tables_number       1
_space_group_crystal_system       triclinic
_cell_length_a                    17.466917
_cell_length_b                    24.701942
_cell_length_c                    14.755263
_cell_angle_alpha                 90.000098
_cell_angle_beta                  125.967624
_cell_angle_gamma                 90.00004
_cell_volume                      5152.6440917

loop_
_atom_site_label
_atom_site_type_symbol
_atom_type_description
_atom_site_fract_x
_atom_site_fract_y
_atom_site_fract_z
_atom_type_partial_charge
C1    C     C_R   0.849823 0.651308 0.907461 -0.184485
C2    C     C_R   0.185858 0.369187 0.093695 -0.155582
C3    C     C_R   0.185857 0.630815 0.093694 -0.155576
C4    C     C_R   0.849823 0.348692 0.907460 -0.184482
C5    C     C_R   0.349823 0.151308 0.907461 -0.184483
C6    C     C_R   0.685858 0.869186 0.093694 -0.155578
C7    C     C_R   0.685858 0.130814 0.093694 -0.155579
C8    C     C_R   0.349823 0.848692 0.907460 -0.184485
C9    C     C_3   0.406668 0.500004 0.458682 0.115303
C10   C     C_3   0.577976 0.499997 0.641509 0.115530
C11   C     C_3   0.906670 0.000000 0.458678 0.115303
C12   C     C_3   0.077976 1.000000 0.641508 0.115530
C13   C     C_R   0.737987 0.281767 0.956525 -0.183398
C14   C     C_R   0.326668 0.681947 0.047483 -0.179280
C15   C     C_R   0.326669 0.318055 0.047480 -0.179281
C16   C     C_R   0.737987 0.718232 0.956528 -0.183395
C17   C     C_R   0.237987 0.781768 0.956524 -0.183396
C18   C     C_R   0.826669 0.181946 0.047483 -0.179280
C19   C     C_R   0.826669 0.818055 0.047480 -0.179281
C20   C     C_R   0.237988 0.218232 0.956530 -0.183397
C21   C     C_R   0.187060 0.740063 0.956976 -0.165810
C22   C     C_R   0.878564 0.224362 0.048107 -0.171188
C23   C     C_R   0.878563 0.775638 0.048105 -0.171187
C24   C     C_R   0.187062 0.259938 0.956982 -0.165809
C25   C     C_R   0.687061 0.240062 0.956977 -0.165809
C26   C     C_R   0.378563 0.724363 0.048107 -0.171190
C27   C     C_R   0.378563 0.275638 0.048104 -0.171186
C28   C     C_R   0.687061 0.759938 0.956980 -0.165809
C29   C     C_R   0.231024 0.690212 0.000086 0.157687
C30   C     C_R   0.832928 0.273569 0.001151 0.155818
C31   C     C_R   0.832928 0.726430 0.001151 0.155820
C32   C     C_R   0.231027 0.309790 0.000087 0.157691
C33   C     C_R   0.731026 0.190211 0.000086 0.157688
C34   C     C_R   0.332928 0.773570 0.001150 0.155818
C35   C     C_R   0.332928 0.226430 0.001152 0.155820
C36   C     C_R   0.731026 0.809789 0.000086 0.157689
C37   C     C_R   0.879832 0.451024 0.453695 -0.156652
C38   C     C_R   0.886311 0.548958 0.364507 -0.164938
C39   C     C_R   0.886311 0.451042 0.364507 -0.164917
C40   C     C_R   0.879832 0.548975 0.453695 -0.156601
C41   C     C_R   0.379831 0.951024 0.453695 -0.156627
C42   C     C_R   0.386311 0.048958 0.364507 -0.164928
C43   C     C_R   0.386311 0.951042 0.364507 -0.164928
C44   C     C_R   0.379832 0.048975 0.453696 -0.156626
C45   C     C_R   0.900790 0.500000 0.328433 0.136899
C46   C     C_R   0.887175 0.500000 0.506405 0.141987
C47   C     C_R   0.400790 1.000000 0.328433 0.136900
C48   C     C_R   0.387175 1.000000 0.506405 0.141988
C49   C     C_R   0.945683 0.349327 0.093541 0.060615
C50   C     C_R   0.088915 0.631510 0.905654 0.078661
C51   C     C_R   0.088917 0.368491 0.905655 0.078662
C52   C     C_R   0.945682 0.650673 0.093541 0.060618
C53   C     C_R   0.445683 0.849327 0.093541 0.060616
C54   C     C_R   0.588916 0.131510 0.905655 0.078662
C55   C     C_R   0.588916 0.868490 0.905654 0.078662
C56   C     C_R   0.445682 0.150673 0.093541 0.060616
C57   C     C_R   0.979626 0.545528 0.248168 -0.118580
C58   C     C_R   0.941896 0.455097 0.690018 -0.110439
C59   C     C_R   0.941896 0.544902 0.690018 -0.110421
C60   C     C_R   0.979626 0.454472 0.248168 -0.118564
C61   C     C_R   0.479626 0.045528 0.248168 -0.118573
C62   C     C_R   0.441896 0.955097 0.690018 -0.110429
C63   C     C_R   0.441896 0.044902 0.690018 -0.110430
C64   C     C_R   0.479626 0.954472 0.248168 -0.118571
C65   C     C_R   0.732363 0.454877 0.754425 -0.121846
C66   C     C_R   0.263128 0.545150 0.297324 -0.133323
C67   C     C_R   0.263127 0.454852 0.297332 -0.133373
C68   C     C_R   0.732363 0.545120 0.754437 -0.121856
C69   C     C_R   0.232363 0.954878 0.754431 -0.121851
C70   C     C_R   0.763129 0.045149 0.297326 -0.133347
C71   C     C_R   0.763128 0.954851 0.297326 -0.133348
C72   C     C_R   0.232363 0.045122 0.754431 -0.121851
C73   C     C_R   0.882395 0.681293 0.001190 -0.012275
C74   C     C_R   0.176035 0.352074 0.998966 -0.026066
C75   C     C_R   0.176033 0.647927 0.998966 -0.026065
C76   C     C_R   0.882396 0.318706 0.001190 -0.012273
C77   C     C_R   0.382395 0.181293 0.001191 -0.012274
C78   C     C_R   0.676034 0.852074 0.998966 -0.026066
C79   C     C_R   0.676034 0.147926 0.998966 -0.026065
C80   C     C_R   0.382396 0.818706 0.001190 -0.012273
C81   C     C_R   0.948122 0.500000 0.272846 0.030857
C82   C     C_R   0.922838 0.500000 0.624478 0.029429
C83   C     C_R   0.448122 1.000000 0.272846 0.030857
C84   C     C_R   0.422838 1.000000 0.624478 0.029429
C85   C     C_R   0.677409 0.499997 0.730926 0.037726
C86   C     C_R   0.315212 0.500002 0.352968 0.054047
C87   C     C_R   0.177409 1.000000 0.730926 0.037725
C88   C     C_R   0.815215 0.000000 0.352963 0.054046
C89   C     C_3   0.505562 0.455054 0.610339 -0.223470
C90   C     C_3   0.479146 0.544807 0.490079 -0.222707
C91   C     C_3   0.479213 0.455268 0.489930 -0.222651
C92   C     C_3   0.505496 0.544873 0.610491 -0.223416
C93   C     C_3   0.005529 0.955090 0.610411 -0.223443
C94   C     C_3   0.979182 0.044770 0.490003 -0.222679
C95   C     C_3   0.979182 0.955231 0.490001 -0.222679
C96   C     C_3   0.005529 0.044909 0.610414 -0.223443
C97   C     C_3   0.431715 0.499931 0.576627 0.119390
C98   C     C_3   0.551463 0.500069 0.522364 0.128361
C99   C     C_3   0.931715 0.999999 0.576622 0.119390
C100  C     C_3   0.051465 0.000001 0.522363 0.128361
H1    H     H_    0.804381 0.664740 0.821325 0.116020
H2    H     H_    0.241400 0.359014 0.179602 0.113405
H3    H     H_    0.241398 0.640989 0.179601 0.113402
H4    H     H_    0.804382 0.335259 0.821325 0.116012
H5    H     H_    0.304381 0.164741 0.821325 0.116017
H6    H     H_    0.741399 0.859012 0.179601 0.113403
H7    H     H_    0.741399 0.140988 0.179601 0.113403
H8    H     H_    0.304382 0.835259 0.821325 0.116015
H9    H     H_    0.967391 0.587021 0.257783 0.106344
H10   H     H_    0.913943 0.415388 0.657676 0.105184
H11   H     H_    0.913943 0.584612 0.657676 0.105194
H12   H     H_    0.967391 0.412979 0.257783 0.106342
H13   H     H_    0.467391 0.087021 0.257783 0.106343
H14   H     H_    0.413943 0.915388 0.657676 0.105188
H15   H     H_    0.413942 0.084612 0.657676 0.105189
H16   H     H_    0.467391 0.912979 0.257783 0.106342
H17   H     H_    0.709194 0.413221 0.736729 0.100695
H18   H     H_    0.278827 0.586420 0.327420 0.099013
H19   H     H_    0.278829 0.413583 0.327433 0.099048
H20   H     H_    0.709190 0.586775 0.736746 0.100715
H21   H     H_    0.209192 0.913223 0.736737 0.100705
H22   H     H_    0.778830 0.086418 0.327425 0.099030
H23   H     H_    0.778830 0.913582 0.327425 0.099031
H24   H     H_    0.209192 0.086777 0.736737 0.100706
H25   H     H_    0.518285 0.418971 0.662351 0.126518
H26   H     H_    0.467175 0.581002 0.438614 0.125564
H27   H     H_    0.467293 0.419135 0.438341 0.125580
H28   H     H_    0.518168 0.580894 0.662626 0.126535
H29   H     H_    0.018226 0.919037 0.662483 0.126526
H30   H     H_    0.967237 0.080935 0.438478 0.125571
H31   H     H_    0.967237 0.919067 0.438473 0.125572
H32   H     H_    0.018226 0.080961 0.662487 0.126526
H33   H     H_    0.113733 0.746652 0.924473 0.124208
H34   H     H_    0.952801 0.219028 0.083829 0.125445
H35   H     H_    0.952799 0.780973 0.083825 0.125444
H36   H     H_    0.113736 0.253349 0.924482 0.124207
H37   H     H_    0.613734 0.246651 0.924475 0.124209
H38   H     H_    0.452800 0.719028 0.083830 0.125446
H39   H     H_    0.452799 0.280973 0.083823 0.125443
H40   H     H_    0.613735 0.753348 0.924479 0.124206
N1    N     N_R   0.892620 0.603790 0.941800 -0.046900
N2    N     N_R   0.107380 0.396210 0.058200 -0.048667
N3    N     N_R   0.107380 0.603790 0.058200 -0.048668
N4    N     N_R   0.892620 0.396210 0.941800 -0.046898
N5    N     N_R   0.392620 0.103790 0.941800 -0.046899
N6    N     N_R   0.607380 0.896210 0.058200 -0.048667
N7    N     N_R   0.607380 0.103790 0.058200 -0.048667
N8    N     N_R   0.392620 0.896210 0.941800 -0.046899
N9    N     N_R   0.952210 0.397600 0.057910 -0.059273
N10   N     N_R   0.047790 0.602400 0.942090 -0.061589
N11   N     N_R   0.047790 0.397600 0.942090 -0.061590
N12   N     N_R   0.952210 0.602400 0.057910 -0.059273
N13   N     N_R   0.452210 0.897600 0.057910 -0.059273
N14   N     N_R   0.547790 0.102400 0.942090 -0.061589
N15   N     N_R   0.547790 0.897600 0.942090 -0.061589
N16   N     N_R   0.452210 0.102400 0.057910 -0.059273
N17   N     N_R   0.026300 0.529110 0.206760 -0.042085
N18   N     N_R   0.973700 0.470890 0.793240 -0.046131
N19   N     N_R   0.973700 0.529110 0.793240 -0.046133
N20   N     N_R   0.026300 0.470890 0.206760 -0.042084
N21   N     N_R   0.526300 0.029110 0.206760 -0.042085
N22   N     N_R   0.473700 0.970890 0.793240 -0.046132
N23   N     N_R   0.473700 0.029110 0.793240 -0.046132
N24   N     N_R   0.526300 0.970890 0.206760 -0.042085
N25   N     N_R   0.818530 0.472270 0.792960 -0.041372
N26   N     N_R   0.181470 0.527730 0.207040 -0.038442
N27   N     N_R   0.181470 0.472270 0.207040 -0.038440
N28   N     N_R   0.818530 0.527730 0.792960 -0.041368
N29   N     N_R   0.318530 0.972270 0.792960 -0.041370
N30   N     N_R   0.681470 0.027730 0.207040 -0.038441
N31   N     N_R   0.681470 0.972270 0.207040 -0.038441
N32   N     N_R   0.318530 0.027730 0.792960 -0.041370
Ni1   Ni    Ni4+2 0.934150 0.565840 0.869060 0.211226
Ni2   Ni    Ni4+2 0.065850 0.434160 0.130940 0.223862
Ni3   Ni    Ni4+2 0.065850 0.565840 0.130940 0.223857
Ni4   Ni    Ni4+2 0.934150 0.434160 0.869060 0.211215
Ni5   Ni    Ni4+2 0.434150 0.065840 0.869060 0.211221
Ni6   Ni    Ni4+2 0.565850 0.934160 0.130940 0.223860
Ni7   Ni    Ni4+2 0.565850 0.065840 0.130940 0.223860
Ni8   Ni    Ni4+2 0.434150 0.934160 0.869060 0.211220
C101  C     C_1   0.015479 0.327866 0.203423 -0.007129
N33   N     N_1   0.071627 0.310613 0.291673 -0.090265
C102  C     C_1   0.042546 0.653160 0.794394 0.001420
N34   N     N_1   0.006637 0.671621 0.706049 -0.098359
C103  C     C_1   0.042549 0.346841 0.794395 0.001427
N35   N     N_1   0.006641 0.328379 0.706050 -0.098358
C104  C     C_1   0.015478 0.672134 0.203424 -0.007133
N36   N     N_1   0.071626 0.689387 0.291674 -0.090273
C105  C     C_1   0.515479 0.827866 0.203423 -0.007130
N37   N     N_1   0.571627 0.810613 0.291673 -0.090266
C106  C     C_1   0.542549 0.153158 0.794394 0.001424
N38   N     N_1   0.506641 0.171620 0.706050 -0.098358
C107  C     C_1   0.542548 0.846841 0.794394 0.001424
N39   N     N_1   0.506640 0.828379 0.706049 -0.098358
C108  C     C_1   0.515478 0.172134 0.203424 -0.007131
N40   N     N_1   0.571626 0.189387 0.291674 -0.090271
C109  C     C_1   0.362076 0.499856 0.601853 0.028212
N41   N     N_1   0.307013 0.499796 0.621585 -0.077708
C110  C     C_1   0.617157 0.500144 0.490790 0.024038
N42   N     N_1   0.668966 0.500203 0.466109 -0.087400
C111  C     C_1   0.862074 0.999998 0.601846 0.028213
N43   N     N_1   0.807010 0.999998 0.621577 -0.077707
C112  C     C_1   0.117161 0.000002 0.490791 0.024038
N44   N     N_1   0.168971 0.000002 0.466111 -0.087400
H41   H     H_    0.703990 0.320693 0.923034 0.124948
H42   H     H_    0.360037 0.643114 0.082700 0.125793
H43   H     H_    0.360038 0.356888 0.082693 0.125783
H44   H     H_    0.703991 0.679306 0.923039 0.124944
H45   H     H_    0.203990 0.820694 0.923032 0.124946
H46   H     H_    0.860039 0.143113 0.082700 0.125788
H47   H     H_    0.860038 0.856888 0.082694 0.125788
H48   H     H_    0.203992 0.179306 0.923042 0.124946
H49   H     H_    0.879734 0.412351 0.487835 0.115847
H50   H     H_    0.889984 0.587610 0.332995 0.113523
H51   H     H_    0.889985 0.412390 0.332996 0.113522
H52   H     H_    0.879733 0.587649 0.487836 0.115848
H53   H     H_    0.379733 0.912351 0.487835 0.115847
H54   H     H_    0.389984 0.087610 0.332996 0.113523
H55   H     H_    0.389984 0.912390 0.332996 0.113523
H56   H     H_    0.379734 0.087649 0.487836 0.115848

loop_
_geom_bond_atom_site_label_1
_geom_bond_atom_site_label_2
_ccdc_geom_bond_type
N32   Ni5   S    
C16   C28   A    
C55   N15   A    
C95   H31   S    
C112  N44   T    
C10   C85   S    
C53   N13   A    
C64   H16   S    
C4    N4    A    
C111  N43   T    
C25   H37   S    
C50   C102  S    
C44   H56   S    
C59   C82   A    
N3    Ni3   S    
C64   N24   A    
C70   C88   A    
C9    C91   S    
C71   C88   A    
C15   C32   A    
N2    Ni2   S    
C5    H5    S    
C101  N33   T    
C16   C31   A    
C63   N23   A    
N26   Ni3   S    
C94   H30   S    
C91   H27   S    
C98   C110  S    
C22   H34   S    
C61   N21   A    
C72   N32   A    
C71   H23   S    
C1    N1    A    
C18   H46   S    
C62   H14   S    
C17   H45   S    
C19   C36   A    
C58   C82   A    
C32   C74   S    
C6    N6    A    
N16   Ni7   S    
C31   C73   S    
N30   N31   A    
C2    H2    S    
C11   C95   S    
C96   C99   S    
C65   N25   A    
N6    Ni6   S    
C13   C25   A    
C11   C99   S    
N9    Ni2   S    
C21   H33   S    
C10   C98   S    
N7    N14   A    
C50   N10   A    
C38   C45   A    
C57   N17   A    
C34   C80   S    
C46   C82   S    
N12   Ni3   S    
C59   N19   A    
C26   C34   A    
N3    N10   A    
C57   H9    S    
N6    N15   A    
C20   C24   A    
C10   C89   S    
C28   H40   S    
N23   Ni5   S    
C59   H11   S    
C51   C74   A    
N31   Ni6   S    
C52   C104  S    
C47   C83   S    
N21   Ni7   S    
C3    C75   A    
C93   C99   S    
N29   Ni8   S    
N22   Ni8   S    
C69   C87   A    
C56   N16   A    
C39   C45   A    
C63   H15   S    
C24   H36   S    
C10   C92   S    
C110  N42   T    
N8    Ni8   S    
C38   C40   A    
C18   C22   A    
C72   H24   S    
C7    H7    S    
N1    Ni1   S    
C68   C85   A    
C41   C43   A    
C40   H52   S    
N26   N27   A    
C8    N8    A    
C42   C44   A    
C38   H50   S    
C93   H29   S    
C8    H8    S    
C37   H49   S    
C18   C33   A    
C92   C97   S    
C7    N7    A    
C90   H26   S    
N28   Ni1   S    
C45   C81   S    
C60   H12   S    
C37   C46   A    
C5    N5    A    
C54   C106  S    
C66   N26   A    
C106  N38   T    
C97   C109  S    
C13   C30   A    
C65   H17   S    
C53   C80   A    
C3    N3    A    
C52   C73   A    
C61   C83   A    
C66   H18   S    
C55   C78   A    
C95   C100  S    
C33   C79   S    
C89   H25   S    
C27   C35   A    
C21   C29   A    
C35   C77   S    
C17   C21   A    
C56   C77   A    
C48   C84   S    
C89   C97   S    
N25   Ni4   S    
C23   C31   A    
N2    N11   A    
C19   C23   A    
C102  N34   T    
C24   C32   A    
C64   C83   A    
C66   C86   A    
N4    N9    A    
C51   C103  S    
C9    C86   S    
C56   C108  S    
C30   C76   S    
C60   C81   A    
C70   H22   S    
C15   C27   A    
C109  N41   T    
C69   H21   S    
C11   C88   S    
C52   N12   A    
C15   H43   S    
N4    Ni4   S    
C6    H6    S    
C49   C76   A    
C23   H35   S    
C69   N29   A    
C14   C26   A    
C94   C96   S    
C72   C87   A    
N17   Ni3   S    
N27   Ni2   S    
C49   C101  S    
C68   N28   A    
C11   C94   S    
N18   Ni4   S    
C55   C107  S    
N25   N28   A    
C14   H42   S    
C58   N18   A    
N18   N19   A    
C2    N2    A    
N29   N32   A    
C19   H47   S    
C12   C93   S    
C89   C91   S    
C17   C34   A    
C40   C46   A    
C14   C29   A    
C5    C77   A    
C1    H1    S    
N21   N24   A    
N24   Ni6   S    
N15   Ni8   S    
N5    N16   A    
C7    C79   A    
N22   N23   A    
C3    H3    S    
C62   C84   A    
N13   Ni6   S    
C92   H28   S    
C67   C86   A    
C9    C97   S    
N11   Ni4   S    
C22   C30   A    
C12   C87   S    
C58   H10   S    
N20   Ni2   S    
C20   C35   A    
C43   H55   S    
C67   N27   A    
C26   H38   S    
C42   H54   S    
C91   C98   S    
C2    C74   A    
C9    C90   S    
C54   N14   A    
C41   H53   S    
C65   C85   A    
C29   C75   S    
C49   N9    A    
N17   N20   A    
C63   C84   A    
C39   H51   S    
N30   Ni7   S    
C1    C73   A    
C71   N31   A    
C67   H19   S    
C90   C92   S    
C70   N30   A    
C104  N36   T    
C37   C39   A    
C36   C78   S    
C96   H32   S    
C68   H20   S    
C61   H13   S    
C103  N35   T    
C62   N22   A    
C53   C105  S    
C4    H4    S    
C100  C112  S    
C41   C48   A    
C13   H41   S    
C42   C47   A    
C20   H48   S    
C94   C100  S    
C105  N37   T    
C57   C81   A    
C27   H39   S    
C12   C100  S    
C6    C78   A    
C54   C79   A    
C51   N11   A    
C108  N40   T    
N7    Ni7   S    
N10   Ni1   S    
C4    C76   A    
C28   C36   A    
C93   C95   S    
C107  N39   T    
N19   Ni1   S    
N14   Ni5   S    
N5    Ni5   S    
C8    C80   A    
C16   H44   S    
C12   C96   S    
C60   N20   A    
N8    N13   A    
C50   C75   A    
C43   C47   A    
C90   C98   S    
C99   C111  S    
C44   C48   A    
N1    N12   A    
C25   C33   A    
