data_mof_unit_49705.cif
_audit_creation_date              2012-12-10T20:38:22-0500
_audit_creation_method            fapswitch 2.2
_symmetry_space_group_name_H-M    P1
_symmetry_Int_Tables_number       1
_space_group_crystal_system       triclinic
_cell_length_a                    9.851031
_cell_length_b                    10.651512
_cell_length_c                    16.563101
_cell_angle_alpha                 90.019022
_cell_angle_beta                  83.701975
_cell_angle_gamma                 89.96973
_cell_volume                      1727.44997754

loop_
_atom_site_label
_atom_site_type_symbol
_atom_type_description
_atom_site_fract_x
_atom_site_fract_y
_atom_site_fract_z
_atom_type_partial_charge
C1    C     C_R   0.501107 0.739737 0.493790 0.908055
C2    C     C_R   0.365654 0.373594 0.766862 -0.216265
C3    C     C_R   0.481772 0.480459 0.125477 -0.073039
C4    C     C_R   0.470654 0.523585 0.205007 -0.175824
C5    C     C_R   0.617428 0.353111 0.239796 -0.188668
C6    C     C_R   0.624661 0.307354 0.160912 -0.070742
C7    C     C_R   0.555150 0.369704 0.103589 0.155583
C8    C     C_2   0.448839 0.326593 0.980917 0.272944
C9    C     C_2   0.563065 0.323908 0.019331 -0.196346
C10   C     C_R   0.538672 0.459974 0.262026 -0.026713
C11   C     C_R   0.379149 0.935883 0.492939 0.141720
C12   C     C_R   0.479174 0.496954 0.653645 0.854928
C13   C     C_R   0.501870 0.870926 0.476410 -0.198041
C14   C     C_R   0.621510 0.936773 0.445077 -0.051412
C15   C     C_R   0.620293 0.067276 0.451494 -0.269345
C16   C     C_R   0.500922 0.128568 0.484282 -0.128238
C17   C     C_R   0.378597 0.063376 0.496231 0.145340
C18   C     C_3   0.268600 0.067232 0.565868 -0.471227
C19   C     C_3   0.268841 0.925004 0.562325 -0.469086
C20   C     C_R   0.921185 0.590631 0.541198 0.248873
C21   C     C_R   0.936573 0.417520 0.453554 -0.100357
C22   C     C_R   0.080652 0.417421 0.453614 -0.110651
C23   C     C_R   0.500341 0.259842 0.497869 0.883238
C24   C     C_R   0.063870 0.590647 0.541144 0.207661
C25   C     C_3   0.053555 0.615034 0.630209 -0.502638
C26   C     C_3   0.899450 0.614946 0.630368 -0.510778
C27   C     C_R   0.520863 0.496544 0.346471 0.880806
C28   C     C_R   0.462147 0.465120 0.739115 -0.028948
C29   C     C_R   0.550976 0.514051 0.791042 -0.180977
C30   C     C_R   0.544685 0.470397 0.870220 -0.147642
C31   C     C_R   0.454118 0.372798 0.896936 0.145323
C32   C     C_R   0.362294 0.326964 0.845396 -0.072340
H1    H     H_    0.625171 0.585270 0.770218 0.141062
H2    H     H_    0.682660 0.222835 0.144906 0.156992
H3    H     H_    0.712215 0.120402 0.432694 0.193614
H4    H     H_    0.304596 0.105424 0.622306 0.197231
H5    H     H_    0.172839 0.109777 0.548578 0.218387
H6    H     H_    0.304612 0.880207 0.616851 0.197719
H7    H     H_    0.173115 0.885482 0.542950 0.217000
H8    H     H_    0.888760 0.349357 0.417357 0.148862
H9    H     H_    0.141784 0.349096 0.417503 0.162129
H10   H     H_    0.092026 0.535379 0.664678 0.224000
H11   H     H_    0.410001 0.606266 0.221950 0.150258
H12   H     H_    0.095245 0.708408 0.644343 0.203753
H13   H     H_    0.849147 0.535215 0.665102 0.224812
H14   H     H_    0.852242 0.708312 0.644506 0.207664
H15   H     H_    0.669120 0.302571 0.284319 0.140708
H16   H     H_    0.289966 0.253798 0.865302 0.174412
H17   H     H_    0.431578 0.532591 0.081073 0.159414
H18   H     H_    0.297241 0.334040 0.726621 0.146410
H19   H     H_    0.611616 0.512265 0.910380 0.133890
N1    N     N_R   0.857140 0.500860 0.500530 -0.106915
N2    N     N_R   0.142780 0.500820 0.500530 -0.112373
O1    O     O_R   0.385310 0.683210 0.499990 -0.613153
O2    O     O_R   0.614650 0.683240 0.500000 -0.595608
O3    O     O_R   0.371780 0.500000 0.615800 -0.618799
O4    O     O_R   0.601120 0.500040 0.615800 -0.612381
O5    O     O_R   0.385350 0.316760 0.500000 -0.621023
O6    O     O_R   0.614690 0.316790 0.500010 -0.624275
O7    O     O_R   0.398880 0.499960 0.384200 -0.613503
O8    O     O_R   0.628220 0.500000 0.384200 -0.584645
Zn1   Zn    Zn3+2 0.346870 0.499980 0.499990 0.950244
Zn2   Zn    Zn3+2 0.653130 0.500020 0.500010 0.981419
C33   C     C_2   0.747881 0.874876 0.407318 0.940670
O9    O     O_2   0.740713 0.782266 0.364322 -0.611192
O10   O     O_R   0.875424 0.925686 0.418374 -0.823324
H20   H     H_    0.953852 0.875722 0.389427 0.342931
C34   C     C_2   0.699625 0.295047 0.974795 0.879265
O11   O     O_2   0.803862 0.330132 0.001859 -0.587355
O12   O     O_R   0.708698 0.226627 0.902285 -0.791426
H21   H     H_    0.806558 0.213428 0.877775 0.352000
Cl1   Cl    Cl    0.285170 0.308779 0.035992 -0.584069

loop_
_geom_bond_atom_site_label_1
_geom_bond_atom_site_label_2
_ccdc_geom_bond_type
C10   C27   S    
O5    Zn1   S    
C23   O5    A    
C30   H19   S    
O4    Zn2   S    
C29   C30   A    
C19   H6    S    
C16   C23   S    
C2    H18   S    
N2    Zn1   S    
O6    Zn2   S    
C31   C32   A    
C30   C31   A    
C1    O1    A    
C14   C33   S    
C33   O9    D    
O8    Zn2   S    
C17   C18   S    
C3    H17   S    
C9    C34   S    
C5    C10   A    
C20   N1    A    
C33   O10   S    
C12   O3    A    
C21   C22   A    
O7    Zn1   S    
C23   O6    A    
C32   H16   S    
C11   C19   S    
C6    C7    A    
C21   H8    S    
C19   H7    S    
C12   C28   S    
C12   O4    A    
C25   H12   S    
C34   O12   S    
C28   C29   A    
C4    H11   S    
C18   H5    S    
C25   H10   S    
O10   H20   S    
C22   N2    A    
C3    C7    A    
C27   O7    A    
C1    O2    A    
C5    C6    A    
O3    Zn1   S    
C8    Cl1   S    
C22   H9    S    
C1    C13   S    
C26   H14   S    
C4    C10   A    
C15   C16   A    
C5    H15   S    
C29   H1    S    
C11   C13   A    
O12   H21   S    
C24   C25   S    
C24   N2    A    
C6    H2    S    
C2    C32   A    
C18   C19   S    
C15   H3    S    
C7    C9    S    
C20   C24   A    
C14   C15   A    
C16   C17   A    
C2    C28   A    
O1    Zn1   S    
C26   H13   S    
C25   C26   S    
C13   C14   A    
C8    C31   S    
C18   H4    S    
C34   O11   D    
C21   N1    A    
C11   C17   A    
C3    C4    A    
O2    Zn2   S    
C8    C9    D    
C20   C26   S    
N1    Zn2   S    
C27   O8    A    
