data_mof_unit_9035.cif
_audit_creation_date              2012-12-11T16:56:16-0500
_audit_creation_method            fapswitch 2.2
_symmetry_space_group_name_H-M    P1
_symmetry_Int_Tables_number       1
_space_group_crystal_system       triclinic
_cell_length_a                    6.987957
_cell_length_b                    14.619366
_cell_length_c                    16.151612
_cell_angle_alpha                 90.467477
_cell_angle_beta                  89.801672
_cell_angle_gamma                 89.87501
_cell_volume                      1649.97178743

loop_
_atom_site_label
_atom_site_type_symbol
_atom_type_description
_atom_site_fract_x
_atom_site_fract_y
_atom_site_fract_z
_atom_type_partial_charge
O1    O     O_R   0.505830 0.583360 0.413880 -0.529642
O2    O     O_R   0.175830 0.595460 0.585520 -0.548282
O3    O     O_R   0.005520 0.416640 0.586120 -0.527332
C1    C     C_R   0.344628 0.617799 0.614031 0.718739
O4    O     O_R   0.176120 0.594390 0.414490 -0.517884
O5    O     O_R   0.005810 0.415570 0.413870 -0.545468
C2    C     C_R   0.345194 0.617253 0.387001 0.718669
O6    O     O_R   0.505540 0.584430 0.586130 -0.535439
O7    O     O_3   0.339200 0.441330 0.500000 -0.367222
V1    V     V_3+5 0.064350 0.510880 0.500000 1.544647
O8    O     O_R   0.676100 0.404540 0.414480 -0.542266
C3    C     C_R   0.845450 0.383090 0.385560 0.707296
O9    O     O_R   0.675810 0.405610 0.585510 -0.524382
C4    C     C_R   0.844267 0.383958 0.613637 0.750423
V2    V     V_3+5 0.564340 0.489120 0.500000 1.537132
O10   O     O_3   0.839360 0.558670 0.500000 -0.357731
C5    C     C_2   0.729849 0.203568 0.781311 -0.098980
C6    C     C_2   0.890224 0.168786 0.814105 -0.289933
H1    H     H_    0.591742 0.186261 0.807878 0.162748
H2    H     H_    0.026600 0.180280 0.783532 0.170537
C7    C     C_2   0.731032 0.256342 0.703202 0.137235
C8    C     C_2   0.853387 0.326761 0.688593 -0.003668
C9    C     C_R   0.717584 0.238040 0.197480 0.070727
C10   C     C_R   0.882309 0.185991 0.183309 -0.083614
C11   C     C_R   0.037720 0.201612 0.236336 -0.125639
H3    H     H_    0.161880 0.158670 0.231193 0.169044
C12   C     C_R   0.026483 0.266092 0.301434 -0.143111
H4    H     H_    0.144364 0.271700 0.344238 0.144807
C13   C     C_R   0.859087 0.317856 0.315042 -0.083151
C14   C     C_R   0.708069 0.305468 0.259354 0.075107
C15   C     C_3   0.506659 0.282329 0.279832 -0.435467
C16   C     C_3   0.522851 0.204149 0.217983 -0.001637
H5    H     H_    0.407165 0.337238 0.259802 0.157239
H6    H     H_    0.488132 0.260589 0.345163 0.210990
H7    H     H_    0.425209 0.210006 0.164155 0.119513
C17   C     C_R   0.526219 0.700838 0.726401 0.011453
C18   C     C_R   0.356723 0.687853 0.681183 -0.050116
C19   C     C_R   0.201213 0.746004 0.700977 -0.153931
H8    H     H_    0.069122 0.741415 0.666342 0.131630
C20   C     C_R   0.212659 0.809317 0.767450 -0.143179
H9    H     H_    0.088892 0.851464 0.781428 0.123237
C21   C     C_R   0.379563 0.816072 0.816523 -0.051932
C22   C     C_R   0.536195 0.762207 0.792442 -0.020088
C23   C     C_3   0.663215 0.700976 0.841713 0.031119
C24   C     C_3   0.658128 0.634481 0.767675 0.012183
H10   H     H_    0.806887 0.731882 0.850876 0.110806
H11   H     H_    0.798041 0.630994 0.734769 0.100657
C25   C     C_R   0.508302 0.686544 0.265401 -0.097805
C26   C     C_R   0.355519 0.687838 0.321193 -0.208745
C27   C     C_R   0.239483 0.767331 0.322246 0.418017
C28   C     C_R   0.244341 0.828827 0.255024 0.175042
C29   C     C_R   0.378923 0.817106 0.189484 -0.209641
C30   C     C_R   0.518036 0.748085 0.198544 0.016806
C31   C     C_3   0.724669 0.767853 0.214369 -0.021362
C32   C     C_3   0.709602 0.709099 0.290749 0.464724
H12   H     H_    0.746131 0.841226 0.228482 0.151613
O11   O     O_R   0.229930 0.912420 0.917160 -0.544053
O12   O     O_R   0.559420 0.902500 0.088780 -0.527828
O13   O     O_R   0.729660 0.081330 0.089380 -0.532894
C33   C     C_R   0.390562 0.882509 0.118965 0.815497
O14   O     O_R   0.559650 0.901420 0.917750 -0.540776
O15   O     O_R   0.729880 0.080250 0.917130 -0.546136
C34   C     C_R   0.390738 0.880267 0.888343 0.715760
O16   O     O_R   0.229700 0.913500 0.089410 -0.520267
O17   O     O_3   0.396250 0.055540 0.003280 -0.381457
V3    V     V_3+5 0.671130 0.986010 0.003260 1.508022
O18   O     O_R   0.059600 0.091310 0.917720 -0.544945
C35   C     C_R   0.891747 0.110229 0.887842 0.737468
O19   O     O_R   0.059370 0.092380 0.088750 -0.544213
C36   C     C_R   0.890500 0.114864 0.117055 0.741781
V4    V     V_3+5 0.171120 0.007820 0.003230 1.493515
O20   O     O_3   0.896130 0.938240 0.003240 -0.357634
I1    I     I_    0.534791 0.074372 0.280749 -0.331208
I2    I     I_    0.528032 0.658046 0.955717 -0.247352
I3    I     I_    0.537283 0.500787 0.786606 -0.254770
O21   O     O_3   0.142648 0.794515 0.392690 -0.592491
H13   H     H_    0.194417 0.762456 0.441500 0.295637
I4    I     I_    0.072775 0.948945 0.266764 -0.268951
I5    I     I_    0.907453 0.716830 0.116989 -0.280746
I6    I     I_    0.715692 0.788077 0.405269 -0.268210
O22   O     O_3   0.835119 0.633558 0.291824 -0.608998
H14   H     H_    0.785044 0.585090 0.254360 0.298189
I7    I     I_    0.522570 0.211529 0.615941 -0.336941
I8    I     I_    0.047288 0.377620 0.779964 -0.300494

loop_
_geom_bond_atom_site_label_1
_geom_bond_atom_site_label_2
_ccdc_geom_bond_type
C25   C32   S    
C3    C13   S    
C12   C13   A    
C1    O6    A    
O22   H14   S    
C10   C36   S    
C30   C31   S    
C23   C24   S    
C13   C14   A    
C17   C18   A    
O13   V3    S    
O5    C3    A    
C14   C15   S    
O12   C33   A    
V2    O10   S    
O19   V4    S    
O16   V4    S    
O14   C34   A    
C29   C33   S    
O8    V2    S    
O14   V3    S    
O12   V3    S    
V3    O20   S    
C7    I7    S    
C9    C10   A    
C15   H5    S    
O1    V2    S    
C32   O22   S    
O7    V1    S    
O18   V4    S    
C20   C21   A    
O9    C4    A    
C23   H10   S    
C33   O16   A    
O11   C34   A    
C24   H11   S    
C25   C30   A    
C31   H12   S    
O15   V3    S    
C28   C29   A    
C9    C14   A    
C10   C11   A    
C2    C26   S    
C16   I1    S    
O4    C2    A    
C27   C28   A    
C11   H3    S    
O17   V4    S    
O11   V4    S    
O18   C35   A    
C8    I8    S    
O2    C1    A    
C22   C23   S    
C16   H7    S    
C18   C19   A    
C27   O21   S    
C15   C16   S    
C5    C6    D    
C15   H6    S    
C17   C24   S    
O21   H13   S    
C23   I2    S    
O3    C4    A    
C25   C26   A    
O17   V3    S    
O6    V2    S    
O9    V2    S    
C21   C22   A    
O2    V1    S    
C29   C30   A    
C31   I5    S    
C31   C32   S    
C20   H9    S    
O1    C2    A    
O5    V1    S    
O8    C3    A    
C11   C12   A    
O15   C35   A    
C24   I3    S    
C9    C16   S    
C4    C8    S    
O7    V2    S    
C28   I4    S    
V4    O20   S    
O3    V1    S    
V1    O10   S    
C19   C20   A    
C32   I6    S    
C19   H8    S    
C5    H1    S    
C6    H2    S    
O19   C36   A    
C5    C7    S    
O13   C36   A    
O4    V1    S    
C1    C18   S    
C26   C27   A    
C12   H4    S    
C17   C22   A    
C7    C8    D    
C6    C35   S    
C21   C34   S    
