data_mof_unit_54863.cif
_audit_creation_date              2012-12-11T17:08:25-0500
_audit_creation_method            fapswitch 2.2
_symmetry_space_group_name_H-M    P1
_symmetry_Int_Tables_number       1
_space_group_crystal_system       triclinic
_cell_length_a                    6.96327
_cell_length_b                    14.656385
_cell_length_c                    15.978828
_cell_angle_alpha                 89.868545
_cell_angle_beta                  90.056791
_cell_angle_gamma                 90.132347
_cell_volume                      1630.73168324

loop_
_atom_site_label
_atom_site_type_symbol
_atom_type_description
_atom_site_fract_x
_atom_site_fract_y
_atom_site_fract_z
_atom_type_partial_charge
O1    O     O_R   0.505700 0.583890 0.413310 -0.533881
O2    O     O_R   0.175960 0.594920 0.586080 -0.546098
O3    O     O_R   0.005660 0.416110 0.586690 -0.540955
C1    C     C_R   0.344732 0.614722 0.616839 0.682564
O4    O     O_R   0.175980 0.594920 0.413930 -0.542870
O5    O     O_R   0.005680 0.416110 0.413310 -0.538507
C2    C     C_R   0.345105 0.617486 0.385606 0.701938
O6    O     O_R   0.505680 0.583890 0.586690 -0.545696
O7    O     O_3   0.339200 0.441330 0.500000 -0.368450
V1    V     V_3+5 0.064350 0.510880 0.500000 1.382958
O8    O     O_R   0.675960 0.405080 0.413920 -0.538690
C3    C     C_R   0.844928 0.383214 0.385003 0.699147
O9    O     O_R   0.675940 0.405080 0.586070 -0.543198
C4    C     C_R   0.844778 0.381649 0.613672 0.668205
V2    V     V_3+5 0.564340 0.489120 0.500000 1.387411
O10   O     O_3   0.839360 0.558670 0.500000 -0.372776
C5    C     C_R   0.007554 0.252353 0.689382 0.102856
C6    C     C_R   0.852529 0.312397 0.681384 -0.104405
C7    C     C_R   0.702188 0.303801 0.739993 -0.181598
H1    H     H_    0.579108 0.348310 0.736267 0.128768
C8    C     C_R   0.715227 0.241881 0.807461 -0.192402
H2    H     H_    0.600678 0.239462 0.853066 0.132622
C9    C     C_R   0.877757 0.185769 0.817441 -0.105850
C10   C     C_R   0.019493 0.190693 0.755679 0.093113
C11   C     C_3   0.229528 0.205693 0.765371 -0.416716
C12   C     C_3   0.217174 0.272450 0.692694 -0.390164
H3    H     H_    0.311096 0.142825 0.751017 0.173314
H4    H     H_    0.265709 0.238764 0.825904 0.172771
H5    H     H_    0.293542 0.248608 0.635779 0.174323
H6    H     H_    0.246686 0.344300 0.710887 0.165827
C13   C     C_R   0.727368 0.183325 0.241648 0.103056
C14   C     C_R   0.882042 0.182480 0.185550 -0.112689
C15   C     C_R   0.033709 0.243949 0.201111 -0.177411
H7    H     H_    0.156431 0.245832 0.159846 0.133997
C16   C     C_R   0.022401 0.308114 0.266560 -0.175257
H8    H     H_    0.137449 0.357130 0.273871 0.127802
C17   C     C_R   0.858727 0.313081 0.318310 -0.113350
C18   C     C_R   0.715745 0.247056 0.306163 0.105054
C19   C     C_3   0.505275 0.259132 0.293824 -0.410022
C20   C     C_3   0.517778 0.189344 0.223884 -0.398999
H9    H     H_    0.469565 0.328862 0.271303 0.165510
H10   H     H_    0.420857 0.234840 0.348551 0.176764
H11   H     H_    0.488494 0.218360 0.160825 0.170952
H12   H     H_    0.441298 0.124541 0.238332 0.168933
C21   C     C_R   0.506529 0.684420 0.745553 0.024424
C22   C     C_R   0.352080 0.680246 0.688095 -0.136690
C23   C     C_R   0.202368 0.744311 0.699147 -0.106664
H13   H     H_    0.079715 0.743952 0.657656 0.144924
C24   C     C_R   0.214419 0.812994 0.760906 -0.155771
H14   H     H_    0.099749 0.861558 0.767489 0.117148
C25   C     C_R   0.379907 0.822980 0.810164 -0.122420
C26   C     C_R   0.527815 0.761936 0.795140 0.029960
C27   C     C_3   0.727829 0.778574 0.764420 0.187733
C28   C     C_3   0.719393 0.682157 0.730610 0.264999
H15   H     H_    0.835374 0.791139 0.814472 0.103032
H16   H     H_    0.764872 0.675694 0.663919 0.108302
C29   C     C_R   0.530725 0.708375 0.279491 0.120336
C30   C     C_R   0.357225 0.689621 0.320580 -0.112414
C31   C     C_R   0.197803 0.744498 0.299766 -0.189387
H17   H     H_    0.062927 0.736309 0.332598 0.136311
C32   C     C_R   0.208970 0.808740 0.234070 -0.185613
H18   H     H_    0.082239 0.848024 0.218648 0.132309
C33   C     C_R   0.379710 0.819715 0.187326 -0.112416
C34   C     C_R   0.541801 0.771721 0.214734 0.103138
C35   C     C_3   0.678324 0.713951 0.166241 -0.405257
C36   C     C_3   0.666313 0.644741 0.237073 -0.418363
H19   H     H_    0.822253 0.746159 0.160443 0.177368
H20   H     H_    0.615691 0.688888 0.106482 0.176147
H21   H     H_    0.803226 0.637112 0.272137 0.173608
H22   H     H_    0.596737 0.579480 0.218444 0.165250
O11   O     O_R   0.229000 0.916070 0.913330 -0.535591
O12   O     O_R   0.558770 0.905070 0.086080 -0.537110
O13   O     O_R   0.729000 0.083900 0.086690 -0.536903
C37   C     C_R   0.389805 0.883575 0.115298 0.708038
O14   O     O_R   0.558720 0.905070 0.913930 -0.549291
O15   O     O_R   0.728960 0.083900 0.913310 -0.544744
C38   C     C_R   0.390302 0.887759 0.881584 0.684733
O16   O     O_R   0.229050 0.916070 0.086710 -0.537689
O17   O     O_3   0.395460 0.058650 0.000020 -0.373338
V3    V     V_3+5 0.670340 0.989120 0.000000 1.389805
O18   O     O_R   0.058670 0.094960 0.913900 -0.540780
C39   C     C_R   0.889579 0.118176 0.886252 0.681711
O19   O     O_R   0.058720 0.094960 0.086050 -0.543942
C40   C     C_R   0.890006 0.116962 0.114846 0.694665
V4    V     V_3+5 0.170330 0.010930 0.999970 1.389984
O20   O     O_3   0.895340 0.941350 0.999980 -0.368197
O21   O     O_3   0.737207 0.836287 0.693154 -0.590910
C41   C     C_3   0.734686 0.930092 0.711566 0.066964
H23   H     H_    0.881980 0.957599 0.702574 0.125310
H24   H     H_    0.689306 0.946356 0.776232 0.113205
C42   C     C_3   0.598733 0.975825 0.648903 -0.285515
H25   H     H_    0.621383 0.946579 0.585515 0.215650
H26   H     H_    0.447657 0.962102 0.667587 0.181666
C43   C     C_3   0.631510 0.078236 0.643712 -0.855630
H27   H     H_    0.613667 0.108222 0.706418 0.245538
H28   H     H_    0.525140 0.109365 0.600505 0.229163
H29   H     H_    0.778245 0.093244 0.620169 0.236016
O22   O     O_3   0.812458 0.623122 0.787777 -0.561127
C44   C     C_3   0.828080 0.535911 0.752775 -0.225364
H30   H     H_    0.931161 0.537409 0.700021 0.152102
H31   H     H_    0.685586 0.509519 0.732551 0.123754
H32   H     H_    0.885548 0.488640 0.800926 0.159931

loop_
_geom_bond_atom_site_label_1
_geom_bond_atom_site_label_2
_ccdc_geom_bond_type
O21   C41   S    
C9    C39   S    
C4    C6    S    
C7    H1    S    
O11   C38   A    
C29   C36   S    
C1    O6    A    
O18   C39   A    
C23   C24   A    
C1    C22   S    
C21   C22   A    
C11   H4    S    
C5    C12   S    
C16   C17   A    
O5    C3    A    
C18   C19   S    
C36   H21   S    
V2    O10   S    
O22   C44   S    
C13   C20   S    
C6    C7    A    
C3    C17   S    
C32   C33   A    
V3    O20   S    
O11   V4    S    
O8    V2    S    
C20   H11   S    
C23   H13   S    
C24   C25   A    
C9    C10   A    
O1    V2    S    
O14   V3    S    
O13   C40   A    
C42   H25   S    
C31   H17   S    
O9    C4    A    
C43   H27   S    
C15   H7    S    
C19   H10   S    
C27   H15   S    
C14   C40   S    
C28   H16   S    
C31   C32   A    
C5    C10   A    
C25   C26   A    
C10   C11   S    
O12   C37   A    
O15   C39   A    
C19   C20   S    
O4    C2    A    
C21   C26   A    
C35   H19   S    
C30   C31   A    
V4    O20   S    
O17   V3    S    
C16   H8    S    
O2    C1    A    
C25   C38   S    
C17   C18   A    
C42   H26   S    
O19   C40   A    
C41   C42   S    
C35   H20   S    
C5    C6    A    
C27   O21   S    
C43   H28   S    
O14   C38   A    
O3    C4    A    
O16   V4    S    
O19   V4    S    
C41   H24   S    
C21   C28   S    
C12   H6    S    
O6    V2    S    
C8    C9    A    
O2    V1    S    
O17   V4    S    
C26   C27   S    
C29   C34   A    
O7    V1    S    
C22   C23   A    
C2    C30   S    
C7    C8    A    
O1    C2    A    
C13   C14   A    
O15   V3    S    
O5    V1    S    
O8    C3    A    
C27   C28   S    
C33   C37   S    
C11   H3    S    
C43   H29   S    
C13   C18   A    
C14   C15   A    
O9    V2    S    
C11   C12   S    
O4    V1    S    
O12   V3    S    
O3    V1    S    
V1    O10   S    
C44   H30   S    
C34   C35   S    
C42   C43   S    
C29   C30   A    
C36   H22   S    
C15   C16   A    
O13   V3    S    
C35   C36   S    
O7    V2    S    
C32   H18   S    
C33   C34   A    
C20   H12   S    
C44   H32   S    
C41   H23   S    
C19   H9    S    
C12   H5    S    
C24   H14   S    
C37   O16   A    
C28   O22   S    
C8    H2    S    
C44   H31   S    
O18   V4    S    
