data_mof_unit_35440.cif
_audit_creation_date              2012-12-11T14:01:36-0500
_audit_creation_method            fapswitch 2.2
_symmetry_space_group_name_H-M    P1
_symmetry_Int_Tables_number       1
_space_group_crystal_system       triclinic
_cell_length_a                    19.157119
_cell_length_b                    10.884809
_cell_length_c                    18.791527
_cell_angle_alpha                 89.738742
_cell_angle_beta                  88.995061
_cell_angle_gamma                 89.656288
_cell_volume                      3917.72683895

loop_
_atom_site_label
_atom_site_type_symbol
_atom_type_description
_atom_site_fract_x
_atom_site_fract_y
_atom_site_fract_z
_atom_type_partial_charge
C1    C     C_R   0.273911 0.037562 0.855328 0.547779
C2    C     C_R   0.990185 0.643543 0.977605 -0.130808
C3    C     C_R   0.549371 0.143982 0.019346 -0.122285
C4    C     C_R   0.490433 0.143623 0.977519 -0.131233
C5    C     C_2   0.249357 0.582750 0.922123 -0.118313
C6    C     C_2   0.762242 0.576750 0.083598 -0.101273
C7    C     C_2   0.749369 0.082795 0.922140 -0.119276
C8    C     C_2   0.262228 0.076775 0.083585 -0.099854
C9    C     C_2   0.253486 0.592135 0.079034 -0.122607
C10   C     C_2   0.756356 0.563722 0.929294 -0.124316
C11   C     C_2   0.753516 0.092200 0.079061 -0.124043
C12   C     C_R   0.728884 0.045308 0.147784 0.530119
C13   C     C_2   0.256338 0.063754 0.929282 -0.123066
C14   C     C_2   0.295432 0.522315 0.037682 -0.175226
C15   C     C_2   0.741883 0.469583 0.974414 -0.178748
C16   C     C_2   0.795455 0.022383 0.037701 -0.175316
C17   C     C_2   0.241853 0.969622 0.974401 -0.178378
C18   C     C_2   0.303726 0.546925 0.961487 -0.169416
C19   C     C_2   0.727097 0.490334 0.050428 -0.183609
C20   C     C_2   0.803743 0.046999 0.961505 -0.169423
C21   C     C_2   0.227069 0.990379 0.050413 -0.183206
C22   C     C_2   0.519087 0.837513 0.587513 -0.105301
C23   C     C_R   0.773916 0.537549 0.855333 0.549484
C24   C     C_2   0.546871 0.828748 0.434433 -0.095957
C25   C     C_2   0.953117 0.330112 0.565542 -0.109462
C26   C     C_2   0.981065 0.336982 0.412343 -0.103071
C27   C     C_2   0.569072 0.742137 0.479637 -0.167230
C28   C     C_2   0.544736 0.738146 0.553917 -0.156725
C29   C     C_2   0.958583 0.236594 0.447144 -0.149037
C30   C     C_2   0.936339 0.238714 0.521832 -0.164841
C31   C     C_2   0.272122 0.660605 0.563282 -0.094249
C32   C     C_2   0.752089 0.566994 0.417936 -0.106356
C33   C     C_2   0.769820 0.156663 0.563618 -0.109225
C34   C     C_R   0.228872 0.545278 0.147769 0.530550
C35   C     C_2   0.243892 0.111950 0.430809 -0.090650
C36   C     C_2   0.256450 0.612139 0.411383 -0.105686
C37   C     C_2   0.762057 0.573125 0.573096 -0.100403
C38   C     C_2   0.756548 0.112097 0.411298 -0.102916
C39   C     C_2   0.244991 0.105065 0.586326 -0.103220
C40   C     C_R   0.468019 0.818580 0.855097 0.540015
C41   C     C_R   0.566216 0.814471 0.139187 0.565077
C42   C     C_R   0.968003 0.318572 0.855105 0.549832
C43   C     C_R   0.066210 0.314474 0.139188 0.561465
C44   C     C_2   0.218759 0.696511 0.446932 -0.154246
C45   C     C_R   0.576235 0.032022 0.042551 -0.081327
C46   C     C_2   0.816921 0.563692 0.527821 -0.155189
C47   C     C_2   0.718982 0.196642 0.446739 -0.151603
C48   C     C_2   0.285723 0.178066 0.547363 -0.160046
C49   C     C_2   0.234955 0.732812 0.519787 -0.161081
C50   C     C_2   0.811535 0.585158 0.452064 -0.153217
C51   C     C_2   0.735356 0.232064 0.519593 -0.156966
C52   C     C_2   0.272519 0.197935 0.472710 -0.146048
C53   C     C_R   0.261028 0.636754 0.851906 0.562830
C54   C     C_R   0.741117 0.633802 0.150341 0.544714
C55   C     C_R   0.761030 0.136764 0.851911 0.563912
C56   C     C_R   0.467579 0.032201 0.950334 -0.092360
C57   C     C_R   0.241114 0.133811 0.150336 0.545423
C58   C     C_R   0.271623 0.048598 0.649857 0.552157
C59   C     C_R   0.728344 0.049111 0.350254 0.551375
C60   C     C_R   0.774227 0.543254 0.646666 0.540470
C61   C     C_R   0.228289 0.549021 0.350334 0.558262
C62   C     C_R   0.473334 0.824215 0.649567 0.553000
C63   C     C_R   0.563500 0.819100 0.359388 0.580999
C64   C     C_R   0.936801 0.319926 0.640609 0.554814
C65   C     C_R   0.026543 0.324275 0.350215 0.570221
C66   C     C_R   0.275305 0.689636 0.638243 0.575317
C67   C     C_R   0.076079 0.532092 0.042597 -0.081329
C68   C     C_R   0.739428 0.634307 0.352903 0.550762
C69   C     C_R   0.774764 0.188124 0.638017 0.549601
C70   C     C_R   0.237687 0.142198 0.356235 0.560476
C71   C     C_R   0.558867 0.810026 0.060247 -0.026322
C72   C     C_R   0.502616 0.813764 0.924049 -0.013430
C73   C     C_R   0.058838 0.310033 0.060258 -0.024550
C74   C     C_R   0.002565 0.313733 0.924074 -0.015107
C75   C     C_R   0.547249 0.920656 0.023234 -0.003333
C76   C     C_R   0.504127 0.921168 0.965328 0.003472
C77   C     C_R   0.047172 0.420663 0.023257 -0.002957
C78   C     C_R   0.967408 0.532084 0.950402 -0.092194
C79   C     C_R   0.004034 0.421123 0.965366 0.002480
C80   C     C_R   0.532473 0.698452 0.950354 -0.014183
C81   C     C_R   0.552069 0.695171 0.022722 0.001313
C82   C     C_R   0.032423 0.198423 0.950384 -0.014967
C83   C     C_R   0.052036 0.195162 0.022745 0.001596
C84   C     C_3   0.532850 0.581430 0.901556 -0.229403
C85   C     C_3   0.569808 0.457257 0.911048 -0.352770
C86   C     C_3   0.566328 0.379952 0.843354 -0.422141
C87   C     C_3   0.554797 0.570624 0.060529 -0.204238
C88   C     C_3   0.480897 0.522337 0.077517 -0.280629
C89   C     C_R   0.049123 0.644007 0.019430 -0.122884
C90   C     C_3   0.481343 0.423174 0.135189 -0.436709
C91   C     C_3   0.032799 0.081386 0.901595 -0.229205
C92   C     C_3   0.069722 0.957184 0.911122 -0.353910
C93   C     C_3   0.066271 0.879856 0.843437 -0.419861
C94   C     C_3   0.054749 0.070623 0.060571 -0.203539
C95   C     C_3   0.980843 0.022412 0.077618 -0.280232
C96   C     C_3   0.981280 0.923414 0.135387 -0.439274
Cr1   Cr    Cr6+3 0.230530 0.836340 0.748870 0.993946
Cr2   Cr    Cr6+3 0.614360 0.677860 0.250770 0.987418
Cr3   Cr    Cr6+3 0.885640 0.177860 0.749230 1.001592
Cr4   Cr    Cr6+3 0.114360 0.177860 0.250770 0.992948
Cr5   Cr    Cr6+3 0.769470 0.836340 0.251130 0.999983
Cr6   Cr    Cr6+3 0.730530 0.336340 0.748870 0.984005
Cr7   Cr    Cr6+3 0.269470 0.336340 0.251130 1.011042
Cr8   Cr    Cr6+3 0.387420 0.989430 0.750820 1.012051
Cr9   Cr    Cr6+3 0.612580 0.989430 0.249180 1.021368
Cr10  Cr    Cr6+3 0.887420 0.489430 0.750820 1.012846
Cr11  Cr    Cr6+3 0.112580 0.489430 0.249180 1.018537
Cr12  Cr    Cr6+3 0.385640 0.677860 0.749230 1.002696
H1    H     H_    0.170652 0.732641 0.425066 0.153196
H2    H     H_    0.709142 0.589300 0.555415 0.087958
H3    H     H_    0.806556 0.080258 0.430734 0.100534
H4    H     H_    0.195612 0.072363 0.566215 0.106749
H5    H     H_    0.298025 0.577309 0.545179 0.104118
H6    H     H_    0.709013 0.517175 0.442658 0.089661
H7    H     H_    0.792347 0.070023 0.546146 0.104634
H8    H     H_    0.223242 0.025857 0.451265 0.086321
H9    H     H_    0.623778 0.028154 0.068202 0.146821
H10   H     H_    0.420909 0.034966 0.919857 0.172064
H11   H     H_    0.123618 0.528348 0.068261 0.147215
H12   H     H_    0.869210 0.547263 0.547296 0.145389
H13   H     H_    0.920731 0.534743 0.919934 0.171117
H14   H     H_    0.073321 0.729228 0.034541 0.097914
H15   H     H_    0.964191 0.728592 0.963592 0.105530
H16   H     H_    0.573642 0.229157 0.034425 0.097933
H17   H     H_    0.464500 0.228716 0.963484 0.105360
H18   H     H_    0.322135 0.442229 0.058927 0.151652
H19   H     H_    0.736616 0.376603 0.954427 0.149901
H20   H     H_    0.822149 0.942281 0.058938 0.151983
H21   H     H_    0.236585 0.876640 0.954417 0.149840
H22   H     H_    0.355623 0.536799 0.938101 0.142124
H23   H     H_    0.671188 0.233761 0.424714 0.151891
H24   H     H_    0.687545 0.436808 0.078246 0.120790
H25   H     H_    0.855639 0.036876 0.938116 0.141992
H26   H     H_    0.187515 0.936858 0.078231 0.120747
H27   H     H_    0.228041 0.673298 0.057369 0.100038
H28   H     H_    0.761541 0.657395 0.948032 0.100968
H29   H     H_    0.728076 0.173374 0.057403 0.100064
H30   H     H_    0.261528 0.157428 0.948017 0.100818
H31   H     H_    0.197232 0.588924 0.945621 0.107465
H32   H     H_    0.807731 0.616803 0.056989 0.122004
H33   H     H_    0.697247 0.088970 0.945641 0.107193
H34   H     H_    0.333363 0.216369 0.568361 0.156669
H35   H     H_    0.307717 0.116823 0.056974 0.122028
H36   H     H_    0.599240 0.664262 0.459784 0.132470
H37   H     H_    0.541537 0.647868 0.578624 0.151345
H38   H     H_    0.963704 0.146272 0.423159 0.151702
H39   H     H_    0.912603 0.155826 0.543239 0.136549
H40   H     H_    0.515022 0.906119 0.451724 0.110259
H41   H     H_    0.526093 0.929250 0.565815 0.107120
H42   H     H_    0.972496 0.428688 0.433187 0.094014
H43   H     H_    0.979270 0.412600 0.547019 0.105885
H44   H     H_    0.511249 0.368235 0.827224 0.132894
H45   H     H_    0.208547 0.813957 0.540765 0.138260
H46   H     H_    0.596283 0.423923 0.799077 0.172045
H47   H     H_    0.588750 0.287491 0.853630 0.179041
H48   H     H_    0.624721 0.472302 0.922635 0.194752
H49   H     H_    0.543249 0.401259 0.952567 0.149426
H50   H     H_    0.477507 0.552859 0.897080 0.176667
H51   H     H_    0.556236 0.613732 0.850192 0.184673
H52   H     H_    0.516837 0.346776 0.119821 0.141960
H53   H     H_    0.498826 0.462409 0.186300 0.168921
H54   H     H_    0.427829 0.386304 0.143091 0.155677
H55   H     H_    0.446578 0.598770 0.096271 0.200297
H56   H     H_    0.856277 0.627551 0.425681 0.154132
H57   H     H_    0.457579 0.484441 0.028717 0.137626
H58   H     H_    0.586567 0.504039 0.032465 0.105150
H59   H     H_    0.587147 0.568466 0.107466 0.197597
H60   H     H_    0.011201 0.868151 0.827276 0.135056
H61   H     H_    0.096259 0.923799 0.799174 0.173942
H62   H     H_    0.088681 0.787392 0.853738 0.179067
H63   H     H_    0.124634 0.972186 0.922741 0.194570
H64   H     H_    0.043118 0.901218 0.952628 0.149421
H65   H     H_    0.977453 0.052851 0.897094 0.176022
H66   H     H_    0.056213 0.113658 0.850240 0.188395
H67   H     H_    0.711558 0.316031 0.539946 0.141821
H68   H     H_    0.016772 0.846964 0.120096 0.142018
H69   H     H_    0.998757 0.962796 0.186462 0.165704
H70   H     H_    0.927763 0.886574 0.143320 0.154870
H71   H     H_    0.946534 0.098909 0.096303 0.198720
H72   H     H_    0.957518 0.984388 0.028856 0.137896
H73   H     H_    0.086481 0.003977 0.032518 0.104851
H74   H     H_    0.087139 0.068460 0.107479 0.198005
H75   H     H_    0.292534 0.283548 0.450647 0.158734
H76   H     H_    0.306638 0.580669 0.430421 0.102882
O1    O     O_R   0.215090 0.709860 0.828130 -0.525215
O2    O     O_R   0.543740 0.718170 0.330000 -0.498003
O3    O     O_R   0.956260 0.218170 0.670000 -0.503519
O4    O     O_R   0.043740 0.218170 0.330000 -0.512333
O5    O     O_R   0.320940 0.626760 0.674370 -0.496443
O6    O     O_R   0.679060 0.626760 0.325630 -0.522822
O7    O     O_R   0.820940 0.126760 0.674370 -0.511256
O8    O     O_R   0.179060 0.126760 0.325630 -0.494681
O9    O     O_3   0.334530 0.834540 0.749640 -0.263897
O10   O     O_3   0.665470 0.834540 0.250360 -0.289082
O11   O     O_3   0.834530 0.334540 0.749640 -0.285523
O12   O     O_R   0.784910 0.709860 0.171870 -0.518761
O13   O     O_3   0.165470 0.334540 0.250360 -0.267393
O14   O     O_R   0.236990 0.958390 0.823710 -0.503099
O15   O     O_R   0.763010 0.958390 0.176290 -0.496259
O16   O     O_R   0.736990 0.458390 0.823710 -0.500366
O17   O     O_R   0.263010 0.458390 0.176290 -0.497110
O18   O     O_R   0.332380 0.074750 0.830850 -0.529525
O19   O     O_R   0.667620 0.074750 0.169150 -0.543547
O20   O     O_R   0.832380 0.574750 0.830850 -0.527103
O21   O     O_R   0.167620 0.574750 0.169150 -0.544401
O22   O     O_R   0.445800 0.917770 0.825070 -0.507985
O23   O     O_R   0.715090 0.209860 0.828130 -0.524449
O24   O     O_R   0.554200 0.917770 0.174930 -0.476647
O25   O     O_R   0.945800 0.417770 0.825070 -0.500781
O26   O     O_R   0.054200 0.417770 0.174930 -0.486949
O27   O     O_R   0.456410 0.716580 0.829970 -0.553447
O28   O     O_R   0.543590 0.716580 0.170030 -0.525103
O29   O     O_R   0.956410 0.216580 0.829970 -0.548509
O30   O     O_R   0.043590 0.216580 0.170030 -0.533547
O31   O     O_R   0.321080 0.625290 0.822650 -0.494898
O32   O     O_R   0.678920 0.625290 0.177350 -0.536994
O33   O     O_R   0.821080 0.125290 0.822650 -0.493513
O34   O     O_R   0.284910 0.209860 0.171870 -0.517527
O35   O     O_R   0.178920 0.125290 0.177350 -0.537550
O36   O     O_R   0.214930 0.711450 0.668160 -0.499702
O37   O     O_R   0.785070 0.711450 0.331840 -0.508079
O38   O     O_R   0.714930 0.211450 0.668160 -0.495683
O39   O     O_R   0.285070 0.211450 0.331840 -0.510270
O40   O     O_R   0.236850 0.959870 0.675420 -0.524052
O41   O     O_R   0.763150 0.959870 0.324580 -0.497668
O42   O     O_R   0.736850 0.459870 0.675420 -0.522537
O43   O     O_R   0.263150 0.459870 0.324580 -0.502192
O44   O     O_R   0.332230 0.076350 0.670880 -0.508384
O45   O     O_R   0.445660 0.919250 0.676780 -0.493483
O46   O     O_R   0.667770 0.076350 0.329120 -0.520413
O47   O     O_R   0.832230 0.576350 0.670880 -0.512559
O48   O     O_R   0.167770 0.576350 0.329120 -0.511313
O49   O     O_R   0.554340 0.919250 0.323220 -0.486598
O50   O     O_R   0.945660 0.419250 0.676780 -0.492203
O51   O     O_R   0.054340 0.419250 0.323220 -0.491385
O52   O     O_R   0.456260 0.718170 0.670000 -0.522334

loop_
_geom_bond_atom_site_label_1
_geom_bond_atom_site_label_2
_ccdc_geom_bond_type
C44   C49   S    
C43   C73   S    
C31   C66   S    
C71   C75   A    
C87   C88   S    
Cr12  O52   S    
C56   C76   A    
C60   O47   A    
C7    C20   D    
C14   C18   S    
C95   C96   S    
C67   C77   A    
C24   C27   D    
C67   C89   A    
C80   C84   S    
Cr6   O11   S    
C69   O7    A    
Cr3   O3    S    
C70   O8    A    
C30   H39   S    
C55   O33   A    
Cr11  O26   S    
Cr4   O8    S    
C2    H15   S    
C3    H16   S    
C13   H30   S    
Cr1   O1    S    
C6    C19   D    
C40   O27   A    
Cr4   O30   S    
C28   H37   S    
C61   O43   A    
C4    H17   S    
C90   H54   S    
C56   H10   S    
C5    C53   S    
Cr4   O4    S    
C31   C49   D    
C86   H44   S    
C10   C15   D    
C73   C83   A    
Cr9   O19   S    
C87   H58   S    
C63   O49   A    
C89   H14   S    
C92   H63   S    
Cr7   O43   S    
C66   O5    A    
Cr3   O11   S    
Cr6   O42   S    
C61   O48   A    
Cr10  O47   S    
C91   H65   S    
Cr5   O41   S    
C69   O38   A    
Cr7   O13   S    
C12   O19   A    
Cr1   O9    S    
C78   H13   S    
C43   O26   A    
C53   O1    A    
C66   O36   A    
Cr7   O39   S    
C41   O28   A    
C25   H43   S    
C87   H59   S    
C68   O37   A    
C93   H60   S    
C94   H74   S    
Cr8   O9    S    
C52   H75   S    
Cr8   O44   S    
C36   H76   S    
C94   H73   S    
Cr8   O22   S    
C96   H69   S    
C7    H33   S    
Cr10  O50   S    
Cr6   O23   S    
C37   C46   D    
Cr5   O12   S    
C33   C69   S    
C41   C71   S    
C44   H1    S    
C62   O45   A    
C1    O14   A    
C59   O46   A    
C65   O4    A    
C53   O31   A    
C22   C28   D    
Cr11  O48   S    
C4    C56   A    
C6    H32   S    
C49   H45   S    
C85   H49   S    
C6    C54   S    
C1    O18   A    
C84   H51   S    
C5    H31   S    
C77   C79   A    
C34   O21   A    
Cr9   O10   S    
C40   O22   A    
C93   H62   S    
C42   C74   S    
C54   O12   A    
C90   H53   S    
C50   H56   S    
Cr12  O31   S    
Cr3   O33   S    
C26   H42   S    
C62   O52   A    
C84   C85   S    
Cr4   O35   S    
C24   H40   S    
C91   C92   S    
Cr11  O13   S    
C9    C14   D    
C58   O40   A    
C78   C79   A    
C25   C30   D    
C47   C51   S    
C5    C18   D    
C57   O35   A    
C85   C86   S    
Cr10  O25   S    
C17   H21   S    
C23   O16   A    
C3    C45   A    
C17   C21   S    
C82   C91   S    
C91   H66   S    
C47   H23   S    
C25   C64   S    
Cr8   O18   S    
C2    C89   A    
C15   C19   S    
C75   C76   A    
Cr7   O17   S    
C64   O50   A    
C29   C30   S    
C2    C78   A    
Cr6   O16   S    
C8    C57   S    
C22   C62   S    
C11   C16   D    
C54   O32   A    
C68   O6    A    
C16   C20   S    
C63   O2    A    
C93   H61   S    
C8    C21   D    
C37   H2    S    
Cr1   O36   S    
C46   H12   S    
C35   H8    S    
C86   H47   S    
C37   C60   S    
C51   H67   S    
C16   H20   S    
C32   C50   D    
C38   C47   D    
C81   C87   S    
C42   O25   A    
Cr2   O6    S    
C7    C55   S    
C9    H27   S    
C95   H71   S    
C39   H4    S    
C88   C90   S    
C22   H41   S    
C82   C83   A    
C24   C63   S    
C74   C79   A    
C35   C70   S    
C9    C34   S    
C20   H25   S    
Cr12  O5    S    
C36   C44   D    
C1    C13   S    
C36   C61   S    
C21   H26   S    
C29   H38   S    
Cr12  O27   S    
C48   H34   S    
Cr5   O10   S    
Cr6   O38   S    
Cr9   O24   S    
C74   C82   A    
Cr5   O37   S    
C19   H24   S    
Cr11  O51   S    
C35   C52   D    
C84   H50   S    
C96   H68   S    
C26   C65   S    
Cr9   O49   S    
Cr1   O14   S    
C65   O51   A    
C10   H28   S    
C80   C81   A    
Cr2   O32   S    
C11   C12   S    
Cr5   O15   S    
Cr10  O11   S    
C10   C23   S    
C33   C51   D    
C88   H55   S    
C70   O39   A    
C46   C50   S    
C14   H18   S    
Cr1   O40   S    
C13   C17   D    
C23   O20   A    
C45   C75   A    
C32   H6    S    
Cr9   O46   S    
C41   O24   A    
C11   H29   S    
C55   O23   A    
Cr2   O2    S    
C42   O29   A    
Cr4   O13   S    
C32   C68   S    
Cr3   O7    S    
C83   C94   S    
C27   H36   S    
Cr8   O45   S    
C86   H46   S    
C33   H7    S    
Cr2   O28   S    
C92   H64   S    
C72   C76   A    
C39   C58   S    
C92   C93   S    
C12   O15   A    
C31   H5    S    
Cr2   O10   S    
C8    H35   S    
C60   O42   A    
C90   H52   S    
C94   C95   S    
C59   O41   A    
C45   H9    S    
Cr11  O21   S    
C64   O3    A    
C18   H22   S    
Cr3   O29   S    
Cr7   O34   S    
Cr10  O20   S    
C38   C59   S    
C38   H3    S    
C95   H72   S    
C48   C52   S    
C40   C72   S    
C26   C29   D    
C72   C80   A    
C88   H57   S    
C57   O34   A    
C27   C28   S    
C73   C77   A    
C58   O44   A    
C15   H19   S    
C34   O17   A    
C96   H70   S    
Cr12  O9    S    
C43   O30   A    
C67   H11   S    
C85   H48   S    
C3    C4    A    
C39   C48   D    
C71   C81   A    
