data_mof_unit_50196.cif
_audit_creation_date              2012-10-26T20:03:20-0400
_audit_creation_method            fapswitch 2.2
_symmetry_space_group_name_H-M    P1
_symmetry_Int_Tables_number       1
_space_group_crystal_system       triclinic
_cell_length_a                    10.627745
_cell_length_b                    12.427464
_cell_length_c                    13.249742
_cell_angle_alpha                 117.248582
_cell_angle_beta                  76.662848
_cell_angle_gamma                 101.420277
_cell_volume                      1505.15669199

loop_
_atom_site_label
_atom_site_type_symbol
_atom_type_description
_atom_site_fract_x
_atom_site_fract_y
_atom_site_fract_z
_atom_type_partial_charge
Br1   Br    Br    0.872679 0.355768 0.222116 -0.354387
Br2   Br    Br    0.216065 0.884516 0.730178 -0.306062
Br3   Br    Br    0.061516 0.604814 0.661877 -0.346216
Br4   Br    Br    0.167870 0.983278 0.256720 -0.315142
Br5   Br    Br    0.496268 0.018053 0.885161 -0.318951
Br6   Br    Br    0.246454 0.411965 0.266141 -0.340424
Br7   Br    Br    0.455499 0.215294 0.156492 -0.336999
C1    C     C_R   0.510029 0.854389 0.286514 0.557702
C2    C     C_R   0.538802 0.560583 0.016310 -0.007503
C3    C     C_R   0.480524 0.642770 0.125376 -0.024809
C4    C     C_R   0.739999 0.000868 0.501129 0.545222
C5    C     C_R   0.505503 0.434594 0.984709 -0.027197
C6    C     C_R   0.450068 0.392341 0.069358 0.005934
C7    C     C_R   0.379240 0.472560 0.172053 0.187781
C8    C     C_R   0.384054 0.594744 0.192075 0.130759
C9    C     C_R   0.508809 0.350984 0.870065 -0.126312
C10   C     C_R   0.476717 0.184408 0.923223 0.197530
C11   C     C_R   0.518544 0.769630 0.162731 -0.010089
C12   C     C_3   0.040759 0.106143 0.588291 -0.137328
C13   C     C_R   0.717234 0.350658 0.331739 0.165539
C14   C     C_R   0.305854 0.744632 0.624594 0.351396
C15   C     C_R   0.242741 0.629510 0.608701 0.179190
C16   C     C_R   0.489263 0.144678 0.713737 0.572091
C17   C     C_R   0.310878 0.528428 0.546262 -0.076543
C18   C     C_R   0.444716 0.541331 0.508486 -0.010273
C19   C     C_R   0.494667 0.653025 0.500902 0.153306
C20   C     C_R   0.524407 0.442422 0.462210 0.004620
C21   C     C_R   0.640622 0.448250 0.386392 0.026652
C22   C     C_R   0.678030 0.551771 0.365114 -0.124165
C23   C     C_3   0.929841 0.011002 0.604564 -0.116103
C24   C     C_R   0.608301 0.651965 0.422375 -0.086126
C25   C     C_R   0.497812 0.342085 0.492810 0.219144
C26   C     C_R   0.680685 0.248611 0.355871 0.263278
C27   C     C_R   0.259465 0.001175 0.501822 0.594916
C28   C     C_3   0.957552 0.898184 0.417499 -0.109245
C29   C     C_3   0.012968 0.906576 0.519497 -0.108787
C30   C     C_3   0.121916 0.001762 0.503081 0.035550
C31   C     C_3   0.067519 0.993707 0.402400 0.179896
C32   C     C_3   0.985180 0.098188 0.486600 -0.078414
C33   C     C_3   0.876846 0.002560 0.502633 -0.002168
C34   C     C_R   0.454074 0.268052 0.040297 0.233545
C35   C     C_R   0.489588 0.225955 0.837416 -0.020415
C36   C     C_R   0.588081 0.812288 0.082434 -0.090097
C37   C     C_R   0.644301 0.732388 0.974346 0.133326
C38   C     C_R   0.630258 0.607098 0.944659 0.105583
Cu1   Cu    Cu3+1 0.529830 0.098270 0.475420 1.073072
Cu2   Cu    Cu3+1 0.470170 0.901730 0.524580 1.050798
H1    H     H_    0.025901 0.828304 0.533684 0.198977
H2    H     H_    0.870059 0.018035 0.687585 0.181979
H3    H     H_    0.521236 0.384676 0.806137 0.191904
H4    H     H_    0.608976 0.908940 0.106766 0.195701
H5    H     H_    0.763640 0.558740 0.305060 0.174318
H6    H     H_    0.920864 0.813364 0.347446 0.149257
H7    H     H_    0.256923 0.439494 0.523666 0.196322
H8    H     H_    0.643329 0.723484 0.396748 0.171672
H9    H     H_    0.972093 0.176749 0.472928 0.189023
H10   H     H_    0.076696 0.190978 0.658632 0.177343
I1    I     I_    0.773569 0.500228 0.811883 -0.209580
I2    I     I_    0.761609 0.811109 0.866686 -0.107358
I3    I     I_    0.215510 0.687440 0.284917 -0.204680
I4    I     I_    0.797639 0.100143 0.258168 -0.123344
I5    I     I_    0.353909 0.354853 0.641576 -0.301051
N1    N     N_R   0.575030 0.246270 0.438190 -0.245534
N2    N     N_R   0.425760 0.754330 0.561190 -0.250002
O1    O     O_R   0.537510 0.972500 0.318130 -0.474384
O2    O     O_R   0.487140 0.806530 0.359650 -0.524314
O3    O     O_R   0.708330 0.082950 0.479220 -0.490816
O4    O     O_R   0.657960 0.916980 0.520740 -0.526141
O5    O     O_R   0.512860 0.193470 0.640350 -0.495507
O6    O     O_R   0.462490 0.027500 0.681870 -0.431704
O7    O     O_R   0.342040 0.083020 0.479260 -0.459221
O8    O     O_R   0.291670 0.917050 0.520780 -0.475930

loop_
_geom_bond_atom_site_label_1
_geom_bond_atom_site_label_2
_ccdc_geom_bond_type
C1    O2    A    
C27   O8    A    
C28   H6    S    
C27   C30   S    
C8    I3    S    
C16   O5    A    
C28   C29   S    
C6    C34   A    
C12   H10   S    
C2    C38   A    
C16   C35   S    
C29   C30   S    
C9    H3    S    
C3    C8    A    
C31   C32   S    
Br5   C10   S    
C37   I2    S    
C17   H7    S    
C19   N2    A    
C10   C35   A    
Cu1   O5    S    
C12   C30   S    
C5    C9    A    
C14   N2    A    
C2    C3    A    
Cu2   O2    S    
C1    O1    A    
C14   C15   A    
C16   O6    A    
C4    O3    A    
C38   I1    S    
C28   C31   S    
C17   C18   A    
Cu1   O1    S    
Cu2   N2    S    
C13   C21   A    
C18   C19   A    
C1    C11   S    
C36   C37   A    
Cu2   O6    S    
C30   C31   S    
Br6   C7    S    
C32   H9    S    
C26   N1    A    
Br2   C14   S    
C23   C33   S    
Cu1   O7    S    
C12   C32   S    
C13   C26   A    
C23   H2    S    
Br4   C31   S    
C15   C17   A    
C9    C35   A    
Cu2   O4    S    
C32   C33   S    
C4    O4    A    
Cu1   Cu2   S    
C21   C22   A    
Br1   C13   S    
C20   C25   A    
C37   C38   A    
C25   N1    A    
C18   C20   A    
C23   C29   S    
Cu1   N1    S    
C28   C33   S    
C25   I5    S    
Cu1   O3    S    
C22   C24   A    
C11   C36   A    
C36   H4    S    
C3    C11   A    
C29   H1    S    
Br7   C34   S    
C4    C33   S    
C2    C5    A    
C10   C34   A    
Cu2   O8    S    
C19   C24   A    
C5    C6    A    
C26   I4    S    
C20   C21   A    
C7    C8    A    
Br3   C15   S    
C24   H8    S    
C6    C7    A    
C12   C23   S    
C27   O7    A    
C22   H5    S    
