data_mof_unit_54847.cif
_audit_creation_date              2012-10-26T18:32:21-0400
_audit_creation_method            fapswitch 2.2
_symmetry_space_group_name_H-M    P1
_symmetry_Int_Tables_number       1
_space_group_crystal_system       triclinic
_cell_length_a                    12.370595
_cell_length_b                    13.110767
_cell_length_c                    15.891475
_cell_angle_alpha                 77.505623
_cell_angle_beta                  101.2346
_cell_angle_gamma                 116.538762
_cell_volume                      2236.96001526

loop_
_atom_site_label
_atom_site_type_symbol
_atom_type_description
_atom_site_fract_x
_atom_site_fract_y
_atom_site_fract_z
_atom_type_partial_charge
C1    C     C_R   0.855059 0.286214 0.507442 0.527305
C2    C     C_R   0.227659 0.837916 0.470506 -0.000678
C3    C     C_R   0.814465 0.082544 0.562948 -0.117204
C4    C     C_R   0.999630 0.499662 0.659532 0.544902
C5    C     C_R   0.734967 0.965907 0.579167 0.250646
C6    C     C_R   0.612306 0.930258 0.547793 -0.036227
C7    C     C_R   0.567041 0.008824 0.496652 -0.012090
C8    C     C_R   0.651431 0.123295 0.471562 -0.017560
C9    C     C_R   0.440996 0.977457 0.469201 -0.015082
C10   C     C_R   0.403054 0.057096 0.410866 0.054733
C11   C     C_R   0.489464 0.164598 0.377279 0.239760
C12   C     C_3   0.025720 0.398150 0.072069 -0.213085
C13   C     C_R   0.612541 0.195456 0.406423 -0.091020
C14   C     C_R   0.351146 0.869623 0.499236 -0.151378
C15   C     C_R   0.190670 0.920708 0.417058 0.213332
C16   C     C_R   0.144951 0.714367 0.487536 0.564648
C17   C     C_R   0.773328 0.162292 0.511393 -0.031300
C18   C     C_R   0.358748 0.344582 0.647798 0.308009
C19   C     C_R   0.758601 0.642944 0.381353 0.009133
C20   C     C_R   0.656013 0.662161 0.346541 -0.080469
C21   C     C_R   0.547163 0.598537 0.383638 0.242209
C22   C     C_R   0.545099 0.524182 0.464055 -0.001120
C23   C     C_3   0.999932 0.499709 0.083092 -0.013322
C24   C     C_R   0.651247 0.502900 0.493717 0.123010
C25   C     C_R   0.444496 0.470092 0.516198 -0.094329
C26   C     C_R   0.450316 0.390277 0.591805 0.016355
C27   C     C_R   0.546915 0.357306 0.610589 0.197883
C28   C     C_R   0.000230 0.500130 0.340478 0.556234
C29   C     C_R   0.647370 0.418035 0.564862 -0.083090
C30   C     C_R   0.340512 0.495123 0.499498 -0.014673
C31   C     C_R   0.255352 0.364376 0.623321 0.419007
C32   C     C_3   0.030463 0.399298 0.973813 0.415215
C33   C     C_3   0.874265 0.481903 0.934752 -0.185883
C34   C     C_3   0.103279 0.613817 0.044428 0.100318
C35   C     C_3   0.873601 0.484736 0.031804 0.098213
C36   C     C_1   0.000377 0.499818 0.250953 0.006022
C37   C     C_3   0.001943 0.500811 0.917207 0.140476
C38   C     C_3   0.096780 0.620710 0.943513 0.404288
C39   C     C_1   0.000227 0.499650 0.175459 -0.003759
C40   C     C_1   0.000086 0.500109 0.824614 0.127129
C41   C     C_1   0.999426 0.499801 0.749071 0.046902
C42   C     C_R   0.278571 0.027840 0.386349 -0.017178
Cu1   Cu    Cu3+1 0.098280 0.475420 0.519630 0.983998
Cu2   Cu    Cu3+1 0.901720 0.524580 0.480370 0.942163
H1    H     H_    0.555702 0.839572 0.563023 0.142961
H2    H     H_    0.248240 0.088616 0.343349 0.201480
H3    H     H_    0.374713 0.807350 0.545230 0.137873
H4    H     H_    0.907983 0.111238 0.592245 0.129198
H5    H     H_    0.862246 0.923432 0.645211 0.338727
H6    H     H_    0.966008 0.232569 0.979609 0.364005
H7    H     H_    0.677604 0.275753 0.375802 0.137155
H8    H     H_    0.089295 0.298458 0.647900 0.355164
H9    H     H_    0.614537 0.249911 0.676477 0.325857
H10   H     H_    0.450405 0.326128 0.757803 0.358478
H11   H     H_    0.334052 0.562361 0.449254 0.196488
H12   H     H_    0.721238 0.395238 0.587214 0.176036
H13   H     H_    0.840245 0.688688 0.349116 0.168583
H14   H     H_    0.381171 0.522798 0.336638 0.326641
H15   H     H_    0.658825 0.721251 0.286813 0.151677
H16   H     H_    0.847553 0.549106 0.893714 0.139769
H17   H     H_    0.756942 0.398592 0.116124 0.332918
H18   H     H_    0.854183 0.558730 0.035640 0.129757
H19   H     H_    0.271316 0.718870 0.941819 0.339537
H20   H     H_    0.125261 0.782863 0.906117 0.369849
H21   H     H_    0.191198 0.611027 0.074819 0.166281
H22   H     H_    0.803944 0.398355 0.915544 0.208261
H23   H     H_    0.953638 0.315227 0.098851 0.194620
H24   H     H_    0.209913 0.463945 0.995936 0.339050
H25   H     H_    0.111957 0.402617 0.111859 0.093347
H26   H     H_    0.025919 0.715760 0.044997 0.349616
H27   H     H_    0.026910 0.864131 0.443046 0.345589
H28   H     H_    0.523537 0.311536 0.301355 0.329153
N1    N     N_R   0.246300 0.438200 0.549400 -0.287861
N2    N     N_R   0.754300 0.561180 0.451130 -0.247691
O1    O     O_R   0.972520 0.318130 0.524690 -0.528723
O2    O     O_3   0.105120 0.712746 0.067252 -0.681976
O3    O     O_3   0.070703 0.899400 0.390859 -0.691552
O4    O     O_3   0.451875 0.238625 0.316467 -0.705763
O5    O     O_3   0.773427 0.885006 0.627997 -0.675990
O6    O     O_3   0.940843 0.294295 0.948685 -0.655988
O7    O     O_3   0.169302 0.314732 0.680721 -0.614053
O8    O     O_3   0.541270 0.263873 0.673234 -0.663754
O9    O     O_3   0.368338 0.282605 0.728701 -0.576062
O10   O     O_3   0.444488 0.603265 0.334564 -0.703422
O11   O     O_3   0.780217 0.381949 0.065997 -0.675534
O12   O     O_R   0.806530 0.359650 0.491530 -0.531268
O13   O     O_3   0.211586 0.646199 0.920165 -0.679432
O14   O     O_3   0.058398 0.706150 0.897721 -0.689796
O15   O     O_R   0.083030 0.479240 0.637150 -0.462633
O16   O     O_R   0.917040 0.520750 0.603990 -0.521759
O17   O     O_R   0.193470 0.640350 0.508470 -0.505159
O18   O     O_R   0.027480 0.681870 0.475310 -0.486887
O19   O     O_R   0.082960 0.479250 0.396010 -0.492669
O20   O     O_R   0.916970 0.520760 0.362850 -0.506422
O21   O     O_3   0.144436 0.409913 0.959123 -0.616120

loop_
_geom_bond_atom_site_label_1
_geom_bond_atom_site_label_2
_ccdc_geom_bond_type
Cu1   N1    S    
C12   H25   S    
C8    C13   A    
C6    H1    S    
C10   C42   A    
C11   C13   A    
C19   C20   A    
C18   C26   A    
Cu1   Cu2   S    
C7    C8    A    
C19   H13   S    
C12   C23   S    
C26   C27   A    
Cu1   O15   S    
C37   C40   S    
C5    C6    A    
C31   N1    A    
C27   C29   A    
C4    C41   S    
C3    H4    S    
C25   C30   A    
C28   O20   A    
C42   H2    S    
C24   C29   A    
H28   O4    S    
Cu1   O19   S    
C13   H7    S    
C22   C25   A    
C5    O5    S    
C2    C16   S    
C9    C10   A    
Cu2   O18   S    
C21   C22   A    
C12   C32   S    
Cu2   O12   S    
C34   H21   S    
H10   O9    S    
C33   H22   S    
C4    O16   A    
C27   O8    S    
Cu1   O1    S    
C12   H23   S    
H24   O21   S    
C1    O1    A    
C30   N1    A    
C25   C26   A    
C33   C37   S    
H5    O5    S    
C38   O14   S    
H9    O8    S    
C9    C14   A    
C37   C38   S    
C11   O4    S    
H14   O10   S    
C32   O6    S    
C21   O10   S    
C23   C34   S    
C18   O9    S    
C32   C37   S    
C20   H15   S    
Cu2   N2    S    
C2    C15   A    
C14   H3    S    
H17   O11   S    
C40   C41   T    
C16   O18   A    
C33   H16   S    
C23   C35   S    
H26   O2    S    
C22   C24   A    
H27   O3    S    
Cu2   O16   S    
C4    O15   A    
C1    O12   A    
C7    C9    A    
H19   O13   S    
C34   C38   S    
C36   C39   T    
C15   C42   A    
C3    C5    A    
H6    O6    S    
C6    C7    A    
C29   H12   S    
C30   H11   S    
C1    C17   S    
C8    C17   A    
C31   O7    S    
C38   O13   S    
C35   O11   S    
C24   N2    A    
C15   O3    S    
C23   C39   S    
C33   C35   S    
C3    C17   A    
C35   H18   S    
C19   N2    A    
H8    O7    S    
C2    C14   A    
Cu1   O17   S    
Cu2   O20   S    
C10   C11   A    
C32   O21   S    
C20   C21   A    
C28   C36   S    
C16   O17   A    
C28   O19   A    
C18   C31   A    
H20   O14   S    
C34   O2    S    
