data_mof_unit_39171.cif
_audit_creation_date              2012-12-10T20:52:42-0500
_audit_creation_method            fapswitch 2.2
_symmetry_space_group_name_H-M    P1
_symmetry_Int_Tables_number       1
_space_group_crystal_system       triclinic
_cell_length_a                    8.438005
_cell_length_b                    15.822028
_cell_length_c                    15.05774
_cell_angle_alpha                 89.447237
_cell_angle_beta                  98.625147
_cell_angle_gamma                 89.860449
_cell_volume                      1987.46088609

loop_
_atom_site_label
_atom_site_type_symbol
_atom_type_description
_atom_site_fract_x
_atom_site_fract_y
_atom_site_fract_z
_atom_type_partial_charge
C1    C     C_R   0.500000 0.338821 0.500489 0.899879
C2    C     C_R   0.499835 0.661217 0.499514 0.916131
C3    C     C_R   0.500010 0.499383 0.905049 0.051059
C4    C     C_R   0.500000 0.499424 0.094963 0.049763
C5    C     C_R   0.644731 0.498934 0.965277 -0.154293
C6    C     C_R   0.355279 0.499700 0.034736 -0.151200
C7    C     C_1   0.500041 0.499700 0.807205 0.160008
C8    C     C_1   0.499965 0.499749 0.192800 0.163160
C9    C     C_R   0.203023 0.484773 0.477386 0.873095
C10   C     C_R   0.797101 0.484612 0.522946 0.872394
C11   C     C_2   0.040606 0.455644 0.465086 0.096499
C12   C     C_2   0.960052 0.455640 0.535943 0.094508
C13   C     C_R   0.632616 0.956363 0.548104 0.255481
C14   C     C_R   0.361636 0.044206 0.454822 0.295853
C15   C     C_R   0.509830 0.914141 0.491702 -0.251169
C16   C     C_R   0.485003 0.086400 0.510585 -0.237704
C17   C     C_R   0.380199 0.957247 0.440427 0.231582
C18   C     C_R   0.614154 0.043398 0.562212 0.283572
C19   C     C_1   0.506410 0.824660 0.494827 0.228489
C20   C     C_1   0.489958 0.175707 0.506052 0.242071
C21   C     C_1   0.495174 0.250519 0.502145 0.010730
C22   C     C_1   0.502845 0.749703 0.497940 -0.036012
C23   C     C_R   0.355280 0.499669 0.940937 -0.086938
C24   C     C_R   0.644730 0.498945 0.059076 -0.088520
H1    H     H_    0.241886 0.500002 0.060252 0.147412
H2    H     H_    0.758123 0.498639 0.939760 0.146465
N1    N     N_1   0.499960 0.500020 0.270540 -0.049228
N2    N     N_1   0.500040 0.499980 0.729460 -0.050598
O1    O     O_R   0.500000 0.378020 0.573650 -0.583163
O2    O     O_R   0.500000 0.621980 0.426350 -0.587704
O3    O     O_R   0.500070 0.378020 0.426320 -0.592265
O4    O     O_R   0.499930 0.621980 0.573680 -0.600949
O5    O     O_R   0.271720 0.500000 0.556430 -0.566747
O6    O     O_R   0.728280 0.500000 0.443570 -0.566027
O7    O     O_R   0.271790 0.500000 0.409110 -0.597672
O8    O     O_R   0.728210 0.500000 0.590890 -0.597942
Zn1   Zn    Zn3+2 0.499950 0.500000 0.598370 1.096647
Zn2   Zn    Zn3+2 0.500050 0.500000 0.401630 1.100590
S1    S     S_3+6 0.958976 0.417078 0.356855 0.076230
O9    O     O_2   0.823587 0.356951 0.363709 -0.236149
O10   O     O_2   0.898183 0.490135 0.296509 -0.326661
O11   O     O_3   0.102244 0.365291 0.312094 -0.480093
H3    H     H_    0.134648 0.404071 0.266055 0.365851
S2    S     S_3+6 0.042478 0.417527 0.645166 0.076989
O12   O     O_2   0.178691 0.357295 0.639806 -0.210975
O13   O     O_2   0.102345 0.490826 0.703537 -0.326345
O14   O     O_3   0.900092 0.366048 0.691423 -0.514183
H4    H     H_    0.867708 0.404907 0.736729 0.364480
S3    S     S_3+6 0.742650 0.099400 0.647231 0.130433
O15   O     O_2   0.803392 0.042623 0.725582 -0.152197
O16   O     O_2   0.881949 0.134398 0.607238 -0.208790
O17   O     O_3   0.643071 0.179864 0.686381 -0.530387
H5    H     H_    0.725971 0.212164 0.725475 0.408122
S4    S     S_3+6 0.251405 0.901802 0.355097 0.119611
O18   O     O_2   0.112763 0.866118 0.395082 -0.192489
O19   O     O_2   0.188684 0.958966 0.277411 -0.171883
O20   O     O_3   0.349353 0.821506 0.314575 -0.528646
H6    H     H_    0.438160 0.848575 0.288786 0.366844
S5    S     S_3+6 0.809342 0.899348 0.596265 0.126503
O21   O     O_2   0.783931 0.864337 0.686140 -0.194254
O22   O     O_2   0.841515 0.826862 0.537502 -0.293958
O23   O     O_3   0.973206 0.960932 0.610146 -0.417870
H7    H     H_    0.005878 0.965555 0.549872 0.398386
S6    S     S_3+6 0.184037 0.101312 0.408214 0.122390
O24   O     O_2   0.153420 0.172616 0.468837 -0.242477
O25   O     O_2   0.207458 0.137370 0.318416 -0.213004
O26   O     O_3   0.021033 0.039142 0.395399 -0.484864
H8    H     H_    0.930309 0.077323 0.372983 0.395711
H9    H     H_    0.241887 0.499941 0.896373 0.177952
H10   H     H_    0.758123 0.498645 0.103640 0.178464

loop_
_geom_bond_atom_site_label_1
_geom_bond_atom_site_label_2
_ccdc_geom_bond_type
C2    C22   S    
C15   C19   S    
C11   C12   D    
O3    Zn2   S    
C1    C21   S    
O23   H7    S    
C13   S5    S    
C23   H9    S    
C3    C23   A    
O14   H4    S    
S2    O14   S    
C4    C8    S    
C16   C20   S    
S3    O17   S    
C14   S6    S    
S6    O24   D    
O7    Zn2   S    
C1    O1    A    
C24   H10   S    
S5    O21   D    
S1    O10   D    
C16   C18   A    
O4    Zn1   S    
S2    O12   D    
C9    O5    A    
C9    C11   S    
C14   C17   A    
O20   H6    S    
C5    C24   A    
C10   C12   S    
N2    Zn1   S    
C6    C23   A    
C13   C18   A    
C4    C6    A    
O8    Zn1   S    
S2    O13   D    
S1    O11   S    
S4    O19   D    
C13   C15   A    
C4    C24   A    
C14   C16   A    
S5    O22   D    
C6    H1    S    
O11   H3    S    
N1    Zn2   S    
C9    O7    A    
O26   H8    S    
C10   O6    A    
S6    O26   S    
C11   S1    S    
C1    O3    A    
C19   C22   T    
C2    O2    A    
C20   C21   T    
O2    Zn2   S    
C2    O4    A    
S3    O15   D    
O1    Zn1   S    
S1    O9    D    
C15   C17   A    
C8    N1    T    
S4    O18   D    
C12   S2    S    
S5    O23   S    
C10   O8    A    
C3    C7    S    
C3    C5    A    
O6    Zn2   S    
C17   S4    S    
O5    Zn1   S    
C7    N2    T    
C5    H2    S    
C18   S3    S    
O17   H5    S    
S3    O16   D    
S4    O20   S    
S6    O25   D    
