data_mof_unit_19202.cif
_audit_creation_date              2012-12-11T15:17:49-0500
_audit_creation_method            fapswitch 2.2
_symmetry_space_group_name_H-M    P1
_symmetry_Int_Tables_number       1
_space_group_crystal_system       triclinic
_cell_length_a                    15.687403
_cell_length_b                    15.695538
_cell_length_c                    34.484677
_cell_angle_alpha                 90.126029
_cell_angle_beta                  90.050424
_cell_angle_gamma                 120.004461
_cell_volume                      7352.96238695

loop_
_atom_site_label
_atom_site_type_symbol
_atom_type_description
_atom_site_fract_x
_atom_site_fract_y
_atom_site_fract_z
_atom_type_partial_charge
C1    C     C_R   0.575920 0.443755 0.553648 0.601943
C2    C     C_R   0.557149 0.133303 0.554102 0.588567
C3    C     C_R   0.866192 0.423515 0.554302 0.598722
C4    C     C_R   0.442842 0.576736 0.054234 0.596616
C5    C     C_R   0.135270 0.558067 0.054689 0.585966
C6    C     C_R   0.423014 0.865069 0.054582 0.582071
C7    C     C_R   0.999885 0.484478 0.709705 0.321442
C8    C     C_R   0.500362 0.506754 0.707600 0.352726
C9    C     C_R   0.500391 0.999730 0.708912 0.347606
C10   C     C_R   0.465136 0.994614 0.210389 0.322038
C11   C     C_R   0.513253 0.533229 0.211633 0.350280
C12   C     C_R   0.011038 0.471079 0.210675 0.343758
C13   C     C_R   0.005205 0.422573 0.853833 -0.004095
C14   C     C_R   0.566341 0.578347 0.850769 0.010185
C15   C     C_R   0.424276 0.992914 0.851573 0.001481
C16   C     C_R   0.415945 0.999026 0.356163 -0.003349
C17   C     C_R   0.569365 0.582656 0.357630 0.003782
C18   C     C_R   0.007189 0.422146 0.357078 0.000827
C19   C     C_R   0.027392 0.437489 0.893906 -0.008804
C20   C     C_R   0.555507 0.587533 0.891087 -0.015527
C21   C     C_R   0.411656 0.968566 0.891474 -0.008066
C22   C     C_R   0.435358 0.021453 0.396069 -0.008214
C23   C     C_R   0.577320 0.562434 0.397061 -0.005774
C24   C     C_R   0.982188 0.419234 0.396643 -0.005372
C25   C     C_R   0.078348 0.611804 0.886628 0.102333
C26   C     C_R   0.378235 0.472054 0.885284 0.130038
C27   C     C_R   0.533452 0.914703 0.886315 0.104442
C28   C     C_R   0.611001 0.085033 0.384533 0.103774
C29   C     C_R   0.476258 0.385826 0.383792 0.102986
C30   C     C_R   0.901284 0.514480 0.381995 0.103097
C31   C     C_R   0.054331 0.596213 0.847063 0.148424
C32   C     C_R   0.389179 0.463973 0.845233 0.116388
C33   C     C_R   0.543274 0.936141 0.846558 0.142923
C34   C     C_R   0.590907 0.059068 0.345238 0.153292
C35   C     C_R   0.468460 0.406200 0.344789 0.150568
C36   C     C_R   0.926291 0.517411 0.342780 0.150068
C37   C     C_R   0.025024 0.503756 0.830190 -0.013775
C38   C     C_R   0.481927 0.521365 0.827727 -0.018770
C39   C     C_R   0.485287 0.970286 0.828993 -0.009071
C40   C     C_R   0.495151 0.024265 0.330533 -0.015161
C41   C     C_R   0.520854 0.503687 0.331287 -0.013123
C42   C     C_R   0.973048 0.465705 0.330065 -0.011891
C43   C     C_R   0.074547 0.534650 0.909394 -0.029363
C44   C     C_R   0.459884 0.540837 0.907756 -0.032148
C45   C     C_R   0.460078 0.921254 0.908298 -0.038545
C46   C     C_R   0.534381 0.074932 0.409374 -0.030832
C47   C     C_R   0.538949 0.463418 0.409284 -0.037128
C48   C     C_R   0.921261 0.457618 0.408542 -0.036277
C49   C     C_R   0.577317 0.442128 0.445351 0.573974
C50   C     C_R   0.557290 0.134668 0.445499 0.574880
C51   C     C_R   0.864374 0.422144 0.445254 0.575423
C52   C     C_R   0.442065 0.577406 0.945191 0.584976
C53   C     C_R   0.134387 0.557147 0.945547 0.581858
C54   C     C_R   0.422606 0.864715 0.945214 0.571537
C55   C     C_R   0.929464 0.462470 0.589628 -0.067264
C56   C     C_R   0.535168 0.470880 0.587651 -0.060241
C57   C     C_R   0.532868 0.067986 0.588784 -0.072112
C58   C     C_R   0.459731 0.924209 0.090777 -0.091812
C59   C     C_R   0.466340 0.540449 0.090284 -0.057288
C60   C     C_R   0.075729 0.534949 0.090793 -0.069640
C61   C     C_R   0.980476 0.415440 0.604016 0.059227
C62   C     C_R   0.587613 0.566684 0.604204 0.039539
C63   C     C_R   0.437372 0.023201 0.605571 0.028668
C64   C     C_R   0.422863 0.986455 0.102345 0.045590
C65   C     C_R   0.563995 0.587798 0.104965 0.058503
C66   C     C_R   0.015825 0.435409 0.102419 0.038824
C67   C     C_R   0.006986 0.425481 0.643604 0.099238
C68   C     C_R   0.572414 0.579812 0.643732 0.093083
C69   C     C_R   0.425402 0.995241 0.645010 0.096279
C70   C     C_R   0.427324 0.012606 0.141811 0.097193
C71   C     C_R   0.579546 0.582040 0.145014 0.106682
C72   C     C_R   0.992412 0.413568 0.142157 0.096371
C73   C     C_R   0.985376 0.484251 0.667910 0.006682
C74   C     C_R   0.504721 0.498104 0.665489 0.020970
C75   C     C_R   0.507985 0.011503 0.666834 0.021857
C76   C     C_R   0.467508 0.975719 0.169084 0.028193
C77   C     C_R   0.497983 0.532212 0.169760 0.017420
C78   C     C_R   0.026788 0.491259 0.169174 0.017544
C79   C     C_R   0.949028 0.542790 0.652405 0.087729
C80   C     C_R   0.440154 0.408224 0.647020 0.074270
C81   C     C_R   0.597683 0.037732 0.648401 0.084530
C82   C     C_R   0.514249 0.923407 0.156943 0.103280
C83   C     C_R   0.402118 0.475791 0.154387 0.074150
C84   C     C_R   0.070354 0.589477 0.156526 0.083556
C85   C     C_R   0.925427 0.535452 0.612718 0.030313
C86   C     C_R   0.450609 0.397344 0.606989 0.028178
C87   C     C_R   0.608862 0.061580 0.608720 0.041078
C88   C     C_R   0.516267 0.903685 0.117298 -0.025803
C89   C     C_R   0.388231 0.472490 0.113989 0.026028
C90   C     C_R   0.092354 0.611388 0.117116 0.029246
C91   C     C_R   0.016930 0.494413 0.787680 0.379069
C92   C     C_R   0.490160 0.517913 0.785420 0.372298
C93   C     C_R   0.489076 0.980923 0.786727 0.391647
C94   C     C_R   0.480345 0.015562 0.288213 0.378358
C95   C     C_R   0.524325 0.520249 0.289298 0.390375
C96   C     C_R   0.986008 0.459513 0.288238 0.390232
Cr1   Cr    Cr6+3 0.522350 0.263930 0.500020 1.088782
Cr2   Cr    Cr6+3 0.736070 0.258420 0.500020 1.086565
Cr3   Cr    Cr6+3 0.741580 0.477650 0.500020 1.075768
Cr4   Cr    Cr6+3 0.263930 0.522350 0.000020 1.103662
Cr5   Cr    Cr6+3 0.258420 0.736070 0.000020 1.097236
Cr6   Cr    Cr6+3 0.477650 0.741580 0.000020 1.090936
N1    N     N_R   0.935565 0.420555 0.770525 -0.199062
N2    N     N_R   0.539130 0.475952 0.769353 -0.208556
N3    N     N_R   0.527618 0.071067 0.770337 -0.207305
N4    N     N_R   0.406562 0.932522 0.271990 -0.200362
N5    N     N_R   0.488014 0.574921 0.273805 -0.209528
N6    N     N_R   0.077321 0.496856 0.272986 -0.206945
N7    N     N_R   0.927334 0.415528 0.732109 -0.221868
N8    N     N_R   0.544068 0.470459 0.731017 -0.251673
N9    N     N_R   0.533373 0.080276 0.731974 -0.239721
N10   N     N_R   0.398956 0.922394 0.233660 -0.218989
N11   N     N_R   0.482668 0.581279 0.235527 -0.268516
N12   N     N_R   0.089552 0.502454 0.234768 -0.270405
N13   N     N_R   0.081579 0.557863 0.726703 -0.225706
N14   N     N_R   0.452479 0.549926 0.723598 -0.198147
N15   N     N_R   0.461609 0.909529 0.725244 -0.189183
N16   N     N_R   0.537825 0.078345 0.226454 -0.228120
N17   N     N_R   0.550959 0.479836 0.227071 -0.195978
N18   N     N_R   0.919496 0.431513 0.225857 -0.184478
N19   N     N_R   0.090068 0.562480 0.765103 -0.172336
N20   N     N_R   0.447401 0.555304 0.761973 -0.204192
N21   N     N_R   0.456462 0.900367 0.763638 -0.166599
N22   N     N_R   0.544873 0.088865 0.264764 -0.172735
N23   N     N_R   0.556236 0.473351 0.265331 -0.179311
N24   N     N_R   0.907245 0.425927 0.264089 -0.172900
O1    O     O_R   0.498680 0.159540 0.541860 -0.471533
O2    O     O_R   0.840460 0.339140 0.541860 -0.471603
O3    O     O_R   0.660860 0.501320 0.541860 -0.467149
O4    O     O_R   0.159540 0.498680 0.041860 -0.476755
O5    O     O_R   0.339140 0.840460 0.041860 -0.458957
O6    O     O_R   0.501320 0.660860 0.041860 -0.448541
O7    O     O_R   0.532760 0.358060 0.540030 -0.480670
O8    O     O_R   0.641940 0.174700 0.540030 -0.476665
O9    O     O_R   0.825300 0.467240 0.540030 -0.477357
O10   O     O_R   0.358060 0.532760 0.040030 -0.486416
O11   O     O_R   0.174700 0.641940 0.040030 -0.473913
O12   O     O_R   0.467240 0.825300 0.040030 -0.490769
O13   O     O_R   0.498590 0.161190 0.456930 -0.507941
O14   O     O_R   0.838810 0.337400 0.456930 -0.508707
O15   O     O_R   0.662600 0.501410 0.456930 -0.511915
O16   O     O_R   0.161190 0.498590 0.956930 -0.478360
O17   O     O_R   0.337400 0.838810 0.956930 -0.497640
O18   O     O_R   0.501410 0.662600 0.956930 -0.509996
O19   O     O_R   0.532680 0.359580 0.461300 -0.503859
O20   O     O_R   0.640420 0.173100 0.461300 -0.506250
O21   O     O_R   0.826900 0.467320 0.461300 -0.506421
O22   O     O_R   0.359580 0.532680 0.961300 -0.473827
O23   O     O_R   0.173100 0.640420 0.961300 -0.515333
O24   O     O_R   0.467320 0.826900 0.961300 -0.514150
O25   O     O_3   0.666667 0.333333 0.499990 -0.286116
O26   O     O_3   0.333333 0.666667 0.999990 -0.288119
C97   C     C_2   0.009746 0.359274 0.577549 0.621574
O27   O     O_2   0.012894 0.287390 0.589214 -0.481049
O28   O     O_R   0.036729 0.390706 0.539366 -0.635087
H1    H     H_    0.056464 0.347411 0.524546 0.363441
C98   C     C_2   0.652734 0.652723 0.579514 0.615028
O29   O     O_2   0.730915 0.719055 0.591997 -0.499645
O30   O     O_R   0.623571 0.657819 0.541689 -0.627211
H2    H     H_    0.673476 0.719606 0.527741 0.357640
C99   C     C_2   0.350002 0.002830 0.581881 0.615654
O31   O     O_2   0.341096 0.969676 0.549087 -0.482854
O32   O     O_R   0.277457 0.020126 0.597043 -0.691110
H3    H     H_    0.221143 0.001636 0.578219 0.341603
C100  C     C_2   0.381494 0.025595 0.073064 0.607667
O33   O     O_2   0.311296 0.036024 0.081065 -0.467230
O34   O     O_R   0.424262 0.051969 0.036321 -0.663237
H4    H     H_    0.391838 0.080632 0.019512 0.380511
C101  C     C_2   0.648968 0.641845 0.078332 0.624920
O35   O     O_2   0.719600 0.720517 0.088104 -0.466774
O36   O     O_R   0.647259 0.602721 0.041681 -0.652404
H5    H     H_    0.708778 0.646063 0.026127 0.368357
C102  C     C_2   0.975349 0.355778 0.072661 0.598268
O37   O     O_2   0.946548 0.369612 0.041622 -0.474710
O38   O     O_R   0.970056 0.265643 0.079775 -0.721360
H6    H     H_    0.941255 0.218295 0.057119 0.345594
C103  C     C_2   0.901747 0.607688 0.595315 0.641941
O39   O     O_2   0.841482 0.624565 0.610564 -0.492634
O40   O     O_R   0.949570 0.657085 0.561396 -0.667481
H7    H     H_    0.927162 0.704026 0.552140 0.343492
C104  C     C_2   0.368372 0.316459 0.584540 0.629938
O41   O     O_2   0.351642 0.331891 0.551405 -0.498065
O42   O     O_R   0.307377 0.224685 0.601297 -0.647567
H8    H     H_    0.252456 0.178449 0.583261 0.352189
C105  C     C_2   0.698534 0.075912 0.588348 0.618259
O43   O     O_2   0.690837 0.037036 0.556757 -0.506782
O44   O     O_R   0.791057 0.130702 0.605681 -0.639290
H9    H     H_    0.844795 0.130025 0.589658 0.367644
C106  C     C_2   0.582275 0.866983 0.103637 0.654610
O45   O     O_2   0.576837 0.793418 0.117884 -0.471912
O46   O     O_R   0.651918 0.916474 0.074608 -0.628059
H10   H     H_    0.653000 0.978417 0.065592 0.293834
C107  C     C_2   0.296278 0.392075 0.096311 0.634315
O47   O     O_2   0.301561 0.350257 0.067197 -0.490037
O48   O     O_R   0.204525 0.362281 0.112917 -0.690312
H11   H     H_    0.149085 0.305841 0.098187 0.364183
C108  C     C_2   0.131493 0.714632 0.104395 0.627290
O49   O     O_2   0.093867 0.732560 0.076850 -0.486405
O50   O     O_R   0.207650 0.791519 0.125206 -0.668974
H12   H     H_    0.221970 0.858256 0.115591 0.362789
C109  C     C_2   0.002963 0.352132 0.919624 0.623004
O51   O     O_2   0.022769 0.289075 0.909849 -0.515350
O52   O     O_R   0.958426 0.345213 0.955455 -0.630578
H13   H     H_    0.945612 0.284397 0.970411 0.354553
C110  C     C_2   0.643713 0.648374 0.915585 0.628676
O53   O     O_2   0.653779 0.615888 0.946381 -0.477875
O54   O     O_R   0.714322 0.742891 0.903697 -0.681897
H14   H     H_    0.770389 0.776876 0.922963 0.337456
C111  C     C_2   0.345773 0.990380 0.915183 0.634364
O55   O     O_2   0.374928 0.033384 0.946159 -0.485793
O56   O     O_R   0.250613 0.961430 0.902179 -0.682383
H15   H     H_    0.213102 0.980353 0.920940 0.339581
C112  C     C_2   0.352803 0.990468 0.424040 0.628227
O57   O     O_2   0.283157 0.002172 0.416494 -0.506107
O58   O     O_R   0.355774 0.948488 0.459337 -0.630074
H16   H     H_    0.294611 0.928205 0.475452 0.374624
C113  C     C_2   0.626298 0.644346 0.425551 0.632376
O59   O     O_2   0.588011 0.637878 0.457085 -0.454879
O60   O     O_R   0.715783 0.728212 0.416515 -0.689200
H17   H     H_    0.741316 0.778231 0.438384 0.335104
C114  C     C_2   0.017630 0.374065 0.425592 0.637574
O61   O     O_2   0.056731 0.418683 0.455448 -0.460998
O62   O     O_R   0.005608 0.280763 0.418918 -0.681647
H18   H     H_    0.032414 0.258165 0.440913 0.337044
N25   N     N_2   0.055623 0.376488 0.658828 -0.461091
H19   H     H_    0.030995 0.344732 0.685647 0.277650
C115  C     C_3   0.161884 0.433039 0.656609 -0.245202
H20   H     H_    0.193204 0.387179 0.666553 0.163385
H21   H     H_    0.190772 0.499338 0.675434 0.162921
H22   H     H_    0.185936 0.455926 0.626248 0.183777
N26   N     N_2   0.618927 0.675146 0.661273 -0.489582
H23   H     H_    0.624574 0.730856 0.643760 0.271568
C116  C     C_3   0.707728 0.701756 0.683057 -0.255784
H24   H     H_    0.765610 0.704447 0.663799 0.214959
H25   H     H_    0.692910 0.648417 0.706688 0.173661
H26   H     H_    0.735444 0.775422 0.696417 0.142671
N27   N     N_2   0.330064 0.944446 0.662334 -0.482117
H27   H     H_    0.273075 0.894039 0.645228 0.286917
C117  C     C_3   0.304134 0.999961 0.688599 -0.249818
H28   H     H_    0.249893 0.015890 0.674588 0.177543
H29   H     H_    0.369452 0.070556 0.697392 0.153478
H30   H     H_    0.270423 0.955696 0.715056 0.185383
N28   N     N_2   0.389295 0.074079 0.153989 -0.474582
H31   H     H_    0.353348 0.055498 0.180290 0.274002
C118  C     C_3   0.458164 0.178426 0.150699 -0.245141
H32   H     H_    0.420748 0.220313 0.158438 0.169580
H33   H     H_    0.485692 0.197602 0.120500 0.178477
H34   H     H_    0.521426 0.200496 0.170689 0.165616
N29   N     N_2   0.676630 0.623858 0.160643 -0.496044
H35   H     H_    0.727658 0.617274 0.144024 0.272209
C119  C     C_3   0.714463 0.716846 0.180912 -0.229399
H36   H     H_    0.776989 0.775920 0.164561 0.182292
H37   H     H_    0.741003 0.710619 0.210028 0.160931
H38   H     H_    0.657323 0.738217 0.184558 0.181968
N30   N     N_2   0.929037 0.315126 0.155021 -0.485330
H39   H     H_    0.872803 0.271024 0.136265 0.287046
C120  C     C_3   0.977600 0.266478 0.172150 -0.235517
H40   H     H_    0.026185 0.259205 0.150701 0.205202
H41   H     H_    0.921441 0.191838 0.181948 0.155870
H42   H     H_    0.021802 0.307824 0.197756 0.162101
N31   N     N_2   0.939548 0.612057 0.676267 -0.485860
H43   H     H_    0.999524 0.653709 0.693859 0.272345
C121  C     C_3   0.847111 0.572939 0.696854 -0.260586
H44   H     H_    0.840545 0.519040 0.719052 0.170125
H45   H     H_    0.783828 0.536678 0.676513 0.188663
H46   H     H_    0.844006 0.633909 0.711869 0.131076
N32   N     N_2   0.361234 0.331096 0.668120 -0.469565
H47   H     H_    0.328949 0.354498 0.688345 0.249264
C122  C     C_3   0.382293 0.257906 0.683533 -0.250050
H48   H     H_    0.438144 0.289683 0.706960 0.157675
H49   H     H_    0.409817 0.228450 0.660415 0.197870
H50   H     H_    0.313830 0.196309 0.695801 0.141985
N33   N     N_2   0.676354 0.038321 0.669468 -0.464433
H51   H     H_    0.688113 0.069005 0.696795 0.272093
C123  C     C_3   0.674804 0.945365 0.669182 -0.261378
H52   H     H_    0.608662 0.888302 0.684579 0.165817
H53   H     H_    0.741516 0.954110 0.684066 0.154900
H54   H     H_    0.674656 0.920738 0.638945 0.177820
N34   N     N_2   0.563911 0.894896 0.184242 -0.500073
H55   H     H_    0.603441 0.947073 0.205141 0.263506
C124  C     C_3   0.504589 0.797303 0.200377 -0.254558
H56   H     H_    0.443562 0.792721 0.218036 0.179322
H57   H     H_    0.551107 0.780355 0.219460 0.158292
H58   H     H_    0.472792 0.740755 0.177160 0.188604
N35   N     N_2   0.320433 0.417993 0.179155 -0.480234
H59   H     H_    0.335459 0.385631 0.202149 0.259285
C125  C     C_3   0.265136 0.465209 0.190598 -0.240265
H60   H     H_    0.310256 0.529952 0.209352 0.168278
H61   H     H_    0.199091 0.412255 0.207096 0.160900
H62   H     H_    0.240806 0.489930 0.164856 0.188486
N36   N     N_2   0.088947 0.666888 0.183093 -0.467851
H63   H     H_    0.122951 0.666755 0.208626 0.281620
C126  C     C_3   0.006792 0.683092 0.188794 -0.272288
H64   H     H_    0.945177 0.618700 0.203354 0.160405
H65   H     H_    0.980954 0.695892 0.160554 0.178746
H66   H     H_    0.030304 0.749131 0.207314 0.149246
C127  C     C_2   0.965020 0.323120 0.836407 0.632138
O63   O     O_2   0.886237 0.255343 0.847592 -0.498994
O64   O     O_R   0.017582 0.307355 0.807273 -0.680762
H67   H     H_    0.982705 0.236803 0.797651 0.338025
C128  C     C_2   0.665503 0.628592 0.832467 0.630350
O65   O     O_2   0.731781 0.618172 0.846014 -0.507306
O66   O     O_R   0.682653 0.687065 0.799618 -0.685152
H68   H     H_    0.752513 0.716337 0.789653 0.326120
C129  C     C_2   0.372559 0.040277 0.833172 0.630157
O67   O     O_2   0.378796 0.114516 0.847534 -0.495100
O68   O     O_R   0.317172 0.000132 0.799402 -0.690964
H69   H     H_    0.286316 0.039372 0.789544 0.326979
C130  C     C_2   0.313638 0.952554 0.341054 0.633402
O69   O     O_2   0.251450 0.871345 0.352655 -0.481637
O70   O     O_R   0.288832 0.001923 0.313563 -0.683070
H70   H     H_    0.217197 0.962762 0.305396 0.339349
C131  C     C_2   0.612540 0.685643 0.343701 0.631577
O71   O     O_2   0.590056 0.741610 0.359361 -0.490435
O72   O     O_R   0.678306 0.718219 0.312566 -0.690377
H71   H     H_    0.701860 0.789294 0.305591 0.326706
C132  C     C_2   0.066939 0.378072 0.343771 0.629663
O73   O     O_2   0.145699 0.401612 0.359428 -0.485721
O74   O     O_R   0.033187 0.310023 0.313275 -0.684991
H72   H     H_    0.080632 0.285983 0.306729 0.330312
N37   N     N_2   0.108584 0.706767 0.902281 -0.508072
H73   H     H_    0.181089 0.747059 0.910805 0.295105
C133  C     C_3   0.038151 0.713000 0.927441 -0.233580
H74   H     H_    0.065981 0.790951 0.935669 0.161631
H75   H     H_    0.026367 0.669358 0.954210 0.174561
H76   H     H_    0.966674 0.685214 0.912180 0.170901
N38   N     N_2   0.283112 0.416108 0.902377 -0.472705
H77   H     H_    0.224380 0.401002 0.884539 0.299976
C134  C     C_3   0.268695 0.331377 0.924291 -0.217324
H78   H     H_    0.197789 0.299646 0.940139 0.181923
H79   H     H_    0.328678 0.352525 0.945867 0.172309
H80   H     H_    0.266552 0.274398 0.904578 0.152464
N39   N     N_2   0.596816 0.883988 0.902879 -0.504925
H81   H     H_    0.563811 0.811727 0.911536 0.294431
C135  C     C_3   0.673854 0.954913 0.927918 -0.234366
H82   H     H_    0.723166 0.926504 0.936608 0.163997
H83   H     H_    0.642373 0.968580 0.954425 0.165084
H84   H     H_    0.718339 0.025574 0.912390 0.171495
N40   N     N_2   0.709827 0.125110 0.397658 -0.518499
H85   H     H_    0.743906 0.197165 0.406844 0.284623
C136  C     C_3   0.729315 0.059807 0.420710 -0.232913
H86   H     H_    0.809262 0.095935 0.427212 0.173022
H87   H     H_    0.707581 0.990688 0.404500 0.173166
H88   H     H_    0.688137 0.041629 0.448454 0.182263
N41   N     N_2   0.422954 0.286021 0.396019 -0.517523
H89   H     H_    0.464954 0.256613 0.405460 0.280585
C137  C     C_3   0.335063 0.259553 0.418299 -0.227049
H90   H     H_    0.295855 0.179451 0.424305 0.189738
H91   H     H_    0.284854 0.276793 0.401766 0.168181
H92   H     H_    0.353729 0.299972 0.446299 0.181885
N42   N     N_2   0.851401 0.565262 0.393318 -0.519298
H93   H     H_    0.781427 0.521740 0.403916 0.278672
C138  C     C_3   0.911134 0.657138 0.413685 -0.233487
H94   H     H_    0.867060 0.693317 0.419230 0.183607
H95   H     H_    0.975901 0.707372 0.395919 0.169998
H96   H     H_    0.937264 0.644524 0.441842 0.172888
N43   N     N_2   0.063434 0.675170 0.823537 -0.483928
H97   H     H_    0.117913 0.744457 0.831833 0.301296
C139  C     C_3   0.971341 0.671109 0.814579 -0.255122
H98   H     H_    0.938037 0.680850 0.841412 0.189062
H99   H     H_    0.918873 0.599827 0.800721 0.171193
H100  H     H_    0.984949 0.730979 0.794041 0.147135
N44   N     N_2   0.305069 0.398570 0.822757 -0.512543
H101  H     H_    0.291217 0.430874 0.799457 0.283600
C140  C     C_3   0.298327 0.305639 0.813070 -0.266243
H102  H     H_    0.224740 0.255401 0.800405 0.160131
H103  H     H_    0.307726 0.270436 0.839340 0.191029
H104  H     H_    0.355272 0.316460 0.791461 0.159542
N45   N     N_2   0.608882 0.919050 0.823485 -0.490386
H105  H     H_    0.615927 0.859864 0.831942 0.301148
C141  C     C_3   0.702710 0.005800 0.815549 -0.248040
H106  H     H_    0.745979 0.034304 0.842719 0.185256
H107  H     H_    0.692233 0.064234 0.802202 0.184439
H108  H     H_    0.744979 0.986691 0.794956 0.151287
N46   N     N_2   0.668296 0.071869 0.319786 -0.479783
H109  H     H_    0.737610 0.128362 0.326911 0.296230
C142  C     C_3   0.667374 0.981965 0.309480 -0.267091
H110  H     H_    0.681780 0.949461 0.335483 0.178085
H111  H     H_    0.725632 0.998337 0.287697 0.145372
H112  H     H_    0.595453 0.927617 0.296580 0.170935
N47   N     N_2   0.411332 0.327684 0.318314 -0.483994
H113  H     H_    0.407348 0.261562 0.324564 0.299348
C143  C     C_3   0.316773 0.316524 0.308033 -0.264214
H114  H     H_    0.267933 0.294375 0.333767 0.170372
H115  H     H_    0.281388 0.258721 0.285403 0.150741
H116  H     H_    0.325383 0.386128 0.296221 0.175420
N48   N     N_2   0.899706 0.568457 0.315391 -0.485457
H117  H     H_    0.836389 0.570238 0.321745 0.293701
C144  C     C_3   0.979621 0.663059 0.303192 -0.263028
H118  H     H_    0.007272 0.715112 0.328033 0.171340
H119  H     H_    0.952878 0.693809 0.280357 0.141601
H120  H     H_    0.041071 0.655776 0.290935 0.176284

loop_
_geom_bond_atom_site_label_1
_geom_bond_atom_site_label_2
_ccdc_geom_bond_type
N30   C120  S    
N43   H97   S    
C80   N32   S    
C134  H79   S    
C6    C58   S    
C36   C42   A    
N36   H63   S    
C7    C73   S    
N39   H81   S    
C124  H58   S    
C2    O8    A    
Cr6   O18   S    
C1    C56   S    
Cr6   O6    S    
C1    O3    A    
Cr4   O4    S    
C38   C92   S    
C63   C99   S    
C127  O64   S    
C34   N46   S    
C108  O50   S    
N5    N11   A    
C142  H112  S    
C80   C86   A    
C66   C72   A    
O62   H18   S    
C125  H61   S    
C21   C45   A    
C107  O47   D    
C68   N26   S    
C51   O14   A    
C102  O38   S    
C54   O17   A    
C96   N6    A    
O50   H12   S    
C118  H32   S    
C138  H95   S    
C99   O31   D    
C112  O58   S    
C88   C106  S    
O28   H1    S    
Cr3   O3    S    
O46   H10   S    
C121  H44   S    
C135  H83   S    
Cr5   O11   S    
C112  O57   D    
C31   C37   A    
C17   C131  S    
O58   H16   S    
C64   C100  S    
C14   C38   A    
C56   C86   A    
C115  H20   S    
C89   C107  S    
C8    C74   S    
C62   C98   S    
N16   N22   A    
C15   C39   A    
C16   C40   A    
C5    O4    A    
C52   O18   A    
N47   H113  S    
C56   C62   A    
C72   N30   S    
C143  H114  S    
C79   C85   A    
N17   N23   A    
C121  H45   S    
Cr3   O21   S    
C16   C130  S    
Cr1   O19   S    
Cr3   O15   S    
C93   N21   A    
C91   N1    A    
C32   N44   S    
C58   C88   A    
N46   H109  S    
C5    O11   A    
C60   C90   A    
C29   C35   A    
C30   C36   A    
N35   C125  S    
O38   H6    S    
C140  H102  S    
N2    N8    A    
N34   C124  S    
C11   N11   A    
C92   N2    A    
C135  H82   S    
C127  O63   D    
C57   C87   A    
O44   H9    S    
C25   N37   S    
N37   H73   S    
C36   N48   S    
C139  H98   S    
C71   N29   S    
N28   H31   S    
C97   O27   D    
C25   C31   A    
C23   C113  S    
C26   C32   A    
C30   N42   S    
N13   N19   A    
N42   H93   S    
Cr1   O7    S    
C25   C43   A    
C131  O71   D    
C2    C57   S    
C26   C44   A    
C4    O6    A    
C24   C114  S    
C27   C33   A    
C28   C46   A    
N29   H35   S    
C114  O61   D    
C29   C47   A    
C18   C24   A    
C30   C48   A    
N36   C126  S    
C92   N20   A    
C18   C42   A    
N31   H43   S    
C131  O72   S    
C137  H91   S    
C68   C74   A    
C19   C109  S    
C120  H40   S    
C59   C89   A    
C106  O46   S    
C72   C78   A    
C11   C77   S    
C3    C55   S    
C63   C69   A    
C27   N39   S    
C144  H120  S    
C18   C132  S    
C116  H24   S    
C3    O9    A    
C2    O1    A    
C44   C52   S    
C52   O22   A    
C102  O37   D    
N27   H27   S    
C53   O23   A    
C109  O52   S    
C84   C90   A    
C20   C110  S    
C1    O7    A    
C20   C44   A    
C57   C63   A    
C12   N12   A    
O54   H14   S    
C136  H87   S    
C58   C64   A    
C83   C89   A    
C23   C47   A    
C24   C48   A    
C123  H54   S    
C140  H104  S    
C76   C82   A    
N38   C134  S    
C8    N14   A    
C3    O2    A    
C119  H38   S    
C113  O59   D    
O40   H7    S    
C133  H75   S    
C126  H64   S    
C8    N8    A    
C70   N28   S    
C61   C67   A    
N44   H101  S    
C141  H108  S    
C111  O55   D    
C73   C79   A    
C96   N24   A    
C117  H29   S    
C115  H21   S    
C129  O67   D    
C118  H34   S    
N41   C137  S    
C71   C77   A    
N47   C143  S    
C101  O36   S    
C5    C60   S    
C40   C94   S    
N48   C144  S    
N32   H47   S    
C124  H57   S    
C120  H42   S    
C143  H116  S    
C59   C65   A    
C137  H92   S    
C26   N38   S    
C50   O20   A    
C82   C88   A    
C55   C61   A    
Cr2   O2    S    
N25   C115  S    
C139  H100  S    
C62   C68   A    
C108  O49   D    
C35   C41   A    
C116  H26   S    
C142  H111  S    
C28   C34   A    
C98   O30   S    
C91   N19   A    
C22   C112  S    
Cr1   O13   S    
Cr4   O10   S    
Cr6   O26   S    
N45   C141  S    
C117  H28   S    
O70   H70   S    
N37   C133  S    
C138  H94   S    
C119  H36   S    
C87   C105  S    
C90   C108  S    
C104  O41   D    
N14   N20   A    
C42   C96   S    
N25   H19   S    
C126  H66   S    
N18   N24   A    
C67   N25   S    
C141  H106  S    
C134  H78   S    
N6    N12   A    
C132  O74   S    
C39   C93   S    
C99   O32   S    
C43   C53   S    
C98   O29   D    
O32   H3    S    
C49   O15   A    
N34   H55   S    
C10   N10   A    
C67   C73   A    
C97   O28   S    
C83   N35   S    
C4    O10   A    
C27   C45   A    
N39   C135  S    
N3    N9    A    
C60   C66   A    
O72   H71   S    
N43   C139  S    
C74   C80   A    
C122  H48   S    
C19   C43   A    
Cr2   O25   S    
C128  O66   S    
C13   C19   A    
N46   C142  S    
O68   H69   S    
C101  O35   D    
C14   C20   A    
C54   O24   A    
C104  O42   S    
C137  H90   S    
C50   O13   A    
O48   H11   S    
C136  H86   S    
Cr4   O26   S    
C133  H74   S    
C65   C101  S    
C55   C85   A    
O64   H67   S    
N35   H59   S    
N40   H85   S    
C29   N41   S    
Cr1   O25   S    
C125  H62   S    
C49   O19   A    
N26   C116  S    
C17   C23   A    
C81   C87   A    
C95   N5    A    
Cr6   O24   S    
Cr5   O5    S    
C22   C46   A    
C118  H33   S    
C79   N31   S    
O60   H17   S    
C138  H96   S    
C35   N47   S    
C46   C50   S    
C16   C22   A    
C128  O65   D    
C6    O5    A    
C135  H84   S    
N42   C138  S    
Cr5   O26   S    
N1    N7    A    
N38   H77   S    
N32   C122  S    
C105  O43   D    
C41   C95   S    
C21   C111  S    
C69   C75   A    
C14   C128  S    
C81   N33   S    
C106  O45   D    
C105  O44   S    
O74   H72   S    
C85   C103  S    
C103  O39   D    
C122  H50   S    
C144  H119  S    
C28   N40   S    
C9    N9    A    
C121  H46   S    
O36   H5    S    
C100  O33   D    
C9    N15   A    
C109  O51   D    
C82   N34   S    
Cr1   O1    S    
C11   N17   A    
C47   C49   S    
N4    N10   A    
C110  O53   D    
C84   N36   S    
C33   C39   A    
C34   C40   A    
C123  H53   S    
C53   O16   A    
C140  H103  S    
C119  H37   S    
C77   C83   A    
Cr6   O12   S    
C7    N13   A    
C93   N3    A    
C12   N18   A    
C10   C76   S    
C48   C51   S    
O30   H2    S    
C141  H107  S    
C12   C78   S    
C66   C102  S    
N33   C123  S    
C32   C38   A    
C117  H30   S    
C13   C37   A    
C126  H65   S    
O34   H4    S    
O66   H68   S    
N44   C140  S    
C13   C127  S    
C15   C129  S    
N29   C119  S    
C37   C91   S    
Cr3   O9    S    
N31   C121  S    
C75   C81   A    
Cr2   O20   S    
C129  O68   S    
C124  H56   S    
C65   C71   A    
Cr3   O25   S    
C7    N7    A    
Cr2   O14   S    
C120  H41   S    
C6    O12   A    
C143  H115  S    
O56   H15   S    
C10   N16   A    
C86   C104  S    
C95   N23   A    
C51   O21   A    
C107  O48   S    
N33   H51   S    
C139  H99   S    
C116  H25   S    
C142  H110  S    
N40   C136  S    
C123  H52   S    
C45   C54   S    
C64   C70   A    
N27   C117  S    
C125  H60   S    
C70   C76   A    
C134  H80   S    
N30   H39   S    
C31   N43   S    
N45   H105  S    
C136  H88   S    
C94   N4    A    
C33   N45   S    
C61   C97   S    
C113  O60   S    
C9    C75   S    
Cr2   O8    S    
C133  H76   S    
C122  H49   S    
N15   N21   A    
C114  O62   S    
Cr4   O16   S    
Cr5   O17   S    
O42   H8    S    
C144  H118  S    
C130  O70   S    
Cr4   O22   S    
C4    C59   S    
Cr5   O23   S    
C111  O56   S    
C103  O40   S    
C130  O69   D    
C132  O73   D    
C17   C41   A    
C78   C84   A    
C15   C21   A    
C115  H22   S    
C100  O34   S    
N26   H23   S    
N28   C118  S    
O52   H13   S    
N41   H89   S    
C110  O54   S    
C69   N27   S    
N48   H117  S    
C94   N22   A    
