data_mof_unit_35436.cif
_audit_creation_date              2012-12-10T19:27:30-0500
_audit_creation_method            fapswitch 2.2
_symmetry_space_group_name_H-M    P1
_symmetry_Int_Tables_number       1
_space_group_crystal_system       triclinic
_cell_length_a                    22.414833
_cell_length_b                    10.885163
_cell_length_c                    9.831962
_cell_angle_alpha                 86.511478
_cell_angle_beta                  89.487016
_cell_angle_gamma                 95.298291
_cell_volume                      2383.95987991

loop_
_atom_site_label
_atom_site_type_symbol
_atom_type_description
_atom_site_fract_x
_atom_site_fract_y
_atom_site_fract_z
_atom_type_partial_charge
C1    C     C_R   0.497480 0.257183 0.502738 0.929379
C2    C     C_R   0.719912 0.598050 0.479885 0.267555
C3    C     C_R   0.216250 0.427019 0.516028 0.314964
C4    C     C_R   0.780995 0.582812 0.465922 0.371563
C5    C     C_R   0.200514 0.528727 0.432989 -0.027310
C6    C     C_R   0.796970 0.470328 0.421516 0.046137
C7    C     C_3   0.498280 0.031455 0.629626 0.144985
C8    C     C_3   0.496601 0.969336 0.371067 0.176898
C9    C     C_3   0.548482 0.970470 0.559184 0.117162
C10   C     C_3   0.446633 0.031266 0.442009 0.080359
C11   C     C_3   0.500706 0.878741 0.496596 -0.088192
C12   C     C_R   0.500198 0.743020 0.497456 0.888000
C13   C     C_3   0.494760 0.121836 0.504380 -0.133933
C14   C     C_3   0.450556 0.940089 0.568338 0.110381
C15   C     C_3   0.544436 0.060316 0.432418 0.117472
C16   C     C_R   0.387658 0.499069 0.499683 1.022338
C17   C     C_R   0.612241 0.497817 0.499698 0.941916
C18   C     C_3   0.495853 0.388039 0.057368 -0.242330
C19   C     C_3   0.504519 0.612265 0.942817 -0.272289
C20   C     C_3   0.544209 0.445900 0.954794 0.068284
C21   C     C_3   0.456232 0.554556 0.045224 0.084629
C22   C     C_3   0.451764 0.443900 0.959125 0.525449
C23   C     C_R   0.240018 0.636318 0.436857 0.187606
C24   C     C_3   0.548506 0.556590 0.041875 0.452346
C25   C     C_R   0.872818 0.579252 0.264301 0.644645
C26   C     C_R   0.120275 0.411079 0.308034 0.655470
C27   C     C_R   0.873362 0.365549 0.291315 0.620515
C28   C     C_R   0.121827 0.626904 0.299112 0.600951
C29   C     C_R   0.935382 0.374881 0.254144 -0.172151
C30   C     C_R   0.059823 0.622926 0.275106 -0.165731
C31   C     C_R   0.966575 0.492168 0.259140 -0.080152
C32   C     C_R   0.028909 0.505428 0.267515 -0.086198
C33   C     C_R   0.935046 0.596192 0.242381 -0.051494
C34   C     C_R   0.763982 0.365191 0.486936 0.140854
C35   C     C_R   0.060661 0.401788 0.260441 -0.050205
C36   C     C_R   0.967361 0.280023 0.203190 0.488533
C37   C     C_R   0.028129 0.728729 0.248081 0.466963
C38   C     C_R   0.031712 0.297674 0.199841 0.012705
C39   C     C_R   0.967178 0.711599 0.211248 -0.010797
C40   C     C_3   0.596914 0.383346 0.902440 -0.760315
C41   C     C_3   0.403962 0.617963 0.097112 -0.733469
C42   C     C_3   0.068164 0.227104 0.107312 -0.533014
C43   C     C_3   0.940165 0.805887 0.119361 -0.505163
C44   C     C_3   0.218502 0.750898 0.493410 -0.661755
C45   C     C_R   0.301569 0.624256 0.442155 0.078934
C46   C     C_3   0.795644 0.258545 0.548707 -0.601984
C47   C     C_3   0.342185 0.733130 0.383453 -0.889863
C48   C     C_3   0.667936 0.270178 0.605101 -0.911441
C49   C     C_3   0.605696 0.953923 0.637467 -0.740007
C50   C     C_3   0.389951 0.061807 0.367262 -0.749702
C51   C     C_3   0.498511 0.059474 0.779693 -0.829141
C52   C     C_3   0.495714 0.940459 0.221364 -0.818849
C53   C     C_3   0.399875 0.873755 0.658330 -0.854392
C54   C     C_3   0.595581 0.124887 0.342856 -0.791837
C55   C     C_R   0.703015 0.375726 0.524342 0.095791
C56   C     C_R   0.321944 0.510733 0.493884 -0.260602
C57   C     C_R   0.678491 0.490941 0.498387 -0.239251
C58   C     C_R   0.277925 0.411798 0.536353 0.327516
H1    H     H_    0.491867 0.293716 0.108351 0.177084
H2    H     H_    0.420962 0.685529 0.169408 0.226855
H3    H     H_    0.308029 0.269230 0.035541 0.415184
H4    H     H_    0.669861 0.656102 0.905265 0.371179
H5    H     H_    0.050234 0.233089 0.002601 0.254264
H6    H     H_    0.115382 0.266407 0.094739 0.244071
H7    H     H_    0.067506 0.130725 0.146767 0.313429
H8    H     H_    0.975731 0.866896 0.063965 0.267783
H9    H     H_    0.913102 0.759809 0.039626 0.233095
H10   H     H_    0.911186 0.858913 0.179546 0.307506
H11   H     H_    0.225679 0.831439 0.418355 0.288791
H12   H     H_    0.508303 0.706601 0.891870 0.181699
H13   H     H_    0.170686 0.735114 0.525235 0.260260
H14   H     H_    0.243793 0.773827 0.586675 0.215812
H15   H     H_    0.780632 0.171686 0.500298 0.275916
H16   H     H_    0.845090 0.276805 0.540836 0.250526
H17   H     H_    0.785552 0.245415 0.659625 0.231493
H18   H     H_    0.390006 0.720786 0.393890 0.230075
H19   H     H_    0.332495 0.748840 0.273645 0.264593
H20   H     H_    0.333443 0.818193 0.433088 0.256319
H21   H     H_    0.619084 0.277319 0.604977 0.231953
H22   H     H_    0.676155 0.181452 0.562227 0.262563
H23   H     H_    0.854361 0.028748 0.215299 0.412242
H24   H     H_    0.682783 0.267949 0.712496 0.263328
H25   H     H_    0.376637 0.168393 0.618354 0.385028
H26   H     H_    0.611869 0.727068 0.552995 0.334879
H27   H     H_    0.100557 0.487639 0.640639 0.351708
H28   H     H_    0.932659 0.687149 0.568500 0.397080
H29   H     H_    0.615784 0.031783 0.703620 0.234048
H30   H     H_    0.600512 0.867754 0.704339 0.258050
H31   H     H_    0.643522 0.956235 0.564756 0.301509
H32   H     H_    0.380412 0.998585 0.284354 0.237344
H33   H     H_    0.351066 0.048904 0.438057 0.272825
H34   H     H_    0.120540 0.963327 0.422362 0.419806
H35   H     H_    0.395521 0.158169 0.322109 0.286393
H36   H     H_    0.507863 0.975739 0.843140 0.237533
H37   H     H_    0.533585 0.134294 0.797733 0.238609
H38   H     H_    0.454266 0.086321 0.810033 0.288941
H39   H     H_    0.491712 0.026435 0.156732 0.233092
H40   H     H_    0.537526 0.901086 0.193347 0.299469
H41   H     H_    0.456664 0.874725 0.202705 0.225563
H42   H     H_    0.360833 0.929339 0.658467 0.256941
H43   H     H_    0.386434 0.780667 0.624116 0.248740
H44   H     H_    0.415278 0.859531 0.764499 0.253979
H45   H     H_    0.618312 0.334600 0.988760 0.242716
H46   H     H_    0.632602 0.064415 0.336545 0.282948
H47   H     H_    0.579350 0.146143 0.238614 0.243338
H48   H     H_    0.612081 0.214147 0.382218 0.239624
H49   H     H_    0.581110 0.316254 0.828211 0.237599
H50   H     H_    0.630460 0.452908 0.852007 0.250671
H51   H     H_    0.382459 0.666254 0.010623 0.232490
H52   H     H_    0.370386 0.549302 0.149076 0.289606
N1    N     N_R   0.848214 0.469637 0.326823 -0.317327
N2    N     N_R   0.146104 0.522400 0.349913 -0.325703
N3    N     N_3   0.499960 0.500030 0.863290 -0.145073
N4    N     N_3   0.500040 0.499970 0.136710 -0.141652
O1    O     O_R   0.500000 0.313960 0.616610 -0.591150
O2    O     O_2   0.151149 0.310458 0.314634 -0.495908
O3    O     O_2   0.839027 0.258147 0.289250 -0.488212
O4    O     O_2   0.157757 0.727926 0.257392 -0.471569
O5    O     O_2   0.878593 0.206190 0.037827 -0.257282
O6    O     O_2   0.964341 0.085180 0.037430 -0.293450
O7    O     O_3   0.893996 0.058800 0.250552 -0.460609
O8    O     O_2   0.099848 0.926060 0.157944 -0.264505
O9    O     O_2   0.011632 0.964867 0.294444 -0.246045
O10   O     O_3   0.100242 0.878650 0.420594 -0.531100
O11   O     O_2   0.344703 0.449809 0.838059 -0.267659
O12   O     O_R   0.500000 0.686040 0.383390 -0.581598
O13   O     O_2   0.394036 0.256314 0.839852 -0.297633
O14   O     O_3   0.345801 0.314094 0.064481 -0.563406
O15   O     O_2   0.603239 0.727763 0.194749 -0.198867
O16   O     O_2   0.658297 0.549369 0.151759 -0.285760
O17   O     O_3   0.649636 0.717492 0.954709 -0.518320
O18   O     O_2   0.277164 0.226490 0.730384 -0.172253
O19   O     O_2   0.264886 0.171770 0.494512 -0.273504
O20   O     O_3   0.370646 0.249296 0.571559 -0.579454
O21   O     O_2   0.721421 0.815512 0.591694 -0.269510
O22   O     O_2   0.727885 0.818428 0.343295 -0.153694
O23   O     O_R   0.500030 0.313950 0.383350 -0.623609
O24   O     O_3   0.625571 0.753568 0.459293 -0.543372
O25   O     O_2   0.150745 0.210052 0.585450 -0.139168
O26   O     O_2   0.177317 0.346463 0.768143 -0.254225
O27   O     O_3   0.093589 0.404677 0.604339 -0.532110
O28   O     O_2   0.845236 0.805706 0.466900 -0.185008
O29   O     O_2   0.816726 0.699692 0.688041 -0.226165
O30   O     O_3   0.902145 0.618202 0.551588 -0.576299
O31   O     O_R   0.499970 0.686050 0.616650 -0.642448
O32   O     O_R   0.416140 0.499970 0.616650 -0.531108
O33   O     O_R   0.583860 0.500030 0.383350 -0.521079
O34   O     O_R   0.416170 0.499960 0.383400 -0.616304
O35   O     O_R   0.583830 0.500040 0.616600 -0.642085
O36   O     O_2   0.837958 0.670638 0.230915 -0.497456
S1    S     S_3+6 0.926388 0.155399 0.125462 0.087820
S2    S     S_3+6 0.059943 0.879985 0.277450 0.066519
S3    S     S_3+6 0.382196 0.364829 0.918600 0.065690
S4    S     S_3+6 0.616652 0.638058 0.091674 0.082743
S5    S     S_3+6 0.297049 0.261097 0.585727 0.100643
S6    S     S_3+6 0.699405 0.750629 0.468597 0.093690
S7    S     S_3+6 0.159352 0.342628 0.621434 0.126409
S8    S     S_3+6 0.836552 0.681975 0.544703 0.105942
Zn1   Zn    Zn3+2 0.499980 0.500010 0.655740 1.014934
Zn2   Zn    Zn3+2 0.500020 0.499990 0.344260 1.042003

loop_
_geom_bond_atom_site_label_1
_geom_bond_atom_site_label_2
_ccdc_geom_bond_type
C48   C55   S    
C24   N4    S    
C23   C45   A    
C26   N2    A    
C27   C29   A    
C6    N1    S    
C49   H29   S    
C18   N4    S    
C2    C57   A    
H28   O30   S    
C28   N2    A    
C29   C36   A    
C33   C39   A    
C48   H21   S    
C54   H46   S    
C17   O33   A    
C47   H18   S    
C38   C42   S    
H34   O10   S    
C20   N3    S    
C20   C40   S    
C11   C14   S    
C12   O12   A    
C19   N3    S    
C52   H39   S    
O18   S5    D    
C44   H13   S    
C16   O32   A    
O34   Zn2   S    
H25   O20   S    
C50   H32   S    
C7    C14   S    
C4    S8    S    
C20   C24   S    
C45   C56   A    
C24   S4    S    
C43   H10   S    
C42   H7    S    
C31   C33   A    
C34   C46   S    
C8    C52   S    
C54   H47   S    
C51   H38   S    
C40   H50   S    
C27   O3    S    
O10   S2    S    
C27   N1    A    
C34   C55   A    
O19   S5    D    
C21   C22   S    
C49   H30   S    
O13   S3    D    
O28   S8    D    
H23   O7    S    
O33   Zn2   S    
C46   H17   S    
O11   S3    D    
C45   C47   S    
C53   H42   S    
O5    S1    D    
C54   H48   S    
C15   C54   S    
C35   C38   A    
C9    C49   S    
C4    C6    A    
C10   C14   S    
H27   O27   S    
C26   C35   A    
C39   C43   S    
O32   Zn1   S    
O21   S6    D    
C6    C34   A    
C30   C37   A    
O1    Zn1   S    
C25   O36   S    
O8    S2    D    
C12   O31   A    
C2    C4    A    
C16   C56   S    
C43   H9    S    
O26   S7    D    
O35   Zn1   S    
C50   H33   S    
C31   C32   A    
C5    C23   A    
C53   H44   S    
C29   C31   A    
C44   H11   S    
O16   S4    D    
N3    Zn1   S    
C9    C11   S    
N4    Zn2   S    
O14   S3    S    
C40   H49   S    
C21   C41   S    
O27   S7    S    
C8    C15   S    
C41   H52   S    
C55   C57   A    
C1    C13   S    
C47   H19   S    
C37   S2    S    
O30   S8    S    
C36   C38   A    
C10   C50   S    
C42   H6    S    
C46   H16   S    
C1    O23   A    
O29   S8    D    
C48   H24   S    
O24   S6    S    
C22   N3    S    
C7    C9    S    
O20   S5    S    
O9    S2    D    
O6    S1    D    
C2    S6    S    
O23   Zn2   S    
C19   C21   S    
C18   C22   S    
H4    O17   S    
O17   S4    S    
C17   O35   A    
C32   C35   A    
C41   H2    S    
C49   H31   S    
C21   N4    S    
C3    C5    A    
C10   C13   S    
C11   C12   S    
C50   H35   S    
C5    N2    S    
O12   Zn2   S    
C52   H41   S    
C53   H43   S    
C16   O34   A    
C48   H22   S    
C13   C15   S    
C19   C24   S    
C9    C15   S    
C7    C51   S    
C28   C30   A    
C37   C39   A    
C28   O4    S    
C40   H45   S    
C30   C32   A    
C43   H8    S    
O15   S4    D    
C8    C11   S    
O31   Zn1   S    
C52   H40   S    
C56   C58   A    
C44   H14   S    
H3    O14   S    
C18   C20   S    
O22   S6    D    
C26   O2    S    
C25   C33   A    
C58   S5    S    
C25   N1    A    
C51   H36   S    
H26   O24   S    
C3    C58   A    
O7    S1    S    
C18   H1    S    
C7    C13   S    
C14   C53   S    
O25   S7    D    
C8    C10   S    
C51   H37   S    
C3    S7    S    
C19   H12   S    
C41   H51   S    
C36   S1    S    
C1    O1    A    
C47   H20   S    
C42   H5    S    
C46   H15   S    
C17   C57   S    
C23   C44   S    
C22   S3    S    
