data_mof_unit_55258.cif
_audit_creation_date              2012-12-10T17:51:33-0500
_audit_creation_method            fapswitch 2.2
_symmetry_space_group_name_H-M    P1
_symmetry_Int_Tables_number       1
_space_group_crystal_system       triclinic
_cell_length_a                    9.917881
_cell_length_b                    10.637108
_cell_length_c                    16.604854
_cell_angle_alpha                 90.612981
_cell_angle_beta                  84.944423
_cell_angle_gamma                 87.866929
_cell_volume                      1743.57577223

loop_
_atom_site_label
_atom_site_type_symbol
_atom_type_description
_atom_site_fract_x
_atom_site_fract_y
_atom_site_fract_z
_atom_type_partial_charge
Br1   Br    Br    0.442588 0.850540 0.668461 -0.599398
Br2   Br    Br    0.372155 0.761547 0.321006 -0.484558
Br3   Br    Br    0.780558 0.596320 0.236724 -0.488548
C1    C     C_R   0.497779 0.739424 0.494122 0.978440
C2    C     C_R   0.533866 0.451955 0.262253 -0.092987
C3    C     C_R   0.500614 0.884841 0.340592 0.248315
C4    C     C_R   0.480896 0.497759 0.653538 0.886484
C5    C     C_R   0.551753 0.947558 0.271540 -0.097923
C6    C     C_R   0.599437 0.068046 0.278032 -0.180632
C7    C     C_R   0.586910 0.129626 0.352766 -0.180982
C8    C     C_R   0.538143 0.066237 0.423217 0.067309
C9    C     C_R   0.510001 0.938429 0.418557 -0.004521
C10   C     C_R   0.488783 0.872939 0.492368 -0.145575
C11   C     C_R   0.472719 0.936087 0.567317 0.225917
C12   C     C_R   0.349621 0.428136 0.777864 -0.187571
C13   C     C_R   0.477530 0.064868 0.569266 -0.212716
C14   C     C_R   0.510658 0.128304 0.498104 -0.116539
C15   C     C_R   0.839280 0.663596 0.606169 -0.140626
C16   C     C_R   0.502569 0.260681 0.501933 0.863683
C17   C     C_R   0.899458 0.744141 0.657687 -0.196215
C18   C     C_R   0.039045 0.744369 0.656843 -0.169793
C19   C     C_R   0.119226 0.663779 0.604620 -0.126679
C20   C     C_R   0.061868 0.580657 0.551763 0.150442
C21   C     C_R   0.917279 0.580523 0.552094 0.166929
C22   C     C_R   0.938931 0.423251 0.450118 -0.069807
C23   C     C_R   0.453357 0.317007 0.159987 -0.158428
C24   C     C_R   0.082002 0.423215 0.450182 -0.068512
C25   C     C_R   0.519680 0.492583 0.346713 0.932542
C26   C     C_R   0.469558 0.474460 0.740018 -0.016211
C27   C     C_R   0.583828 0.483927 0.783136 -0.179974
C28   C     C_R   0.580307 0.442672 0.862068 -0.138142
C29   C     C_R   0.462649 0.389907 0.898686 0.191152
C30   C     C_R   0.346310 0.386300 0.857005 -0.158438
C31   C     C_R   0.438107 0.369440 0.237036 -0.227105
C32   C     C_R   0.647931 0.479471 0.209498 0.264651
C33   C     C_R   0.662575 0.425949 0.132167 -0.196492
C34   C     C_R   0.563983 0.347487 0.106713 0.127740
C35   C     C_2   0.454365 0.352108 0.983357 -0.204013
C36   C     C_2   0.564942 0.320282 0.020488 -0.212156
H1    H     H_    0.676720 0.521266 0.755469 0.158050
H2    H     H_    0.225520 0.669351 0.607259 0.228628
H3    H     H_    0.144199 0.360390 0.409467 0.144165
H4    H     H_    0.253589 0.349640 0.885395 0.136077
H5    H     H_    0.376891 0.255682 0.141085 0.154239
H6    H     H_    0.260017 0.420058 0.745572 0.161114
H7    H     H_    0.357217 0.368682 0.018278 0.162936
H8    H     H_    0.669247 0.454363 0.894291 0.131112
H9    H     H_    0.893689 0.360530 0.409361 0.150962
H10   H     H_    0.085668 0.807343 0.696892 0.186150
H11   H     H_    0.662479 0.304247 0.986130 0.150823
H12   H     H_    0.746548 0.451858 0.090164 0.161441
H13   H     H_    0.545979 0.906387 0.212075 0.176537
H14   H     H_    0.637148 0.117026 0.224349 0.166542
H15   H     H_    0.616067 0.226403 0.354960 0.144444
H16   H     H_    0.458209 0.115589 0.626389 0.169469
H17   H     H_    0.731741 0.669893 0.610953 0.222056
H18   H     H_    0.837119 0.806912 0.698482 0.178733
H19   H     H_    0.352156 0.343521 0.277481 0.172314
N1    N     N_R   0.857140 0.501200 0.500750 -0.119627
N2    N     N_R   0.142740 0.501280 0.500770 -0.119989
O1    O     O_R   0.385310 0.683220 0.500000 -0.594625
O2    O     O_R   0.614640 0.683250 0.500010 -0.618327
O3    O     O_R   0.371780 0.500010 0.615800 -0.641819
O4    O     O_R   0.601110 0.500030 0.615800 -0.641172
O5    O     O_R   0.385360 0.316750 0.499990 -0.618063
O6    O     O_R   0.614690 0.316780 0.500000 -0.624027
O7    O     O_R   0.398890 0.499970 0.384200 -0.585058
O8    O     O_R   0.628220 0.499990 0.384200 -0.588311
Zn1   Zn    Zn3+2 0.346870 0.499980 0.499990 0.974347
Zn2   Zn    Zn3+2 0.653130 0.500020 0.500010 0.971817

loop_
_geom_bond_atom_site_label_1
_geom_bond_atom_site_label_2
_ccdc_geom_bond_type
C5    C6    A    
C8    C9    A    
C23   C34   A    
C12   C26   A    
C26   C27   A    
C4    C26   S    
C29   C35   S    
C22   C24   A    
C2    C25   S    
C6    C7    A    
C5    H13   S    
C15   C17   A    
C32   C33   A    
C24   H3    S    
C15   H17   S    
C20   C21   A    
C2    C31   A    
C25   O7    A    
C18   H10   S    
C13   H16   S    
C23   H5    S    
O3    Zn1   S    
C34   C36   S    
C28   H8    S    
C10   C11   A    
C29   C30   A    
C20   N2    A    
O7    Zn1   S    
C22   H9    S    
C4    O3    A    
Br2   C3    S    
C33   H12   S    
N2    Zn1   S    
C21   N1    A    
C15   C21   A    
C2    C32   A    
C33   C34   A    
C14   C16   S    
C12   C30   A    
C16   O5    A    
O6    Zn2   S    
C24   N2    A    
C3    C9    A    
C27   C28   A    
C7    H15   S    
O4    Zn2   S    
C11   C13   A    
C4    O4    A    
C35   H7    S    
C19   H2    S    
C6    H14   S    
C7    C8    A    
C12   H6    S    
N1    Zn2   S    
C27   H1    S    
C30   H4    S    
C1    O2    A    
O5    Zn1   S    
C36   H11   S    
C35   C36   D    
C17   C18   A    
O2    Zn2   S    
C16   O6    A    
O8    Zn2   S    
Br3   C32   S    
O1    Zn1   S    
C1    C10   S    
C31   H19   S    
C19   C20   A    
C8    C14   A    
C3    C5    A    
Br1   C11   S    
C22   N1    A    
C9    C10   A    
C17   H18   S    
C18   C19   A    
C1    O1    A    
C23   C31   A    
C28   C29   A    
C13   C14   A    
C25   O8    A    
