data_mof_unit_23038.cif
_audit_creation_date              2013-03-05T15:48:56-0500
_audit_creation_method            fapswitch 2.2
_symmetry_space_group_name_H-M    P1
_symmetry_Int_Tables_number       1
_space_group_crystal_system       triclinic
_cell_length_a                    6.944387
_cell_length_b                    13.546811
_cell_length_c                    20.106978
_cell_angle_alpha                 104.154081
_cell_angle_beta                  91.213256
_cell_angle_gamma                 89.949406
_cell_volume                      1833.69630416

loop_
_atom_site_label
_atom_site_type_symbol
_atom_site_description
_atom_site_fract_x
_atom_site_fract_y
_atom_site_fract_z
_atom_type_partial_charge
O1    O     O_R   0.506780 0.600060 0.449950 -0.590996
O2    O     O_R   0.179840 0.597110 0.589410 -0.579282
O3    O     O_R   0.004570 0.399940 0.550050 -0.600270
C1    C     C_R   0.349404 0.617328 0.617340 0.984254
O4    O     O_R   0.177380 0.612160 0.452890 -0.588572
O5    O     O_R   0.002100 0.415100 0.412560 -0.597461
C2    C     C_R   0.344475 0.638383 0.435897 0.957902
O6    O     O_R   0.509250 0.584900 0.587440 -0.594679
O7    O     O_3   0.337570 0.435330 0.486930 -0.290324
V1    V     V_3+5 0.064650 0.512000 0.502430 1.199890
O8    O     O_R   0.672090 0.402890 0.410590 -0.606494
C3    C     C_R   0.839134 0.381908 0.382699 0.900771
O9    O     O_R   0.674540 0.387840 0.547110 -0.601297
C4    C     C_R   0.845203 0.361539 0.563985 0.924239
V2    V     V_3+5 0.564040 0.488000 0.497570 1.171374
O10   O     O_3   0.840990 0.564670 0.513070 -0.251550
C5    C     C_R   0.019889 0.130484 0.616393 -0.129970
H1    H     H_    0.007502 0.177449 0.522210 0.111687
H2    H     H_    0.124117 0.023989 0.704691 0.188392
H3    H     H_    0.098843 0.061908 0.593584 0.156727
C6    C     C_R   0.865078 0.284575 0.603457 -0.090340
C7    C     C_R   0.754664 0.307987 0.929093 -0.159685
C8    C     C_R   0.707536 0.379269 0.892204 -0.091818
C9    C     C_R   0.747181 0.360396 0.822614 -0.185199
C10   C     C_R   0.839325 0.269460 0.788216 0.094650
C11   C     C_R   0.896229 0.198968 0.827375 0.100005
C12   C     C_R   0.875721 0.245666 0.716284 0.078961
C13   C     C_R   0.977777 0.155202 0.686401 0.164600
C14   C     C_R   0.040021 0.090510 0.726626 -0.171064
C15   C     C_R   0.996153 0.110337 0.795446 -0.244114
C16   C     C_R   0.817485 0.308935 0.672908 -0.249496
C17   C     C_R   0.965932 0.195365 0.575468 -0.185236
C18   C     C_R   0.848742 0.217874 0.897550 -0.174351
H4    H     H_    0.742772 0.379660 0.691864 0.107193
H5    H     H_    0.715130 0.322486 0.982467 0.100991
H6    H     H_    0.704098 0.418696 0.797392 0.108022
H7    H     H_    0.635711 0.448950 0.917427 0.108878
H8    H     H_    0.044197 0.055808 0.823466 0.149917
C19   C     C_3   0.749405 0.167837 0.245947 -0.143712
C20   C     C_3   0.922480 0.202982 0.296009 -0.105464
H9    H     H_    0.972438 0.164748 0.336044 0.158025
H10   H     H_    0.663003 0.097464 0.240784 0.119287
C21   C     C_3   0.845410 0.312551 0.311647 -0.110676
C22   C     C_3   0.671771 0.278228 0.262420 -0.102456
C23   C     C_3   0.789531 0.299828 0.202864 -0.136556
C24   C     C_3   0.963092 0.335013 0.252866 -0.142855
C25   C     C_3   0.040611 0.224528 0.236512 -0.055214
C26   C     C_3   0.867005 0.190236 0.187287 -0.089812
H11   H     H_    0.519744 0.300791 0.273348 0.104228
H12   H     H_    0.735132 0.339409 0.164000 0.098059
H13   H     H_    0.051223 0.404465 0.256128 0.106059
H14   H     H_    0.192621 0.201860 0.225590 0.118745
C27   C     C_3   0.538879 0.734313 0.729222 -0.079352
C28   C     C_3   0.433791 0.838503 0.748817 -0.222698
H15   H     H_    0.494041 0.913620 0.746886 0.148244
H16   H     H_    0.689239 0.721939 0.711530 0.164159
C29   C     C_3   0.354378 0.810033 0.812946 -0.144730
C30   C     C_3   0.459947 0.706845 0.794192 -0.107878
C31   C     C_3   0.278487 0.657699 0.752656 -0.193967
C32   C     C_3   0.172349 0.761553 0.772555 -0.197362
C33   C     C_3   0.254776 0.787715 0.708649 0.418641
C34   C     C_3   0.358025 0.685692 0.688416 -0.224052
H17   H     H_    0.545156 0.673357 0.830515 0.103537
H18   H     H_    0.216349 0.582699 0.753878 0.125897
H19   H     H_    0.021552 0.773864 0.789903 0.143205
C35   C     C_R   0.266968 0.887328 0.390502 -0.132645
H20   H     H_    0.247886 0.834731 0.481918 0.182360
H21   H     H_    0.217284 0.962188 0.416570 0.149201
C36   C     C_R   0.345810 0.716703 0.397275 -0.105343
C37   C     C_R   0.404968 0.683581 0.069083 -0.170272
C38   C     C_R   0.423458 0.608310 0.104800 -0.098126
C39   C     C_R   0.408390 0.632377 0.175905 -0.158798
C40   C     C_R   0.373191 0.733605 0.213460 0.096287
C41   C     C_R   0.350147 0.810092 0.176268 0.030254
C42   C     C_R   0.356236 0.760836 0.286366 0.031364
C43   C     C_R   0.306362 0.862604 0.320041 -0.009440
C44   C     C_R   0.292294 0.937746 0.282687 0.591601
C45   C     C_R   0.312477 0.911044 0.211860 -0.393319
C46   C     C_R   0.382436 0.689830 0.327089 -0.204918
C47   C     C_R   0.284268 0.814659 0.428338 -0.153120
C48   C     C_R   0.367561 0.784082 0.103918 -0.117902
H22   H     H_    0.425371 0.612283 0.305787 0.094017
H23   H     H_    0.421480 0.663567 0.013924 0.096399
H24   H     H_    0.423154 0.569538 0.199613 0.101257
H25   H     H_    0.451302 0.530574 0.077190 0.108514
H26   H     H_    0.295847 0.970783 0.184943 0.163550
O11   O     O_R   0.203580 0.914920 0.912610 -0.600794
O12   O     O_R   0.535710 0.887810 0.047120 -0.595582
O13   O     O_R   0.710730 0.084950 0.087430 -0.593394
C49   C     C_R   0.368755 0.861771 0.064364 0.923113
O14   O     O_R   0.533010 0.902850 0.910600 -0.594396
O15   O     O_R   0.708010 0.100090 0.949930 -0.589862
C50   C     C_R   0.363218 0.880712 0.883255 0.938375
O16   O     O_R   0.206300 0.899780 0.050100 -0.592232
O17   O     O_3   0.375170 0.064580 0.013100 -0.277423
V3    V     V_3+5 0.648200 0.988020 0.997570 1.164600
O18   O     O_R   0.038030 0.112330 0.952840 -0.601038
C51   C     C_R   0.867396 0.138900 0.936104 0.928086
O19   O     O_R   0.040730 0.097300 0.089360 -0.601644
C52   C     C_R   0.873510 0.119378 0.116836 0.911707
V4    V     V_3+5 0.148780 0.012220 0.002360 1.157505
O20   O     O_3   0.871930 0.935430 0.986900 -0.272588
N1    N     N_R   0.143566 0.829750 0.660087 0.212185
O21   O     O_R   0.957792 0.839277 0.665350 -0.436954
O22   O     O_R   0.229615 0.855307 0.609995 -0.474933
O23   O     O_3   0.244979 0.037338 0.313787 -0.642100
C53   C     C_3   0.406568 0.089574 0.349901 -0.311724
H27   H     H_    0.546500 0.048762 0.339110 0.131680
H28   H     H_    0.381918 0.106196 0.405861 0.163624
H29   H     H_    0.420039 0.163902 0.336526 0.175314

loop_
_geom_bond_atom_site_label_1
_geom_bond_atom_site_label_2
_geom_bond_distance
_ccdc_geom_bond_type
C22   H11   1.110261 S    
C20   C25   1.549863 S    
C35   H21   1.081339 S    
O12   V3    2.035192 S    
V4    O20   2.166808 S    
V3    O20   1.704369 S    
C53   H28   1.109160 S    
C40   C41   1.425501 A    
O17   V3    2.152046 S    
C1    O6    1.298011 A    
O18   C51   1.299416 A    
O15   C51   1.290085 A    
C44   C45   1.391058 A    
C7    H5    1.083954 S    
C6    C16   1.400771 A    
C31   H18   1.110184 S    
C9    H6    1.076790 S    
C4    C6    1.461445 S    
C44   O23   1.383667 S    
C33   N1    1.453727 S    
C3    C21   1.507247 S    
O5    C3    1.297500 A    
C27   H16   1.109583 S    
O23   C53   1.415205 S    
V2    O10   2.166704 S    
C1    C34   1.500965 S    
O15   V3    2.030805 S    
C5    H3    1.084141 S    
C15   H8    1.081458 S    
C18   C51   1.470863 S    
C24   C25   1.550310 S    
C37   C48   1.397280 A    
O14   V3    1.996171 S    
O11   V4    2.000924 S    
O8    V2    2.004722 S    
C20   C21   1.538166 S    
C25   C26   1.540924 S    
O16   V4    2.024570 S    
C8    C9    1.392932 A    
C37   C38   1.387821 A    
O1    V2    2.018187 S    
O7    V1    2.152009 S    
C45   H26   1.082852 S    
C31   C32   1.555015 S    
C38   H25   1.082958 S    
O9    C4    1.299234 A    
C40   C42   1.428865 A    
C49   O16   1.295222 A    
C19   H10   1.108880 S    
C26   C52   1.505888 S    
C6    C17   1.396533 A    
O13   C52   1.297191 A    
C12   C16   1.417348 A    
C9    C10   1.416340 A    
C19   C20   1.549156 S    
O4    C2    1.290848 A    
C29   C32   1.544648 S    
C10   C11   1.428952 A    
C8    H7    1.082959 S    
C24   H13   1.110505 S    
C32   C33   1.535762 S    
C25   H14   1.110458 S    
O2    C1    1.293937 A    
C42   C43   1.425355 A    
C2    C36   1.460176 S    
C14   C15   1.384093 A    
O14   C50   1.294238 A    
C27   C34   1.542041 S    
C11   C18   1.417065 A    
O19   C52   1.299578 A    
C53   H27   1.116391 S    
C35   C43   1.406555 A    
C16   H4    1.077645 S    
N1    O22   1.299148 A    
C43   C44   1.407287 A    
C37   H23   1.083964 S    
C39   H24   1.076406 S    
O3    C4    1.288156 A    
C48   C49   1.466237 S    
C20   H9    1.108325 S    
O19   V4    2.004871 S    
O12   C49   1.290903 A    
C32   H19   1.110315 S    
C11   C15   1.405584 A    
O6    V2    2.000341 S    
O9    V2    2.012182 S    
C21   C22   1.541197 S    
C53   H29   1.108425 S    
C36   C46   1.397346 A    
H1    C17   1.083908 S    
C41   C48   1.418339 A    
O2    V1    1.996023 S    
C12   C13   1.421809 A    
C22   C23   1.549710 S    
C23   C26   1.539477 S    
C30   H17   1.110232 S    
C7    C18   1.398853 A    
C28   H15   1.110341 S    
C13   C14   1.392903 A    
C31   C34   1.545132 S    
O1    C2    1.294971 A    
C5    C13   1.402097 A    
H20   C47   1.080073 S    
C39   C40   1.418195 A    
O5    V1    1.996202 S    
C46   H22   1.077365 S    
C27   C30   1.553652 S    
C27   C28   1.555110 S    
C19   C22   1.549386 S    
C28   C33   1.535680 S    
C10   C12   1.430735 A    
C35   C47   1.387265 A    
O13   V3    1.996202 S    
O7    V2    1.715027 S    
O4    V1    2.035186 S    
O3    V1    2.030828 S    
V1    O10   1.704318 S    
C29   C30   1.544601 S    
C23   H12   1.110377 S    
O11   C50   1.298124 A    
C33   C34   1.524920 S    
C21   C24   1.540963 S    
C30   C31   1.553589 S    
C23   C24   1.551131 S    
C38   C39   1.392691 A    
C41   C45   1.406952 A    
N1    O21   1.300379 A    
C5    C17   1.389284 A    
C7    C8    1.388961 A    
C36   C47   1.392342 A    
C29   C50   1.501173 S    
C42   C46   1.416819 A    
O18   V4    2.012025 S    
O17   V4    1.712910 S    
O8    C3    1.299981 A    
C19   C26   1.538315 S    
C28   C29   1.545709 S    
H2    C14   1.078538 S    
