data_mof_unit_17574.cif
_audit_creation_date              2012-12-11T16:21:26-0500
_audit_creation_method            fapswitch 2.2
_symmetry_space_group_name_H-M    P1
_symmetry_Int_Tables_number       1
_space_group_crystal_system       triclinic
_cell_length_a                    8.243962
_cell_length_b                    16.616339
_cell_length_c                    17.337019
_cell_angle_alpha                 108.667108
_cell_angle_beta                  84.251793
_cell_angle_gamma                 97.139223
_cell_volume                      2227.91506208

loop_
_atom_site_label
_atom_site_type_symbol
_atom_type_description
_atom_site_fract_x
_atom_site_fract_y
_atom_site_fract_z
_atom_type_partial_charge
Ba1   Ba    Ba6+2 0.638770 0.457640 0.528600 1.679611
Ba2   Ba    Ba6+2 0.171410 0.542370 0.471460 1.679357
C1    C     C_3   0.742648 0.262654 0.784885 -0.386802
C2    C     C_R   0.099409 0.248161 0.472418 -0.246155
C3    C     C_2   0.518133 0.861882 0.581754 0.344133
C4    C     C_3   0.315118 0.224849 0.658653 0.633315
C5    C     C_2   0.553219 0.779622 0.564198 -0.015742
C6    C     C_2   0.823674 0.809083 0.497089 0.018689
C7    C     C_3   0.771173 0.890883 0.490581 -0.118929
C8    C     C_3   0.633469 0.926571 0.554104 0.035688
C9    C     C_2   0.909392 0.959789 0.488004 -0.079101
C10   C     C_2   0.879238 0.035755 0.482916 -0.092633
C11   C     C_R   0.165020 0.079119 0.436119 -0.027082
C12   C     C_3   0.773567 0.281906 0.704282 0.314039
C13   C     C_R   0.010025 0.102349 0.471845 -0.000653
C14   C     C_R   0.284219 0.139009 0.417470 -0.133878
C15   C     C_R   0.250799 0.223793 0.434776 0.040262
C16   C     C_3   0.347971 0.137187 0.660794 -0.317307
C17   C     C_R   0.978512 0.188542 0.490685 0.080073
C18   C     C_R   0.085473 0.466382 0.712735 -0.216806
C19   C     C_R   0.948223 0.510185 0.745258 0.039034
C20   C     C_R   0.890538 0.519667 0.826511 -0.131580
C21   C     C_R   0.972212 0.486501 0.875280 -0.014874
C22   C     C_R   0.113692 0.444973 0.842552 -0.151676
C23   C     C_3   0.007978 0.277833 0.282689 0.475443
C24   C     C_R   0.170766 0.435754 0.761505 0.085690
C25   C     C_R   0.904402 0.483633 0.161051 -0.075984
C26   C     C_R   0.854104 0.492577 0.242851 0.029063
C27   C     C_R   0.629463 0.569733 0.233809 -0.009866
C28   C     C_3   0.289438 0.664388 0.731212 0.681174
C29   C     C_R   0.679071 0.561084 0.151870 -0.138995
C30   C     C_R   0.818181 0.518563 0.115369 0.002359
C31   C     C_1   0.869797 0.507830 0.030505 0.005527
C32   C     C_1   0.915388 0.498231 0.959720 0.009580
C33   C     C_R   0.720228 0.537668 0.279280 -0.287755
C34   C     C_3   0.047328 0.193183 0.216653 0.248068
C35   C     C_3   0.212474 0.709371 0.815822 -0.338149
C36   C     C_3   0.487332 0.352399 0.275902 0.299764
C37   C     C_3   0.506332 0.331021 0.183192 0.185478
C38   C     C_3   0.809749 0.725680 0.701787 0.358953
C39   C     C_3   0.789516 0.811855 0.769093 0.228625
C40   C     C_R   0.812292 0.887856 0.737515 -0.049641
C41   C     C_R   0.963029 0.905049 0.697421 -0.099406
C42   C     C_R   0.995304 0.978901 0.674669 -0.048290
C43   C     C_R   0.879378 0.037801 0.693332 -0.087072
C44   C     C_R   0.729683 0.022332 0.734070 -0.053047
C45   C     C_3   0.529076 0.773671 0.321008 0.483606
C46   C     C_R   0.695357 0.947494 0.755649 -0.030564
C47   C     C_R   0.982301 0.116174 0.242599 -0.020215
C48   C     C_R   0.087093 0.054709 0.240022 -0.109868
C49   C     C_R   0.025415 0.981193 0.259839 -0.062257
C50   C     C_R   0.859715 0.968969 0.283405 -0.028273
C51   C     C_R   0.754826 0.030017 0.286647 -0.061900
C52   C     C_R   0.815000 0.102734 0.265202 -0.035820
C53   C     C_3   0.467002 0.861822 0.349883 0.268742
C54   C     C_3   0.000702 0.720721 0.292878 0.388601
C55   C     C_3   0.031374 0.740147 0.212412 -0.346876
C56   C     C_2   0.714227 0.755148 0.523922 -0.316243
H1    H     H_    0.686944 0.327220 0.703424 0.108036
H2    H     H_    0.887220 0.733814 0.648177 -0.077313
H3    H     H_    0.753513 0.323135 0.836263 0.096797
H4    H     H_    0.888795 0.823368 0.811875 0.056499
H5    H     H_    0.899964 0.312724 0.701065 0.022819
H6    H     H_    0.833694 0.221251 0.790318 0.102317
H7    H     H_    0.125801 0.314414 0.303139 -0.060391
H8    H     H_    0.939508 0.266732 0.337525 -0.119304
H9    H     H_    0.183185 0.194978 0.206273 -0.001829
H10   H     H_    0.617621 0.230228 0.789277 0.146621
H11   H     H_    0.282462 0.123628 0.715126 0.098366
H12   H     H_    0.144564 0.761824 0.812946 0.092518
H13   H     H_    0.561947 0.759959 0.375931 -0.149601
H14   H     H_    0.640212 0.774462 0.279291 -0.042688
H15   H     H_    0.565546 0.910435 0.379461 -0.057490
H16   H     H_    0.363028 0.862970 0.396037 0.095513
H17   H     H_    0.866244 0.711677 0.306293 -0.100554
H18   H     H_    0.055446 0.660731 0.285534 0.088414
H19   H     H_    0.991229 0.683125 0.161632 0.065878
H20   H     H_    0.163828 0.757911 0.201059 0.186158
H21   H     H_    0.378612 0.232887 0.601664 0.085946
H22   H     H_    0.960720 0.793026 0.213489 0.092764
H23   H     H_    0.127402 0.663604 0.838495 0.069021
H24   H     H_    0.400429 0.118575 0.387668 0.084083
H25   H     H_    0.746064 0.692404 0.519697 0.075306
H26   H     H_    0.074753 0.313916 0.486266 0.068992
H27   H     H_    0.035360 0.946907 0.487235 0.106344
H28   H     H_    0.752693 0.048158 0.484433 0.101780
H29   H     H_    0.007013 0.447446 0.132513 0.084985
H30   H     H_    0.180565 0.421254 0.880122 0.079939
H31   H     H_    0.608080 0.585546 0.116538 0.079343
H32   H     H_    0.785734 0.555104 0.852330 0.097727
H33   H     H_    0.131826 0.460618 0.650751 0.081986
H34   H     H_    0.308805 0.737561 0.859899 0.126131
H35   H     H_    0.679650 0.542434 0.341782 0.060704
H36   H     H_    0.306280 0.087525 0.604505 0.091348
H37   H     H_    0.480311 0.133997 0.663480 0.131688
H38   H     H_    0.189984 0.635847 0.689584 0.020070
H39   H     H_    0.567820 0.215334 0.148039 0.326553
H40   H     H_    0.648220 0.847577 0.868446 0.298508
H41   H     H_    0.056696 0.861588 0.684684 0.096148
H42   H     H_    0.110291 0.990053 0.642327 0.117802
H43   H     H_    0.904873 0.094592 0.675008 0.127310
H44   H     H_    0.639270 0.067734 0.748046 0.082603
H45   H     H_    0.607812 0.375322 0.301832 0.023929
H46   H     H_    0.578515 0.937278 0.787275 0.114002
H47   H     H_    0.216157 0.063224 0.222121 0.068174
H48   H     H_    0.106552 0.934165 0.257785 0.102916
H49   H     H_    0.813580 0.912564 0.299862 0.068340
H50   H     H_    0.626900 0.021286 0.305601 0.083670
H51   H     H_    0.731523 0.148702 0.266514 0.107478
H52   H     H_    0.037543 0.140924 0.099332 0.300114
H53   H     H_    0.368958 0.936507 0.307036 0.287474
H54   H     H_    0.349121 0.861143 0.668397 0.303379
H55   H     H_    0.096005 0.225055 0.710105 0.286082
H56   H     H_    0.404589 0.403836 0.299772 0.013103
H57   H     H_    0.461379 0.626342 0.775680 0.321221
H58   H     H_    0.547426 0.389982 0.167073 0.031208
H59   H     H_    0.385918 0.305382 0.156546 0.035992
H60   H     H_    0.688913 0.693668 0.681307 0.064985
O1    O     O_2   0.563480 0.287900 0.421550 -0.447306
O2    O     O_2   0.289961 0.554632 0.237576 -0.498880
O3    O     O_3   0.406820 0.713808 0.278599 -0.575407
O4    O     O_3   0.344560 0.396140 0.441010 -0.491703
O5    O     O_3   0.942720 0.544140 0.599330 -0.488791
O6    O     O_2   0.129060 0.458130 0.306750 -0.479400
O7    O     O_3   0.912821 0.322026 0.249935 -0.565816
O8    O     O_2   0.163898 0.809322 0.502296 -0.460448
O9    O     O_3   0.074116 0.788144 0.355141 -0.596585
O10   O     O_3   0.805120 0.340890 0.569250 -0.499360
O11   O     O_2   0.635948 0.191931 0.498636 -0.515961
O12   O     O_3   0.889014 0.677669 0.736517 -0.677024
O13   O     O_3   0.421847 0.278875 0.295372 -0.667221
O14   O     O_3   0.750769 0.206169 0.638840 -0.617096
O15   O     O_2   0.681260 0.541920 0.693290 -0.432742
O16   O     O_3   0.399420 0.384560 0.615960 -0.468562
O17   O     O_2   0.508138 0.446718 0.765107 -0.482864
O18   O     O_3   0.622929 0.272480 0.149862 -0.663308
O19   O     O_3   0.637511 0.806515 0.812730 -0.734880
O20   O     O_3   0.981915 0.185843 0.142535 -0.661822
O21   O     O_3   0.416881 0.881228 0.283622 -0.718048
O22   O     O_3   0.381663 0.893454 0.629467 -0.732279
O23   O     O_3   0.375953 0.288641 0.727981 -0.642591
O24   O     O_3   0.146381 0.226845 0.656172 -0.798818
O25   O     O_3   0.378009 0.599380 0.735126 -0.734335
O26   O     O_2   0.246830 0.712160 0.578490 -0.467777
O27   O     O_3   0.465730 0.603870 0.559050 -0.468424
O28   O     O_3   0.005180 0.659120 0.430820 -0.483855
O29   O     O_3   0.394458 0.724999 0.705307 -0.633409
O30   O     O_3   0.867570 0.455870 0.400730 -0.476960
O31   O     O_3   0.410870 0.615450 0.384100 -0.470151
P1    P     P_3+3 0.397200 0.301470 0.401420 0.972618
P2    P     P_3+3 0.862850 0.568080 0.686620 0.986320
P3    P     P_3+3 0.363498 0.389786 0.718502 1.000717
P4    P     P_3+3 0.413100 0.698540 0.598650 1.001734
P5    P     P_3+3 0.435884 0.612590 0.281819 0.955625
P6    P     P_3+3 0.789937 0.230369 0.547044 0.951866
P7    P     P_3+3 0.940424 0.432194 0.298486 0.982934
P8    P     P_3+3 0.018713 0.768453 0.448113 0.968667

loop_
_geom_bond_atom_site_label_1
_geom_bond_atom_site_label_2
_ccdc_geom_bond_type
C38   H60   S    
C54   H18   S    
C17   P6    S    
C39   C40   S    
H54   O22   S    
Ba1   O27   S    
C15   P1    S    
O15   P2    D    
Ba1   O10   S    
O31   P5    S    
C16   H11   S    
C34   H9    S    
H53   O21   S    
C28   O29   S    
O28   P8    S    
C12   O14   S    
C43   C44   A    
H55   O24   S    
Ba2   O27   S    
C13   C17   A    
C12   H1    S    
C44   H44   S    
C53   O21   S    
C38   H2    S    
O4    P1    S    
C41   H41   S    
C36   C37   S    
C36   H56   S    
C45   O3    S    
Ba2   O30   S    
C47   C52   A    
C46   H46   S    
O14   P6    S    
Ba2   O26   S    
C54   C55   S    
Ba1   Ba2   S    
Ba1   O1    S    
C54   O9    S    
O26   P4    D    
C23   O7    S    
Ba1   O4    S    
C28   H38   S    
O10   P6    S    
C6    C56   D    
C2    C17   A    
C1    H10   S    
C50   H49   S    
C14   C15   A    
C29   H31   S    
C5    P4    S    
C48   H47   S    
C21   C22   A    
C3    C5    D    
C4    O24   S    
C7    C8    S    
O9    P8    S    
C5    C56   S    
C39   O19   S    
O7    P7    S    
O27   P4    S    
O1    P1    D    
Ba2   O4    S    
C54   H17   S    
C35   H12   S    
C16   H37   S    
C53   H16   S    
C55   H22   S    
C35   H23   S    
C39   H4    S    
Ba1   O15   S    
C6    P8    S    
C14   H24   S    
Ba2   O31   S    
C31   C32   T    
H57   O25   S    
C37   O18   S    
C1    H3    S    
C4    C16   S    
C18   H33   S    
C44   C46   A    
O3    P5    S    
C23   H8    S    
H40   O19   S    
C49   C50   A    
C55   H19   S    
H52   O20   S    
C23   H7    S    
C26   C33   A    
O11   P6    D    
C6    C7    S    
C51   C52   A    
C28   O25   S    
C28   C35   S    
C41   C42   A    
Ba1   O5    S    
C36   H45   S    
C22   H30   S    
C33   H35   S    
C29   C30   A    
C2    H26   S    
C10   C13   S    
C21   C32   S    
O16   P3    S    
O2    P5    D    
C48   C49   A    
C20   H32   S    
Ba1   P1    S    
C40   C46   A    
C4    O23   S    
C25   H29   S    
C7    C9    S    
C45   H13   S    
C1    C12   S    
C43   H43   S    
C2    C15   A    
C38   C39   S    
C47   C48   A    
Ba2   P4    S    
O6    P7    D    
C16   H36   S    
C40   C41   A    
Ba1   O16   S    
C25   C26   A    
C50   C51   A    
C3    O22   S    
C45   C53   S    
O8    P8    D    
C38   O12   S    
C35   H34   S    
C25   C30   A    
C55   H20   S    
O5    P2    S    
C42   C43   A    
C22   C24   A    
O13   P1    S    
C9    C10   D    
Ba2   O6    S    
Ba2   O28   S    
C27   C33   A    
C10   H28   S    
C36   O13   S    
C11   C13   A    
C3    C8    S    
C27   C29   A    
C37   H59   S    
C56   H25   S    
C30   C31   S    
C42   H42   S    
C51   H50   S    
C4    H21   S    
C18   C24   A    
C9    H27   S    
C49   H48   S    
C12   H5    S    
C24   P3    S    
Ba1   P2    S    
C19   P2    S    
C1    H6    S    
O29   P4    S    
C45   H14   S    
C23   C34   S    
C53   H15   S    
C18   C19   A    
C52   H51   S    
C37   H58   S    
C11   C14   A    
O12   P2    S    
C26   P7    S    
C20   C21   A    
Ba1   O30   S    
O30   P7    S    
H39   O18   S    
C19   C20   A    
C34   O20   S    
Ba2   O5    S    
C34   C47   S    
O17   P3    D    
O23   P3    S    
C27   P5    S    
