data_mof_unit_66642.cif
_audit_creation_date              2012-12-10T19:43:24-0500
_audit_creation_method            fapswitch 2.2
_symmetry_space_group_name_H-M    P1
_symmetry_Int_Tables_number       1
_space_group_crystal_system       triclinic
_cell_length_a                    11.429547
_cell_length_b                    11.295033
_cell_length_c                    9.972143
_cell_angle_alpha                 92.599377
_cell_angle_beta                  91.919073
_cell_angle_gamma                 96.371295
_cell_volume                      1277.14469271

loop_
_atom_site_label
_atom_site_type_symbol
_atom_type_description
_atom_site_fract_x
_atom_site_fract_y
_atom_site_fract_z
_atom_type_partial_charge
C1    C     C_R   0.500320 0.262374 0.499507 0.837905
C2    C     C_R   0.129560 0.803340 0.104302 0.227970
C3    C     C_R   0.940328 0.549781 0.407217 -0.027630
C4    C     C_R   0.875165 0.489629 0.505872 -0.054845
C5    C     C_R   0.948035 0.434597 0.601754 0.125306
C6    C     C_R   0.069844 0.430690 0.583549 -0.117802
C7    C     C_R   0.131744 0.496348 0.490612 -0.048717
C8    C     C_R   0.064877 0.559344 0.403323 0.095049
C9    C     C_R   0.919846 0.532120 0.819825 0.328156
C10   C     C_R   0.892115 0.528608 0.954556 0.255468
C11   C     C_R   0.887479 0.420774 0.017505 0.253111
C12   C     C_R   0.264396 0.501923 0.497192 0.790512
C13   C     C_R   0.932925 0.324157 0.954188 0.136201
C14   C     C_R   0.949211 0.323474 0.814694 0.051244
C15   C     C_R   0.924693 0.425374 0.744493 -0.136388
C16   C     C_R   0.541264 0.126347 0.755406 0.128669
C17   C     C_R   0.503675 0.075747 0.873621 0.398595
C18   C     C_R   0.448925 0.959716 0.867365 0.135769
C19   C     C_R   0.441813 0.890809 0.748704 -0.222860
C20   C     C_R   0.481861 0.939754 0.630055 0.044435
C21   C     C_R   0.511857 0.066473 0.629034 -0.040592
C22   C     C_R   0.499886 0.126292 0.505176 -0.148172
C23   C     C_R   0.491346 0.735337 0.502828 0.843555
C24   C     C_R   0.463962 0.049923 0.392263 0.480973
C25   C     C_R   0.467901 0.926404 0.392699 -0.128289
C26   C     C_R   0.482470 0.868385 0.510179 -0.115331
C27   C     C_R   0.625774 0.698223 0.155767 0.353304
C28   C     C_R   0.652743 0.805684 0.097122 0.325264
C29   C     C_R   0.667112 0.806384 0.961381 0.088269
C30   C     C_R   0.634750 0.701309 0.878659 0.121762
C31   C     C_R   0.567214 0.594926 0.932619 0.028520
C32   C     C_R   0.567069 0.593260 0.081863 0.037730
C33   C     C_R   0.427132 0.423056 0.065350 0.294144
C34   C     C_R   0.737873 0.493314 0.502445 0.850318
C35   C     C_R   0.430460 0.419177 0.920422 0.260928
C36   C     C_R   0.114883 0.846011 0.237113 0.330356
C37   C     C_R   0.114211 0.768079 0.342292 0.304502
C38   C     C_R   0.118542 0.646091 0.313202 -0.095177
C39   C     C_R   0.142380 0.606223 0.184458 -0.236963
C40   C     C_R   0.156311 0.684921 0.082092 0.135293
Cu1   Cu    Cu3+1 0.499990 0.499990 0.640660 1.051785
Cu2   Cu    Cu3+1 0.500010 0.500010 0.359340 1.114173
H1    H     H_    0.398878 0.801036 0.750194 0.223391
H2    H     H_    0.445725 0.872080 0.303197 0.193818
H3    H     H_    0.141439 0.512344 0.161074 0.205602
H4    H     H_    0.895570 0.596919 0.334394 0.246103
H5    H     H_    0.121837 0.390228 0.657239 0.186379
N1    N     N_R   0.501190 0.501210 0.147910 -0.207684
N2    N     N_R   0.501230 0.501290 0.852040 -0.207071
O1    O     O_R   0.499990 0.319640 0.618810 -0.573467
O2    O     O_R   0.500000 0.319660 0.381240 -0.495860
O3    O     O_R   0.319640 0.500000 0.618780 -0.556743
O4    O     O_R   0.319650 0.500020 0.381210 -0.585403
O5    O     O_R   0.500000 0.680340 0.618760 -0.591573
O6    O     O_R   0.500010 0.680360 0.381190 -0.570897
O7    O     O_R   0.680350 0.499980 0.618790 -0.565345
O8    O     O_R   0.680360 0.500000 0.381220 -0.476891
I1    I     I_    0.105213 0.914591 0.940310 0.070334
Cl1   Cl    Cl    0.813640 0.401230 0.167051 -0.501784
I2    I     I_    0.973719 0.186216 0.075262 0.051599
I3    I     I_    0.986360 0.163714 0.706703 -0.063603
Cl2   Cl    Cl    0.375912 0.095620 0.266639 -0.456382
I4    I     I_    0.680443 0.261356 0.783177 -0.224066
Cl3   Cl    Cl    0.538409 0.152898 0.030403 -0.427506
I5    I     I_    0.398513 0.875849 0.037353 -0.312405
I6    I     I_    0.282915 0.326527 0.151469 -0.106690
Cl4   Cl    Cl    0.092881 0.994908 0.274597 -0.369581
Cl5   Cl    Cl    0.718417 0.708417 0.300437 -0.479667
Cl6   Cl    Cl    0.685891 0.941081 0.199815 -0.399936
I7    I     I_    0.763408 0.970623 0.900822 -0.021859
I8    I     I_    0.729274 0.736278 0.697598 -0.059151
I9    I     I_    0.307921 0.290652 0.809975 -0.220166
Cl7   Cl    Cl    0.098427 0.821552 0.509042 -0.419731
I10   I     I_    0.222440 0.614062 0.903578 -0.312883
Cl8   Cl    Cl    0.980628 0.666806 0.754485 -0.447910
Cl9   Cl    Cl    0.878097 0.659991 0.047780 -0.579471

loop_
_geom_bond_atom_site_label_1
_geom_bond_atom_site_label_2
_ccdc_geom_bond_type
C34   O7    A    
C16   C21   A    
Cu1   Cu2   S    
C28   Cl6   S    
C30   I8    S    
C36   Cl4   S    
C7    C8    A    
C13   I2    S    
C18   I5    S    
C37   C38   A    
C36   C37   A    
C17   Cl3   S    
C5    C6    A    
Cu2   O8    S    
C18   C19   A    
C23   C26   S    
C27   Cl5   S    
C10   Cl9   S    
C19   C20   A    
C16   C17   A    
C35   N2    A    
C34   O8    A    
C16   I4    S    
C1    O1    A    
Cu1   O3    S    
C12   O4    A    
Cu2   O2    S    
C39   H3    S    
C1    C22   S    
C21   C22   A    
C32   N1    A    
C8    C38   S    
C31   N2    A    
C11   Cl1   S    
C25   H2    S    
Cu1   N2    S    
C12   O3    A    
C19   H1    S    
C33   I6    S    
C7    C12   S    
C4    C34   S    
C6    H5    S    
C38   C39   A    
C24   C25   A    
C3    C8    A    
C39   C40   A    
C25   C26   A    
C14   I3    S    
Cu1   O7    S    
C29   C30   A    
Cu2   O6    S    
C31   C32   A    
C17   C18   A    
Cu2   N1    S    
C1    O2    A    
C35   I9    S    
C22   C24   A    
C3    C4    A    
Cu1   O1    S    
C23   O5    A    
C29   I7    S    
C9    C10   A    
C2    C36   A    
C37   Cl7   S    
C28   C29   A    
C24   Cl2   S    
C27   C32   A    
C4    C5    A    
C2    I1    S    
C23   O6    A    
C6    C7    A    
C3    H4    S    
C9    C15   A    
Cu2   O4    S    
C11   C13   A    
C30   C31   A    
C20   C26   A    
C33   C35   A    
C40   I10   S    
Cu1   O5    S    
C5    C15   S    
C10   C11   A    
C2    C40   A    
C20   C21   A    
C27   C28   A    
C33   N1    A    
C14   C15   A    
C9    Cl8   S    
C13   C14   A    
