data_mof_unit_50907.cif
_audit_creation_date              2012-12-11T17:39:34-0500
_audit_creation_method            fapswitch 2.2
_symmetry_space_group_name_H-M    P1
_symmetry_Int_Tables_number       1
_space_group_crystal_system       triclinic
_cell_length_a                    15.117832
_cell_length_b                    15.109065
_cell_length_c                    14.857041
_cell_angle_alpha                 108.614565
_cell_angle_beta                  109.508001
_cell_angle_gamma                 110.492634
_cell_volume                      2605.34407129

loop_
_atom_site_label
_atom_site_type_symbol
_atom_type_description
_atom_site_fract_x
_atom_site_fract_y
_atom_site_fract_z
_atom_type_partial_charge
C1    C     C_R   0.909372 0.914950 0.715524 -0.150658
C2    C     C_R   0.908245 0.685465 0.442352 -0.088145
C3    C     C_R   0.701401 0.788606 0.197110 -0.119242
C4    C     C_R   0.091504 0.298844 0.496478 -0.165341
C5    C     C_R   0.299823 0.000402 0.591992 -0.178025
C6    C     C_R   0.642581 0.691582 0.191773 0.147179
C7    C     C_R   0.358961 0.055027 0.555604 0.069530
C8    C     C_R   0.000593 0.677601 0.458938 0.148689
C9    C     C_R   0.004174 0.947344 0.178183 0.085306
C10   C     C_R   0.480211 0.676532 0.344561 -0.124352
C11   C     C_R   0.499222 0.782539 0.384836 -0.116407
C12   C     C_R   0.001359 0.302928 0.440625 0.115846
C13   C     C_R   0.521937 0.841211 0.492403 0.120331
C14   C     C_R   0.524421 0.792234 0.558425 -0.194707
C15   C     C_R   0.506361 0.686647 0.518221 -0.121029
C16   C     C_R   0.247706 0.220463 0.813256 -0.165448
C17   C     C_R   0.484251 0.628784 0.411298 -0.095977
C18   C     C_R   0.458487 0.964836 0.547469 -0.219082
C19   C     C_R   0.458769 0.061529 0.567258 0.045158
C20   C     C_R   0.545518 0.152486 0.583082 0.087876
C21   C     C_R   0.632100 0.142794 0.578611 -0.150722
C22   C     C_R   0.628156 0.043611 0.553217 0.032301
C23   C     C_R   0.273094 0.321972 0.823515 0.147760
C24   C     C_R   0.539679 0.952788 0.535245 0.016261
C25   C     C_R   0.560710 0.297630 0.530280 0.766448
C26   C     C_R   0.546453 0.385576 0.536278 -0.280073
C27   C     C_R   0.513505 0.429201 0.607833 -0.177977
C28   C     C_R   0.741816 0.055215 0.464986 -0.138496
C29   C     C_R   0.497193 0.386644 0.675378 -0.079522
C30   C     C_R   0.516478 0.302543 0.673926 -0.242981
C31   C     C_R   0.544495 0.254301 0.598486 -0.095413
C32   C     C_R   0.771026 0.103247 0.100111 -0.154928
C33   C     C_R   0.855963 0.209202 0.180678 -0.142002
C34   C     C_R   0.712175 0.032898 0.537126 0.048567
C35   C     C_R   0.834899 0.282147 0.243593 0.204172
C36   C     C_R   0.727517 0.248816 0.222469 -0.120850
C37   C     C_R   0.643425 0.142513 0.143170 -0.127236
C38   C     C_R   0.665195 0.069726 0.082511 -0.037061
C39   C     C_R   0.927772 0.483179 0.349136 0.683580
C40   C     C_R   0.247952 0.312135 0.720950 -0.127089
C41   C     C_R   0.007438 0.582182 0.445813 -0.167305
C42   C     C_R   0.089852 0.587964 0.532826 0.023637
C43   C     C_R   0.090761 0.495019 0.520872 -0.231605
C44   C     C_R   0.007084 0.395251 0.429147 -0.018834
C45   C     C_R   0.702817 0.695909 0.287467 -0.120048
C46   C     C_R   0.925762 0.387921 0.340477 -0.184635
C47   C     C_R   0.282745 0.735299 0.670242 -0.435885
C48   C     C_R   0.361181 0.834348 0.768001 0.511530
C49   C     C_R   0.327009 0.887290 0.833611 0.548100
C50   C     C_R   0.218198 0.834518 0.808584 -0.357090
C51   C     C_R   0.141114 0.734649 0.712880 -0.201710
C52   C     C_R   0.749323 0.968523 0.562966 -0.101998
C53   C     C_R   0.172408 0.686817 0.641088 0.118497
C54   C     C_2   0.365802 0.519058 0.933997 -0.094458
C55   C     C_2   0.323840 0.421051 0.926420 -0.227980
C56   C     C_R   0.299910 0.088255 0.496742 -0.120286
C57   C     C_2   0.462649 0.614748 0.035198 -0.087984
C58   C     C_2   0.532778 0.603271 0.107707 -0.254548
C59   C     C_R   0.393847 0.214399 0.121781 -0.096931
C60   C     C_R   0.305786 0.110526 0.077007 -0.043547
C61   C     C_R   0.199659 0.093214 0.043122 0.132692
C62   C     C_R   0.183394 0.181373 0.054537 -0.140033
C63   C     C_R   0.271671 0.284951 0.099214 -0.139573
C64   C     C_R   0.909619 0.211345 0.411168 -0.128102
C65   C     C_R   0.376835 0.301483 0.132846 -0.136187
C66   C     C_R   0.109148 0.950881 0.080732 0.568782
C67   C     C_R   0.090448 0.780380 0.521771 -0.133016
C68   C     C_R   0.009705 0.898677 0.077716 -0.146711
C69   C     C_R   0.913749 0.829693 0.974489 0.028570
C70   C     C_R   0.913994 0.844406 0.886129 -0.248393
C71   C     C_R   0.007106 0.929335 0.902974 -0.010262
C72   C     C_R   0.106302 0.985862 0.004298 -0.152285
C73   C     C_R   0.829949 0.679981 0.011093 -0.136352
C74   C     C_R   0.739644 0.599211 0.000635 -0.172790
C75   C     C_R   0.635306 0.578904 0.938336 -0.251042
C76   C     C_R   0.090612 0.003556 0.802971 -0.140549
C77   C     C_R   0.620853 0.639217 0.886241 0.762983
C78   C     C_R   0.911651 0.934350 0.187628 -0.125984
C79   C     C_R   0.710828 0.719120 0.895088 -0.366412
C80   C     C_R   0.816476 0.740955 0.958586 0.092964
C81   C     C_R   0.001869 0.953853 0.813681 0.104985
C82   C     C_3   0.513468 0.820292 0.815985 -0.218374
C83   C     C_3   0.418338 0.067707 0.893048 -0.258688
C84   C     C_3   0.213690 0.901355 0.180099 -0.278524
C85   C     C_R   0.093694 0.027981 0.280701 -0.124483
F1    F     F_    0.584636 0.251584 0.454089 -0.732230
F2    F     F_    0.851122 0.479313 0.264867 -0.725416
F3    F     F_    0.519291 0.619539 0.826442 -0.781132
H1    H     H_    0.826139 0.857707 0.687985 0.093932
H2    H     H_    0.461825 0.631128 0.261487 0.120628
H3    H     H_    0.495896 0.818737 0.332414 0.112330
H4    H     H_    0.174948 0.351324 0.519895 0.107439
H5    H     H_    0.541969 0.836790 0.641331 0.154937
H6    H     H_    0.509367 0.649718 0.569897 0.111014
H7    H     H_    0.388902 0.893951 0.530636 0.141221
H8    H     H_    0.701098 0.211114 0.591504 0.153754
H9    H     H_    0.557812 0.417909 0.483048 0.149435
H10   H     H_    0.499284 0.495037 0.609988 0.158723
H11   H     H_    0.467316 0.417144 0.727384 0.162818
H12   H     H_    0.327345 0.141706 0.465791 0.118698
H13   H     H_    0.503448 0.270944 0.727224 0.150987
H14   H     H_    0.600174 0.987033 0.023185 0.153614
H15   H     H_    0.258195 0.200358 0.878099 0.122270
H16   H     H_    0.787699 0.046413 0.053288 0.117895
H17   H     H_    0.938463 0.233265 0.196711 0.119503
H18   H     H_    0.710076 0.303187 0.271545 0.144621
H19   H     H_    0.561940 0.115807 0.130886 0.165196
H20   H     H_    0.151736 0.500113 0.590046 0.149042
H21   H     H_    0.306808 0.698272 0.614743 0.174281
H22   H     H_    0.192878 0.872341 0.862056 0.165790
H23   H     H_    0.174180 0.802984 0.547179 0.118422
H24   H     H_    0.720666 0.098931 0.424787 0.131268
H25   H     H_    0.056467 0.696823 0.692355 0.154271
H26   H     H_    0.342271 0.527633 0.861284 0.162801
H27   H     H_    0.341298 0.413311 0.999489 0.136778
H28   H     H_    0.484904 0.693531 0.040563 0.130912
H29   H     H_    0.513915 0.524975 0.102174 0.137786
H30   H     H_    0.445184 0.381854 0.167912 0.104845
H31   H     H_    0.475516 0.227729 0.148759 0.121614
H32   H     H_    0.320302 0.043937 0.069547 0.159205
H33   H     H_    0.102592 0.170124 0.030548 0.119809
H34   H     H_    0.827462 0.881866 0.123508 0.114578
H35   H     H_    0.258640 0.352596 0.108541 0.118905
H36   H     H_    0.257140 0.374912 0.698889 0.108568
H37   H     H_    0.840849 0.792367 0.806210 0.137794
H38   H     H_    0.910494 0.695143 0.060357 0.128220
H39   H     H_    0.750584 0.552617 0.041182 0.174660
H40   H     H_    0.565541 0.515791 0.929966 0.151050
H41   H     H_    0.698452 0.765523 0.854768 0.133205
H42   H     H_    0.737574 0.935093 0.614984 0.108807
H43   H     H_    0.825218 0.184545 0.360462 0.113852
H44   H     H_    0.172978 0.023675 0.851692 0.104217
H45   H     H_    0.178416 0.064792 0.305321 0.173338
H46   H     H_    0.674095 0.640274 0.316019 0.092072
H47   H     H_    0.481410 0.746247 0.738706 0.174751
H48   H     H_    0.497928 0.797569 0.875836 0.164212
H49   H     H_    0.603195 0.868269 0.852341 0.149468
H50   H     H_    0.340507 0.061477 0.842980 0.119040
H51   H     H_    0.463294 0.062988 0.847503 0.186451
H52   H     H_    0.469963 0.149226 0.967318 0.170147
H53   H     H_    0.156361 0.865545 0.206682 0.148156
H54   H     H_    0.196955 0.837813 0.102625 0.139466
H55   H     H_    0.297319 0.932057 0.244843 0.191717
H56   H     H_    0.824598 0.620019 0.399547 0.132391
H57   H     H_    0.672520 0.817396 0.142115 0.085807
H58   H     H_    0.327247 0.973834 0.649784 0.102115
H59   H     H_    0.469854 0.546858 0.380009 0.105040
N1    N     N_R   0.941940 0.944580 0.650780 -0.039931
N2    N     N_R   0.204460 0.150250 0.707090 -0.043920
N3    N     N_R   0.794270 0.003240 0.446420 -0.045478
N4    N     N_R   0.204920 0.207570 0.650770 -0.043346
N5    N     N_R   0.793810 0.945920 0.502740 -0.042947
N6    N     N_R   0.943620 0.152590 0.446420 -0.042178
N7    N     N_R   0.055110 0.000900 0.707100 -0.039544
N8    N     N_R   0.795080 0.792430 0.349230 -0.042395
N9    N     N_R   0.206190 0.054080 0.497260 -0.043507
N10   N     N_R   0.056380 0.847410 0.553580 -0.046998
N11   N     N_R   0.944890 0.999100 0.292900 -0.044451
N12   N     N_R   0.058060 0.055420 0.349220 -0.051678
N13   N     N_R   0.943200 0.791100 0.497260 -0.056731
N14   N     N_R   0.795540 0.849750 0.292910 -0.045702
N15   N     N_R   0.205730 0.996760 0.553580 -0.037308
N16   N     N_R   0.056800 0.208900 0.502740 -0.039301
Ni1   Ni    Ni4+2 0.869690 0.869690 0.500000 0.217240
Ni2   Ni    Ni4+2 0.130310 0.130310 0.500000 0.216622
Ni3   Ni    Ni4+2 0.129250 0.998840 0.629170 0.206704
Ni4   Ni    Ni4+2 0.870750 0.001160 0.370830 0.213879
O1    O     O_3   0.469682 0.884968 0.795791 -0.634583
O2    O     O_3   0.400564 0.988221 0.926013 -0.640000
O3    O     O_3   0.209409 0.989224 0.168768 -0.635906

loop_
_geom_bond_atom_site_label_1
_geom_bond_atom_site_label_2
_ccdc_geom_bond_type
C25   C31   A    
C66   C68   A    
C63   C65   A    
C27   H10   S    
C28   N3    A    
C6    C45   A    
C27   C29   A    
C2    H56   S    
C41   C42   A    
C6    C58   S    
C35   C36   A    
C39   F2    S    
C56   N9    A    
C3    C6    A    
C15   H6    S    
C83   H51   S    
C39   C41   A    
C82   O1    S    
C28   H24   S    
C45   H46   S    
C37   C38   A    
N6    N16   A    
C18   C24   A    
N13   Ni1   S    
C36   C37   A    
N16   Ni2   S    
C37   H19   S    
C82   H49   S    
C84   O3    S    
N2    N4    A    
C42   C53   S    
C30   C31   A    
C12   C64   A    
C84   H53   S    
C10   C17   A    
C1    C81   A    
C73   H38   S    
C79   H41   S    
C54   H26   S    
C50   H22   S    
C75   H40   S    
C73   C74   A    
C82   H47   S    
C9    C85   A    
N15   Ni3   S    
C78   N11   A    
C66   C72   A    
C74   H39   S    
C77   F3    S    
C68   C69   A    
C59   H31   S    
C65   H30   S    
C32   H16   S    
C70   C71   A    
C45   N8    A    
C32   C38   A    
C43   H20   S    
C4    C12   A    
C29   C30   A    
C14   H5    S    
C47   C53   A    
N9    N15   A    
C59   C60   A    
C13   C14   A    
N6    Ni4   S    
C18   H7    S    
C61   C62   A    
N1    N7    A    
C7    C56   A    
C40   H36   S    
C83   H52   S    
C44   C46   A    
N11   Ni4   S    
C57   H28   S    
C77   C79   A    
C22   C34   S    
C16   N2    A    
C74   C75   A    
C29   H11   S    
C36   H18   S    
N1    Ni1   S    
C33   H17   S    
C8    C41   S    
C66   O3    S    
N7    Ni3   S    
C5    C7    A    
C18   C19   A    
C84   H55   S    
C25   C26   A    
N4    Ni2   S    
C64   N6    A    
C58   H29   S    
N8    N14   A    
N12   Ni2   S    
C40   N4    A    
C60   C61   A    
C51   C53   A    
C76   C81   A    
C43   C44   A    
C62   C63   A    
C16   H15   S    
C47   C48   A    
C48   O1    S    
C64   H43   S    
C84   H54   S    
C52   N5    A    
C50   C51   A    
C26   C27   A    
C4    N16   A    
C67   N10   A    
N5    Ni1   S    
C75   C77   A    
N14   Ni4   S    
C39   C46   A    
C61   C72   S    
C67   H23   S    
C48   C49   A    
C3    H57   S    
N10   N13   A    
C7    C19   S    
N11   N12   A    
C13   C24   S    
C22   C24   A    
C42   C43   A    
C56   H12   S    
C70   H37   S    
C15   C17   A    
C54   C55   D    
C1    H1    S    
C5    H58   S    
C17   H59   S    
C51   H25   S    
C2    C8    A    
N2    Ni3   S    
C69   C80   S    
N10   Ni3   S    
C63   H35   S    
C23   C55   S    
C21   H8    S    
N8    Ni1   S    
C16   C23   A    
C34   C52   A    
C52   H42   S    
C5    N15   A    
C19   C20   A    
C9    C68   S    
C71   C72   A    
C38   H14   S    
C47   H21   S    
C76   H44   S    
C32   C33   A    
C49   O2    S    
C11   C13   A    
C57   C58   D    
C55   H27   S    
N9    Ni2   S    
N3    Ni4   S    
C83   O2    S    
C30   H13   S    
C76   N7    A    
C25   F1    S    
C33   C35   A    
C73   C80   A    
C60   H32   S    
N3    N5    A    
C9    C78   A    
C62   H33   S    
C82   H48   S    
C69   C70   A    
C78   H34   S    
C10   C11   A    
C3    N14   A    
C26   H9    S    
C28   C34   A    
C79   C80   A    
C11   H3    S    
C20   C21   A    
C10   H2    S    
C8    C67   A    
C2    N13   A    
C49   C50   A    
C14   C15   A    
C12   C44   S    
C1    N1    A    
C85   N12   A    
C4    H4    S    
C21   C22   A    
C35   C46   S    
C54   C57   S    
C83   H50   S    
C59   C65   A    
C23   C40   A    
C85   H45   S    
C71   C81   S    
C20   C31   S    
