data_mof_unit_35627.cif
_audit_creation_date              2012-12-10T18:38:11-0500
_audit_creation_method            fapswitch 2.2
_symmetry_space_group_name_H-M    P1
_symmetry_Int_Tables_number       1
_space_group_crystal_system       triclinic
_cell_length_a                    15.074285
_cell_length_b                    15.417686
_cell_length_c                    27.683567
_cell_angle_alpha                 92.560649
_cell_angle_beta                  104.73276
_cell_angle_gamma                 82.002472
_cell_volume                      6161.61290122

loop_
_atom_site_label
_atom_site_type_symbol
_atom_type_description
_atom_site_fract_x
_atom_site_fract_y
_atom_site_fract_z
_atom_type_partial_charge
Br1   Br    Br    0.241988 0.584129 0.540801 -0.571179
Br2   Br    Br    0.760529 0.410276 0.462682 -0.536142
Br3   Br    Br    0.325900 0.336129 0.396110 -0.555535
Br4   Br    Br    0.669320 0.674193 0.598460 -0.563154
Br5   Br    Br    0.253373 0.683443 0.102959 -0.450425
Br6   Br    Br    0.566547 0.218210 0.866213 -0.443921
C1    C     C_R   0.442523 0.662638 0.493058 0.908479
C2    C     C_R   0.418992 0.551238 0.116591 -0.113453
C3    C     C_R   0.504818 0.499929 0.647309 -0.088262
C4    C     C_R   0.495150 0.498365 0.352700 -0.067962
C5    C     C_R   0.422709 0.551812 0.015240 -0.017865
C6    C     C_R   0.516154 0.407681 0.974042 -0.018079
C7    C     C_R   0.525460 0.412883 0.026340 0.065621
C8    C     C_R   0.439682 0.558779 0.967619 0.064344
C9    C     C_R   0.474274 0.482893 0.046329 0.024487
C10   C     C_R   0.481622 0.484608 0.945912 0.023019
C11   C     C_R   0.355449 0.610081 0.032419 0.117306
C12   C     C_R   0.558006 0.337475 0.507880 0.933239
C13   C     C_R   0.538767 0.328559 0.949072 0.114967
C14   C     C_R   0.353751 0.610071 0.083075 0.270280
C15   C     C_R   0.543356 0.330080 0.898887 0.267409
C16   C     C_R   0.501511 0.500255 0.594020 0.909146
C17   C     C_R   0.498502 0.499657 0.405996 0.909726
C18   C     C_R   0.420001 0.638730 0.942351 -0.244200
C19   C     C_R   0.588836 0.353546 0.059375 -0.243971
C20   C     C_R   0.410348 0.756598 0.496587 -0.150422
C21   C     C_R   0.593731 0.245411 0.520915 -0.142602
C22   C     C_R   0.294207 0.872008 0.514661 0.224317
C23   C     C_R   0.490046 0.487919 0.896395 -0.146449
C24   C     C_R   0.720455 0.133894 0.560736 0.225637
C25   C     C_R   0.320836 0.784632 0.501920 -0.234696
C26   C     C_R   0.687132 0.221121 0.545556 -0.247520
C27   C     C_R   0.473970 0.817341 0.502195 0.172459
C28   C     C_R   0.532466 0.182909 0.512795 0.118088
C29   C     C_R   0.454245 0.899733 0.523348 0.017512
C30   C     C_R   0.560102 0.102632 0.537573 -0.000217
C31   C     C_R   0.361612 0.930265 0.524973 0.044384
C32   C     C_R   0.655778 0.073544 0.555646 0.061057
C33   C     C_R   0.522968 0.955945 0.538611 0.104926
C34   C     C_R   0.475941 0.484671 0.097540 -0.147777
C35   C     C_R   0.494914 0.046123 0.538576 0.099471
C36   C     C_R   0.403234 0.077197 0.539833 -0.212090
C37   C     C_R   0.618232 0.925470 0.555440 -0.174938
C38   C     C_R   0.338157 0.019530 0.534904 -0.208290
C39   C     C_R   0.683431 0.984204 0.566660 -0.213776
C40   C     C_R   0.474997 0.570256 0.821422 0.503015
C41   C     C_R   0.533334 0.422024 0.180132 0.557129
C42   C     C_R   0.853287 0.612825 0.588853 0.086618
C43   C     C_R   0.144497 0.397868 0.407350 0.081078
C44   C     C_R   0.758810 0.607627 0.568098 0.247494
C45   C     C_R   0.464146 0.568376 0.870240 -0.034645
C46   C     C_R   0.239277 0.398137 0.429530 0.278064
C47   C     C_R   0.793934 0.510512 0.504217 0.284298
C48   C     C_R   0.206281 0.487891 0.496512 0.282502
C49   C     C_R   0.887336 0.526659 0.518562 -0.134934
C50   C     C_R   0.111822 0.474261 0.481087 -0.132663
C51   C     C_R   0.918823 0.565415 0.565967 0.005776
C52   C     C_R   0.079371 0.440473 0.432163 -0.008095
C53   C     C_R   0.951433 0.501913 0.489028 0.090026
C54   C     C_R   0.047604 0.497987 0.510918 0.094099
C55   C     C_R   0.076460 0.512615 0.562648 -0.248856
C56   C     C_R   0.535294 0.420181 0.129680 -0.040936
C57   C     C_R   0.921607 0.487599 0.437506 -0.239792
C58   C     C_R   0.014576 0.551830 0.589561 0.249400
C59   C     C_R   0.983053 0.452796 0.409522 0.261140
C60   C     C_R   0.535142 0.418328 0.824467 0.560199
C61   C     C_R   0.429111 0.555262 0.168596 0.540327
C62   C     C_R   0.589037 0.513641 0.734279 0.271903
C63   C     C_R   0.572463 0.504723 0.286113 0.272353
C64   C     C_R   0.585646 0.515090 0.683319 -0.195898
C65   C     C_R   0.575142 0.506062 0.336931 -0.266940
C66   C     C_R   0.426707 0.483908 0.662489 -0.187360
C67   C     C_R   0.429582 0.644150 0.893962 0.220115
C68   C     C_R   0.412095 0.488944 0.317221 -0.186142
C69   C     C_R   0.429101 0.483341 0.712791 -0.146383
C70   C     C_R   0.409143 0.486549 0.266710 -0.145778
C71   C     C_R   0.509399 0.498242 0.748644 0.246908
C72   C     C_R   0.488721 0.494316 0.250888 0.275825
C73   C     C_3   0.446865 0.128803 0.431982 -0.658093
C74   C     C_3   0.524998 0.795760 0.425260 -0.746321
C75   C     C_3   0.128677 0.848742 0.499434 -0.757967
C76   C     C_3   0.880025 0.169885 0.597883 -0.764294
C77   C     C_3   0.038767 0.505340 0.674418 -0.763126
C78   C     C_R   0.595005 0.356756 0.110478 0.228055
C79   C     C_3   0.924951 0.513876 0.327226 -0.799816
C80   C     C_3   0.897465 0.753640 0.619176 -0.709528
C81   C     C_3   0.121265 0.389883 0.316636 -0.657593
C82   C     C_3   0.305725 0.743690 0.845078 -0.667262
C83   C     C_3   0.748771 0.335115 0.164680 -0.694390
C84   C     C_3   0.659533 0.597253 0.253352 -0.795026
C85   C     C_3   0.751180 0.465824 0.772188 -0.746089
C86   C     C_3   0.209953 0.615180 0.969674 -0.716707
C87   C     C_3   0.459791 0.216411 0.971818 -0.705660
C88   C     C_R   0.524395 0.411076 0.873222 -0.117467
H1    H     H_    0.363526 0.471814 0.635595 0.188830
H2    H     H_    0.344863 0.478325 0.239633 0.162842
H3    H     H_    0.639776 0.513470 0.363918 0.183081
H4    H     H_    0.645921 0.528575 0.671938 0.193592
H5    H     H_    0.399212 0.699059 0.960335 0.169560
H6    H     H_    0.638966 0.307511 0.046445 0.167386
H7    H     H_    0.268546 0.046481 0.536118 0.158604
H8    H     H_    0.755325 0.958280 0.581381 0.152896
H9    H     H_    0.390468 0.217696 0.480349 0.251302
H10   H     H_    0.396514 0.083883 0.434191 0.224382
H11   H     H_    0.515371 0.089723 0.433588 0.231802
H12   H     H_    0.349292 0.483415 0.328370 0.194490
H13   H     H_    0.423566 0.161959 0.395380 0.273798
H14   H     H_    0.606136 0.759726 0.496601 0.267943
H15   H     H_    0.587797 0.795458 0.411237 0.239182
H16   H     H_    0.474167 0.852726 0.408916 0.249029
H17   H     H_    0.495233 0.734073 0.413002 0.228053
H18   H     H_    0.199036 0.932104 0.552913 0.227194
H19   H     H_    0.061196 0.887560 0.500118 0.237389
H20   H     H_    0.137992 0.789608 0.522626 0.262300
H21   H     H_    0.126887 0.829692 0.460049 0.251364
H22   H     H_    0.843826 0.053160 0.561786 0.221165
H23   H     H_    0.733999 0.269790 0.551043 0.203289
H24   H     H_    0.948701 0.136114 0.617828 0.241943
H25   H     H_    0.854035 0.216656 0.624441 0.249271
H26   H     H_    0.888906 0.205436 0.565747 0.247168
H27   H     H_    0.115293 0.587868 0.650136 0.238362
H28   H     H_    0.062678 0.527476 0.713738 0.241733
H29   H     H_    0.080976 0.442309 0.668966 0.229578
H30   H     H_    0.965046 0.495128 0.667544 0.249228
H31   H     H_    0.892044 0.400169 0.350985 0.239183
H32   H     H_    0.903795 0.494726 0.287220 0.242236
H33   H     H_    0.986419 0.549021 0.333021 0.257595
H34   H     H_    0.272401 0.737705 0.496573 0.220054
H35   H     H_    0.867022 0.558603 0.336529 0.231360
H36   H     H_    0.845325 0.668539 0.657986 0.266228
H37   H     H_    0.924654 0.789923 0.654164 0.239343
H38   H     H_    0.831495 0.790981 0.598168 0.232866
H39   H     H_    0.949090 0.748285 0.596444 0.242296
H40   H     H_    0.138548 0.283874 0.364313 0.247182
H41   H     H_    0.056448 0.385090 0.287315 0.241496
H42   H     H_    0.179628 0.354582 0.302904 0.244631
H43   H     H_    0.131149 0.460094 0.322483 0.234704
H44   H     H_    0.425724 0.778265 0.892283 0.222368
H45   H     H_    0.382395 0.145837 0.546291 0.146743
H46   H     H_    0.291666 0.806226 0.824410 0.241603
H47   H     H_    0.263761 0.749104 0.873069 0.212729
H48   H     H_    0.284769 0.690397 0.817950 0.253520
H49   H     H_    0.677545 0.237428 0.126250 0.224821
H50   H     H_    0.796963 0.287469 0.191135 0.241365
H51   H     H_    0.733875 0.396153 0.185755 0.258817
H52   H     H_    0.782848 0.349890 0.135361 0.212540
H53   H     H_    0.714435 0.486762 0.296057 0.233337
H54   H     H_    0.723553 0.595396 0.240254 0.240731
H55   H     H_    0.661452 0.646055 0.284273 0.243114
H56   H     H_    0.642444 0.856863 0.562400 0.184773
H57   H     H_    0.599419 0.617737 0.221662 0.266046
H58   H     H_    0.662445 0.548366 0.805458 0.237883
H59   H     H_    0.811455 0.485761 0.800660 0.239804
H60   H     H_    0.769145 0.460462 0.735591 0.236277
H61   H     H_    0.737700 0.400959 0.782519 0.272906
H62   H     H_    0.261062 0.722978 0.010076 0.264973
H63   H     H_    0.160888 0.659334 0.941501 0.234071
H64   H     H_    0.171974 0.592320 0.995180 0.260256
H65   H     H_    0.238175 0.558048 0.949700 0.243369
H66   H     H_    0.596393 0.198263 0.965668 0.264409
H67   H     H_    0.147371 0.493379 0.582915 0.176734
H68   H     H_    0.472876 0.155482 0.993873 0.237314
H69   H     H_    0.422709 0.202390 0.932743 0.258638
H70   H     H_    0.415673 0.266460 0.988563 0.243463
H71   H     H_    0.849805 0.504579 0.417984 0.174418
H72   H     H_    0.368364 0.471055 0.724164 0.143562
N1    N     N_R   0.508715 0.496052 0.799996 -0.371762
N2    N     N_2   0.946763 0.436252 0.357790 -0.273670
N3    N     N_2   0.882114 0.667540 0.631236 -0.262960
N4    N     N_2   0.115408 0.350100 0.362067 -0.268870
N5    N     N_2   0.403273 0.726573 0.869653 -0.247995
N6    N     N_2   0.664493 0.298057 0.142256 -0.249842
N7    N     N_2   0.654339 0.511427 0.270627 -0.301471
N8    N     N_2   0.671033 0.530432 0.770447 -0.298326
N9    N     N_2   0.283712 0.661998 0.997614 -0.314319
N10   N     N_2   0.546913 0.246647 0.972925 -0.314700
N11   N     N_R   0.483854 0.490489 0.198564 -0.357685
N12   N     N_R   0.731710 0.552720 0.528410 -0.143556
N13   N     N_R   0.268290 0.447280 0.471590 -0.145562
N14   N     N_2   0.452107 0.193647 0.471997 -0.265187
N15   N     N_2   0.549710 0.802735 0.479175 -0.310378
N16   N     N_2   0.202289 0.901478 0.519402 -0.308978
N17   N     N_2   0.817165 0.105668 0.580499 -0.304047
N18   N     N_2   0.049130 0.570954 0.641205 -0.275066
O1    O     O_R   0.383110 0.605620 0.485680 -0.582294
O2    O     O_2   0.579410 0.355887 0.210747 -0.518727
O3    O     O_2   0.387685 0.624346 0.189831 -0.497891
O4    O     O_2   0.572452 0.349448 0.801259 -0.499367
O5    O     O_R   0.616890 0.394380 0.514320 -0.584044
O6    O     O_R   0.531900 0.639510 0.503910 -0.586013
O7    O     O_R   0.468100 0.360490 0.496090 -0.582128
O8    O     O_R   0.425620 0.483050 0.562130 -0.589275
O9    O     O_R   0.574380 0.516950 0.437870 -0.591788
O10   O     O_R   0.574410 0.516930 0.580360 -0.588349
O11   O     O_R   0.425590 0.483070 0.419640 -0.580685
O12   O     O_2   0.452590 0.645179 0.795107 -0.517259
Zn1   Zn    Zn3+2 0.400660 0.477380 0.487830 1.020195
Zn2   Zn    Zn3+2 0.599340 0.522620 0.512170 1.013974

loop_
_geom_bond_atom_site_label_1
_geom_bond_atom_site_label_2
_ccdc_geom_bond_type
O5    Zn2   S    
C53   C54   A    
C57   C59   A    
H62   N9    S    
O11   Zn1   S    
C74   H16   S    
C60   O4    S    
C80   N3    S    
C4    C68   A    
C24   N17   S    
C28   N14   S    
C3    C66   A    
C76   H26   S    
C26   H23   S    
C75   H21   S    
C47   N12   A    
C41   C56   A    
C30   C35   A    
C42   C51   A    
C12   O5    A    
Br5   C14   S    
O10   Zn2   S    
C83   H51   S    
C65   H3    S    
C59   N2    S    
C24   C32   A    
C2    C14   A    
C1    C20   S    
C68   C70   A    
C60   N1    A    
C86   H65   S    
C55   H67   S    
C75   N16   S    
C44   N12   A    
C70   C72   A    
H49   N6    S    
C85   H59   S    
C49   C53   A    
C84   H55   S    
C43   N4    S    
C45   C67   A    
C5    C8    A    
C80   H37   S    
C15   C88   A    
C87   H69   S    
H36   N3    S    
O9    Zn2   S    
C18   H5    S    
H22   N17   S    
C11   C14   A    
C34   C56   A    
C48   N13   A    
C73   H11   S    
C86   H64   S    
H9    N14   S    
C35   C36   A    
C8    C18   A    
C63   C65   A    
C22   N16   S    
C13   N10   S    
C82   H46   S    
C32   C39   A    
C84   H54   S    
C80   H39   S    
C79   H35   S    
C66   H1    S    
C5    C9    A    
C6    C10   A    
C75   H20   S    
C19   C78   A    
C1    O6    A    
C77   H30   S    
C67   N5    S    
C60   C88   A    
H58   N8    S    
C4    C65   A    
C42   C44   A    
H44   N5    S    
C20   C25   A    
C86   N9    S    
C82   N5    S    
H66   N10   S    
C7    C19   A    
C63   C72   A    
C63   N7    S    
C76   H25   S    
C81   H43   S    
C66   C69   A    
C52   C59   A    
C82   H48   S    
C61   O3    S    
C47   C49   A    
C21   C28   A    
C83   H52   S    
C48   C50   A    
C12   O7    A    
C40   N1    A    
C25   H34   S    
C81   H41   S    
H31   N2    S    
C3    C64   A    
C85   H60   S    
C33   C35   A    
C61   N11   A    
C62   N8    S    
C33   C37   A    
N13   Zn1   S    
C87   H70   S    
C10   C23   A    
O8    Zn1   S    
C81   N4    S    
C40   C45   A    
C43   C52   A    
C50   C54   A    
C85   N8    S    
Br4   C44   S    
C86   H63   S    
C74   H15   S    
C55   C58   A    
C29   C33   A    
Br1   C48   S    
C85   H61   S    
C68   H12   S    
C37   C39   A    
C19   H6    S    
C84   N7    S    
C38   H7    S    
C43   C46   A    
C17   O9    A    
C73   H13   S    
C74   N15   S    
C41   O2    S    
C69   C71   A    
C37   H56   S    
H27   N18   S    
H14   N15   S    
C72   N11   S    
C7    C9    A    
C27   N15   S    
C8    C10   A    
C73   H10   S    
C79   H33   S    
C76   H24   S    
C16   O8    A    
C82   H47   S    
O6    Zn2   S    
C51   C58   A    
C23   C45   A    
C62   C71   A    
C56   C78   A    
C5    C11   A    
C29   C31   A    
C36   H45   S    
C79   N2    S    
C81   H42   S    
C1    O1    A    
C22   C25   A    
C16   O10   A    
C12   C21   S    
O7    Zn1   S    
C83   N6    S    
C84   H57   S    
C78   N6    S    
Br2   C47   S    
C74   H17   S    
H18   N16   S    
Br3   C46   S    
H53   N7    S    
C40   O12   S    
C4    C17   S    
C71   N1    S    
C83   H50   S    
C87   N10   S    
C53   C57   A    
C77   H29   S    
C31   C38   A    
C49   C51   A    
C36   C38   A    
C41   N11   A    
C70   H2    S    
C24   C26   A    
Br6   C15   S    
C80   H38   S    
C23   C88   A    
C22   C31   A    
C76   N17   S    
C6    C13   A    
C30   C32   A    
C27   C29   A    
C50   C52   A    
C77   N18   S    
C69   H72   S    
C28   C30   A    
C77   H28   S    
N12   Zn2   S    
C18   C67   A    
C87   H68   S    
C9    C34   A    
C46   N13   A    
C39   H8    S    
C21   C26   A    
C42   N3    S    
C58   N18   S    
C11   N9    S    
C57   H71   S    
C6    C7    A    
C2    C61   A    
C62   C64   A    
C3    C16   S    
H40   N4    S    
C75   H19   S    
C73   N14   S    
C54   C55   A    
C2    C34   A    
O1    Zn1   S    
C17   O11   A    
C64   H4    S    
C20   C27   A    
C79   H32   S    
C13   C15   A    
