data_mof_unit_51275.cif
_audit_creation_date              2012-12-10T16:57:51-0500
_audit_creation_method            fapswitch 2.2
_symmetry_space_group_name_H-M    P1
_symmetry_Int_Tables_number       1
_space_group_crystal_system       triclinic
_cell_length_a                    10.622111
_cell_length_b                    10.915879
_cell_length_c                    9.73422
_cell_angle_alpha                 89.274713
_cell_angle_beta                  90.628069
_cell_angle_gamma                 90.653688
_cell_volume                      1128.44975185

loop_
_atom_site_label
_atom_site_type_symbol
_atom_type_description
_atom_site_fract_x
_atom_site_fract_y
_atom_site_fract_z
_atom_type_partial_charge
C1    C     C_R   0.494287 0.265153 0.500867 0.797206
C2    C     C_3   0.956824 0.545859 0.378189 -0.182120
C3    C     C_3   0.037018 0.430273 0.399794 0.049605
C4    C     C_3   0.122462 0.500986 0.498915 -0.010203
C5    C     C_2   0.499023 0.933828 0.387167 -0.192205
C6    C     C_2   0.525720 0.865055 0.498092 -0.281344
C7    C     C_2   0.507712 0.067648 0.392589 -0.231082
C8    C     C_2   0.473847 0.132831 0.503143 -0.145928
C9    C     C_2   0.402704 0.471405 0.923965 -0.092477
C10   C     C_2   0.398368 0.493304 0.076535 -0.084100
C11   C     C_R   0.259468 0.500292 0.499485 0.780519
C12   C     C_R   0.506477 0.734154 0.499159 0.841900
C13   C     C_R   0.740475 0.502404 0.500552 0.788068
C14   C     C_3   0.042188 0.459539 0.621744 -0.163385
C15   C     C_3   0.955501 0.387621 0.521594 -0.215223
C16   C     C_3   0.877249 0.503774 0.501179 0.021619
C17   C     C_3   0.961487 0.575601 0.601341 -0.146148
C18   C     C_3   0.043831 0.617022 0.478682 -0.195181
Cu1   Cu    Cu3+1 0.500030 0.500020 0.638630 0.937232
Cu2   Cu    Cu3+1 0.499970 0.499980 0.361370 0.943836
H1    H     H_    0.916515 0.293931 0.538756 0.125817
H2    H     H_    0.319271 0.431762 0.876270 0.152182
H3    H     H_    0.306848 0.501729 0.123243 0.171468
H4    H     H_    0.579931 0.465622 0.112058 0.212011
H5    H     H_    0.079832 0.424620 0.721349 0.126760
H6    H     H_    0.927403 0.635870 0.683621 0.140725
H7    H     H_    0.083075 0.710599 0.461420 0.125891
H8    H     H_    0.917804 0.583690 0.280483 0.136407
H9    H     H_    0.471650 0.892320 0.290316 0.166282
H10   H     H_    0.561896 0.905585 0.591875 0.164019
H11   H     H_    0.544419 0.113695 0.301631 0.168079
N1    N     N_2   0.498620 0.498660 0.846910 -0.224796
N2    N     N_2   0.498590 0.498630 0.153040 -0.280375
O1    O     O_R   0.500020 0.321960 0.617040 -0.581243
O2    O     O_R   0.499980 0.321920 0.382900 -0.571892
O3    O     O_R   0.316870 0.499990 0.617050 -0.589763
O4    O     O_R   0.316830 0.499950 0.382910 -0.580387
O5    O     O_R   0.500020 0.678080 0.617100 -0.579693
O6    O     O_R   0.499980 0.678040 0.382960 -0.568289
O7    O     O_R   0.683170 0.500050 0.617090 -0.589181
O8    O     O_R   0.683130 0.500010 0.382950 -0.583441
C19   C     C_R   0.404809 0.077241 0.621725 0.134990
C20   C     C_R   0.457219 0.080462 0.754951 -0.129098
C21   C     C_R   0.398014 0.018259 0.863245 -0.174539
C22   C     C_R   0.286076 0.952920 0.839755 -0.135026
C23   C     C_R   0.231660 0.951704 0.708526 -0.136562
C24   C     C_R   0.290332 0.013895 0.599942 -0.143114
H12   H     H_    0.545951 0.127355 0.774026 0.132805
H13   H     H_    0.439255 0.020035 0.965371 0.119197
H14   H     H_    0.241009 0.904052 0.923607 0.116383
H15   H     H_    0.144657 0.901526 0.690603 0.121501
H16   H     H_    0.248386 0.009981 0.498218 0.120655
C25   C     C_R   0.591024 0.584158 0.895841 0.336765
C26   C     C_R   0.717557 0.549160 0.907640 -0.172439
C27   C     C_R   0.809086 0.632753 0.953150 -0.205873
C28   C     C_R   0.775258 0.752125 0.985871 -0.115660
C29   C     C_R   0.649904 0.788352 0.972563 -0.165744
C30   C     C_R   0.558025 0.705152 0.926895 -0.124616
H17   H     H_    0.744690 0.456704 0.883155 0.134405
H18   H     H_    0.906362 0.605192 0.962478 0.125045
H19   H     H_    0.846279 0.816690 0.021065 0.126216
H20   H     H_    0.624129 0.880979 0.997472 0.126006
H21   H     H_    0.461322 0.734349 0.916006 0.131645
C31   C     C_R   0.082609 0.347317 0.289269 0.115296
C32   C     C_R   0.159894 0.247976 0.324211 -0.123994
C33   C     C_R   0.204857 0.171766 0.221847 -0.132716
C34   C     C_R   0.172415 0.194087 0.084444 -0.120648
C35   C     C_R   0.094974 0.292176 0.048941 -0.161103
C36   C     C_R   0.050088 0.368705 0.150834 -0.164957
H22   H     H_    0.185976 0.230431 0.430428 0.103037
H23   H     H_    0.264676 0.095417 0.248812 0.125546
H24   H     H_    0.206785 0.135370 0.005382 0.141983
H25   H     H_    0.069720 0.308874 0.942441 0.119869
H26   H     H_    0.990418 0.444200 0.121053 0.113576

loop_
_geom_bond_atom_site_label_1
_geom_bond_atom_site_label_2
_ccdc_geom_bond_type
C21   H13   S    
C27   C28   A    
C2    C18   S    
C1    C8    S    
Cu1   Cu2   S    
C13   O8    A    
Cu2   O8    S    
C7    C8    D    
C25   C26   A    
C17   H6    S    
C11   O3    A    
C8    C19   S    
Cu1   O3    S    
C6    C12   S    
C5    C6    D    
C9    H2    S    
C32   H22   S    
C28   C29   A    
C34   H24   S    
C11   O4    A    
C13   O7    A    
C9    N1    D    
C23   C24   A    
Cu2   O2    S    
C35   C36   A    
C2    C16   S    
C20   H12   S    
C4    C18   S    
C33   C34   A    
C3    C31   S    
C27   H18   S    
C12   O5    A    
C14   C17   S    
Cu1   N1    S    
C1    O1    A    
C5    H9    S    
C26   H17   S    
C7    H11   S    
C34   C35   A    
C29   H20   S    
C5    C7    S    
Cu2   O6    S    
C16   C17   S    
C35   H25   S    
C22   C23   A    
C23   H15   S    
C20   C21   A    
Cu1   O5    S    
C33   H23   S    
C17   C18   S    
C36   H26   S    
C31   C36   A    
C4    C11   S    
Cu2   N2    S    
C6    H10   S    
C19   C20   A    
C3    C4    S    
N1    C25   S    
C3    C15   S    
C21   C22   A    
C1    O2    A    
C9    C10   S    
C30   H21   S    
C26   C27   A    
C28   H19   S    
C18   H7    S    
Cu1   O1    S    
C25   C30   A    
C24   H16   S    
C10   H3    S    
H4    N2    S    
C31   C32   A    
C12   O6    A    
C2    C3    S    
Cu2   O4    S    
C29   C30   A    
C22   H14   S    
C10   N2    D    
C19   C24   A    
C14   H5    S    
C4    C14   S    
Cu1   O7    S    
C15   H1    S    
C32   C33   A    
C13   C16   S    
C14   C15   S    
C2    H8    S    
C15   C16   S    
