data_mof_unit_33983.cif
_audit_creation_date              2013-03-05T16:42:52-0500
_audit_creation_method            fapswitch 2.2
_symmetry_space_group_name_H-M    P1
_symmetry_Int_Tables_number       1
_space_group_crystal_system       triclinic
_cell_length_a                    9.917824
_cell_length_b                    10.65012
_cell_length_c                    13.67737
_cell_angle_alpha                 89.484617
_cell_angle_beta                  84.406915
_cell_angle_gamma                 89.183494
_cell_volume                      1437.62020444

loop_
_atom_site_label
_atom_site_type_symbol
_atom_site_description
_atom_site_fract_x
_atom_site_fract_y
_atom_site_fract_z
_atom_type_partial_charge
O1    O     O_R   0.385310 0.683210 0.499990 -0.598429
O2    O     O_R   0.614650 0.683240 0.500000 -0.596101
C1    C     C_R   0.499244 0.739502 0.500222 0.979286
O3    O     O_R   0.368820 0.499950 0.640340 -0.617330
O4    O     O_R   0.598170 0.499990 0.640350 -0.604778
C2    C     C_R   0.477155 0.498854 0.685137 0.950035
Zn1   Zn    Zn3+2 0.346870 0.499980 0.499990 1.071804
Zn2   Zn    Zn3+2 0.653130 0.500020 0.500010 1.032176
O5    O     O_R   0.385350 0.316760 0.500000 -0.594091
O6    O     O_R   0.614690 0.316790 0.500010 -0.598604
O7    O     O_R   0.401830 0.500010 0.359650 -0.555603
O8    O     O_R   0.631180 0.500050 0.359660 -0.628507
C3    C     C_R   0.500800 0.260798 0.501626 0.951030
C4    C     C_R   0.522872 0.499851 0.314758 0.934661
C5    C     C_1   0.538120 0.500387 0.211728 0.032944
C6    C     C_2   0.550985 0.503779 0.021016 -0.240739
C7    C     C_2   0.438570 0.528662 0.977526 0.323511
C8    C     C_1   0.448091 0.515734 0.874419 0.013378
C9    C     C_1   0.548051 0.501581 0.124513 0.179312
C10   C     C_1   0.461312 0.506095 0.787735 -0.047912
H1    H     H_    0.645042 0.476677 0.978324 0.170333
C11   C     C_R   0.481286 0.938174 0.418439 -0.044358
C12   C     C_R   0.499454 0.871577 0.503873 -0.228779
C13   C     C_R   0.543310 0.932748 0.586009 0.276131
C14   C     C_R   0.546224 0.064075 0.585830 0.179072
C15   C     C_R   0.504767 0.129222 0.503889 -0.164593
C16   C     C_R   0.481184 0.066052 0.419435 -0.052536
C17   C     C_3   0.371410 0.077753 0.351444 0.387443
C18   C     C_3   0.372717 0.933398 0.349294 0.022419
H2    H     H_    0.278263 0.888938 0.382452 0.184886
C19   C     C_R   0.918164 0.478529 0.584504 0.208261
N1    N     N_R   0.857130 0.500860 0.500650 -0.134534
C20   C     C_R   0.937264 0.533359 0.418443 -0.126575
H3    H     H_    0.890940 0.557896 0.352329 0.195371
C21   C     C_R   0.080260 0.533836 0.417894 0.350454
N2    N     N_R   0.142770 0.500820 0.500650 -0.157722
C22   C     C_R   0.060286 0.478733 0.584573 0.151597
C23   C     C_3   0.059652 0.362286 0.645806 -0.423423
C24   C     C_3   0.906510 0.361723 0.645433 -0.409058
H4    H     H_    0.111402 0.281833 0.606029 0.264492
H5    H     H_    0.093156 0.380043 0.719602 0.228330
H6    H     H_    0.869259 0.281053 0.605062 0.250151
H7    H     H_    0.851795 0.378682 0.719076 0.228472
N3    N     N_R   0.311570 0.567098 0.029531 0.255394
O9    O     O_R   0.198906 0.548301 0.990755 -0.306631
O10   O     O_R   0.309299 0.638993 0.105984 -0.240440
N4    N     N_R   0.157096 0.567404 0.328557 0.239223
O11   O     O_R   0.140897 0.505447 0.249107 -0.278408
O12   O     O_R   0.214502 0.676333 0.321238 -0.348100
N5    N     N_R   0.574917 0.862848 0.671124 0.231647
O13   O     O_R   0.692274 0.874400 0.704838 -0.294339
O14   O     O_R   0.485075 0.789609 0.716475 -0.385803
Br1   Br    Br    0.587079 0.152832 0.701488 -0.404852
N6    N     N_R   0.244157 0.131601 0.398598 0.194900
O15   O     O_R   0.187744 0.229180 0.360583 -0.306889
O16   O     O_R   0.188621 0.084971 0.480960 -0.406867
N7    N     N_R   0.416787 0.139238 0.257448 0.234093
O17   O     O_R   0.534439 0.192753 0.244285 -0.386770
O18   O     O_R   0.336492 0.145931 0.187745 -0.245487
N8    N     N_R   0.421637 0.880733 0.253534 0.267880
O19   O     O_R   0.537978 0.822067 0.240302 -0.350482
O20   O     O_R   0.342078 0.881794 0.183387 -0.209948

loop_
_geom_bond_atom_site_label_1
_geom_bond_atom_site_label_2
_geom_bond_distance
_ccdc_geom_bond_type
O4    Zn2   1.943599 S    
N5    O14   1.300192 A    
C12   C13   1.411439 A    
C6    H1    1.087957 S    
C11   C18   1.502437 S    
O2    C1    1.284102 A    
C2    C10   1.399425 S    
Zn1   N2    2.023261 S    
C1    C12   1.407979 S    
N4    O11   1.300771 A    
C4    C5    1.402503 S    
C18   N8    1.465273 S    
O8    C4    1.288298 A    
Zn2   O8    1.952888 S    
C21   N4    1.421255 S    
N1    C20   1.357313 A    
C7    C8    1.412013 S    
N7    O17   1.301903 A    
C7    N3    1.440802 S    
N4    O12   1.298323 A    
O1    Zn1   1.993639 S    
C17   N7    1.471271 S    
N3    O9    1.301419 A    
N8    O20   1.300132 A    
C23   H4    1.111309 S    
C15   C16   1.383016 A    
C18   H2    1.110592 S    
O3    Zn1   1.952889 S    
O3    C2    1.287571 A    
C17   C18   1.537789 S    
C20   C21   1.417575 A    
C22   C23   1.489969 S    
C14   Br1   1.929479 S    
C20   H3    1.081844 S    
C24   H6    1.112138 S    
C8    C10   1.185294 T    
C11   C16   1.362091 A    
C11   C12   1.386877 A    
C13   N5    1.434085 S    
O4    C2    1.293385 A    
O7    C4    1.294002 A    
N6    O16   1.302224 A    
C3    C15   1.401438 S    
N7    O18   1.301259 A    
C6    C7    1.336079 D    
O5    C3    1.285316 A    
Zn2   N1    2.024257 S    
C23   C24   1.519438 S    
C13   C14   1.399327 A    
C23   H5    1.111548 S    
Zn2   O6    1.993638 S    
C16   C17   1.502338 S    
Zn1   O5    1.982942 S    
C17   N6    1.471402 S    
N6    O15   1.301453 A    
N2    C22   1.363702 A    
Zn1   O7    1.943599 S    
C24   H7    1.111567 S    
C21   N2    1.382955 A    
N3    O10   1.299833 A    
N5    O13   1.300850 A    
C14   C15   1.405065 A    
C5    C9    1.187298 T    
C19   N1    1.365531 A    
O2    Zn2   1.982942 S    
C19   C22   1.409664 A    
C19   C24   1.490644 S    
N8    O19   1.302035 A    
O1    C1    1.286982 A    
O6    C3    1.282984 A    
C6    C9    1.413010 S    
