data_mof_unit_31060.cif
_audit_creation_date              2012-12-11T16:58:14-0500
_audit_creation_method            fapswitch 2.2
_symmetry_space_group_name_H-M    P1
_symmetry_Int_Tables_number       1
_space_group_crystal_system       triclinic
_cell_length_a                    16.909985
_cell_length_b                    7.258921
_cell_length_c                    16.819245
_cell_angle_alpha                 89.822646
_cell_angle_beta                  100.402658
_cell_angle_gamma                 90.066395
_cell_volume                      2030.58817493

loop_
_atom_site_label
_atom_site_type_symbol
_atom_type_description
_atom_site_fract_x
_atom_site_fract_y
_atom_site_fract_z
_atom_type_partial_charge
O1    O     O_R   0.413450 0.494370 0.415710 -0.535186
O2    O     O_R   0.586550 0.994370 0.584290 -0.535956
O3    O     O_R   0.578420 0.819350 0.429360 -0.540823
O4    O     O_R   0.421580 0.319350 0.570640 -0.540037
C1    C     C_R   0.605305 0.657225 0.414439 0.697534
C2    C     C_R   0.394825 0.156641 0.585696 0.696063
O5    O     O_R   0.413570 0.823780 0.406240 -0.539437
O6    O     O_R   0.586430 0.323780 0.593760 -0.541747
O7    O     O_R   0.420530 0.998740 0.561000 -0.536407
O8    O     O_R   0.579470 0.498740 0.439000 -0.536460
C3    C     C_R   0.385962 0.655681 0.383925 0.713098
C4    C     C_R   0.614062 0.155324 0.615973 0.711082
O9    O     O_3   0.502480 0.662320 0.550800 -0.379342
O10   O     O_3   0.497520 0.162320 0.449200 -0.377494
V1    V     V_3+5 0.499540 0.935370 0.490580 1.390918
V2    V     V_3+5 0.500460 0.435370 0.509420 1.387925
C5    C     C_R   0.737704 0.997931 0.692018 0.097997
C6    C     C_R   0.247376 0.545961 0.321526 0.101496
C7    C     C_R   0.684511 0.147477 0.682636 -0.161237
C8    C     C_R   0.316088 0.649652 0.316530 -0.153488
C9    C     C_R   0.702336 0.294429 0.737288 -0.276569
C10   C     C_R   0.313860 0.758612 0.246576 -0.267254
C11   C     C_R   0.765725 0.281951 0.804652 0.467102
C12   C     C_R   0.248274 0.747745 0.180457 0.448789
C13   C     C_R   0.816938 0.125225 0.815250 -0.202920
C14   C     C_R   0.183426 0.624800 0.184010 -0.187518
C15   C     C_R   0.802508 0.987915 0.756096 -0.000290
C16   C     C_R   0.182764 0.535425 0.257830 0.020823
C17   C     C_3   0.790801 0.786395 0.766435 -0.327865
C18   C     C_3   0.164824 0.341323 0.278095 -0.401165
C19   C     C_3   0.720619 0.796892 0.696195 -0.389315
C20   C     C_3   0.236371 0.352563 0.347595 -0.394115
H1    H     H_    0.842131 0.703973 0.752957 0.178220
H2    H     H_    0.106210 0.328905 0.298781 0.164823
H3    H     H_    0.661607 0.767955 0.714014 0.172161
H4    H     H_    0.287008 0.261122 0.339414 0.181007
C21   C     C_R   0.330512 0.160030 0.635373 -0.056474
C22   C     C_R   0.669375 0.662605 0.364484 -0.059176
C23   C     C_R   0.165892 0.110421 0.861091 -0.153333
C24   C     C_R   0.835085 0.607709 0.140200 -0.158117
C25   C     C_R   0.275567 0.940671 0.818027 -0.181376
C26   C     C_R   0.730572 0.429182 0.188949 -0.184037
C27   C     C_R   0.222306 0.965749 0.871468 -0.214551
C28   C     C_R   0.783012 0.454555 0.134770 -0.226858
C29   C     C_R   0.163815 0.232666 0.795120 0.395829
C30   C     C_R   0.833904 0.737385 0.202528 0.389071
C31   C     C_R   0.219228 0.209316 0.741534 0.054705
C32   C     C_R   0.779311 0.713202 0.256941 0.057165
C33   C     C_R   0.274520 0.060372 0.752584 0.096344
C34   C     C_R   0.728155 0.556598 0.250466 0.098993
C35   C     C_R   0.329005 0.035151 0.698945 -0.207811
C36   C     C_R   0.674280 0.531049 0.304702 -0.209291
C37   C     C_R   0.275147 0.306729 0.624704 -0.181848
C38   C     C_R   0.721045 0.816457 0.370975 -0.179860
C39   C     C_R   0.220241 0.330894 0.676666 -0.165088
C40   C     C_R   0.775122 0.841521 0.318218 -0.170864
H5    H     H_    0.317577 0.826703 0.827876 0.135910
H6    H     H_    0.691967 0.308843 0.182781 0.134098
H7    H     H_    0.179413 0.446877 0.666396 0.156673
H8    H     H_    0.812795 0.963261 0.325056 0.157318
H9    H     H_    0.224451 0.868998 0.921003 0.181087
H10   H     H_    0.783661 0.350997 0.088694 0.154766
O11   O     O_R   0.920630 0.775410 0.061150 -0.513575
O12   O     O_R   0.079370 0.275410 0.938850 -0.514175
O13   O     O_R   0.086500 0.441450 0.093690 -0.552105
O14   O     O_R   0.913500 0.941450 0.906310 -0.543843
C41   C     C_R   0.114440 0.610166 0.115695 0.718965
C42   C     C_R   0.885331 0.110512 0.884436 0.708933
O15   O     O_R   0.921670 0.445960 0.070740 -0.540563
O16   O     O_R   0.078330 0.945960 0.929260 -0.538952
O17   O     O_R   0.913380 0.271130 0.915780 -0.503595
O18   O     O_R   0.086620 0.771130 0.084220 -0.530074
C43   C     C_R   0.896138 0.612647 0.086446 0.725095
C44   C     C_R   0.104025 0.113202 0.913836 0.709755
O19   O     O_3   0.997500 0.603030 0.949220 -0.362131
O20   O     O_3   0.002500 0.103030 0.050780 -0.383001
V3    V     V_3+5 0.000470 0.329940 0.009420 1.474103
V4    V     V_3+5 0.999530 0.829940 0.990580 1.481850
H11   H     H_    0.664376 0.415481 0.730762 0.150205
H12   H     H_    0.365351 0.843302 0.240932 0.140944
O21   O     O_3   0.108907 0.375897 0.783803 -0.548548
C45   C     C_3   0.037410 0.313077 0.734720 -0.235526
H13   H     H_    0.009661 0.198153 0.763966 0.112274
H14   H     H_    0.047996 0.269903 0.674081 0.120271
H15   H     H_    0.993515 0.428068 0.725651 0.160914
O22   O     O_3   0.884783 0.888329 0.209534 -0.550085
C46   C     C_3   0.957906 0.840170 0.260023 -0.235518
H16   H     H_    0.988641 0.725617 0.234015 0.110875
H17   H     H_    0.948608 0.802831 0.321897 0.120848
H18   H     H_    0.998615 0.961240 0.265536 0.158661
O23   O     O_3   0.777028 0.423077 0.860487 -0.552076
C47   C     C_3   0.717359 0.411518 0.908995 -0.285457
H19   H     H_    0.729162 0.520093 0.955886 0.155562
H20   H     H_    0.719174 0.275897 0.940408 0.127946
H21   H     H_    0.656396 0.437437 0.873164 0.134071
O24   O     O_3   0.254304 0.831880 0.107803 -0.557638
C48   C     C_3   0.244406 0.023592 0.114664 -0.228915
H22   H     H_    0.182021 0.056281 0.122063 0.144582
H23   H     H_    0.254146 0.089970 0.057731 0.148726
H24   H     H_    0.288704 0.084378 0.164698 0.121693
H25   H     H_    0.772169 0.755675 0.825078 0.211356
H26   H     H_    0.173926 0.242491 0.230563 0.168328
H27   H     H_    0.731726 0.722258 0.641653 0.163510
H28   H     H_    0.218843 0.345587 0.408128 0.156712
H29   H     H_    0.372332 0.923692 0.708735 0.115607
H30   H     H_    0.634030 0.413509 0.298221 0.119617
H31   H     H_    0.275195 0.405659 0.576328 0.120830
H32   H     H_    0.718666 0.920457 0.416559 0.125862

loop_
_geom_bond_atom_site_label_1
_geom_bond_atom_site_label_2
_ccdc_geom_bond_type
O14   C42   A    
C46   H16   S    
C11   O23   S    
C39   H7    S    
O16   V4    S    
O12   V3    S    
O15   V3    S    
O1    C3    A    
O2    C4    A    
C26   H6    S    
C2    O7    A    
C48   H22   S    
C31   C33   A    
C24   C30   A    
C14   C41   S    
C20   H4    S    
C7    C9    A    
C12   C14   A    
C12   O24   S    
C21   C35   A    
C23   C44   S    
C22   C36   A    
C17   H1    S    
C24   C43   S    
C41   O18   A    
C29   C31   A    
O18   V4    S    
O13   C41   A    
C33   C35   A    
O16   C44   A    
C34   C36   A    
C20   H28   S    
O15   C43   A    
C35   H29   S    
C23   C29   A    
C21   C37   A    
C32   C34   A    
C36   H30   S    
O6    V2    S    
C1    C22   S    
C25   C27   A    
C18   H26   S    
C13   C42   S    
C26   C28   A    
C25   C33   A    
C48   H23   S    
O21   C45   S    
C30   C32   A    
C37   C39   A    
O14   V4    S    
C38   C40   A    
C3    C8    S    
O13   V3    S    
C18   H2    S    
C5    C15   A    
C6    C16   A    
O20   V3    S    
O4    C2    A    
O23   C47   S    
C19   H3    S    
O22   C46   S    
C23   C27   A    
O11   C43   A    
C28   H10   S    
C47   H21   S    
C40   H8    S    
C19   H27   S    
O4    V2    S    
O5    C3    A    
C37   H31   S    
C22   C38   A    
O6    C4    A    
O24   C48   S    
C9    H11   S    
C47   H20   S    
C2    C21   S    
C17   H25   S    
O1    V2    S    
O2    V1    S    
C26   C34   A    
C8    C10   A    
C45   H14   S    
C9    C11   A    
C5    C19   S    
C10   C12   A    
C46   H18   S    
C6    C20   S    
O17   V3    S    
C48   H24   S    
O3    V1    S    
C27   H9    S    
C31   C39   A    
C32   C40   A    
C29   O21   S    
O3    C1    A    
C13   C15   A    
C45   H15   S    
C14   C16   A    
C38   H32   S    
C16   C18   S    
O7    V1    S    
C25   H5    S    
C1    O8    A    
C17   C19   S    
O8    V2    S    
C18   C20   S    
C15   C17   S    
C42   O17   A    
C4    C7    S    
O5    V1    S    
C47   H19   S    
C5    C7    A    
C6    C8    A    
C11   C13   A    
O19   V4    S    
C10   H12   S    
C24   C28   A    
C45   H13   S    
O9    V2    S    
C46   H17   S    
O12   C44   A    
O10   V1    S    
C30   O22   S    
O11   V4    S    
