data_mof_unit_32180.cif
_audit_creation_date              2012-12-11T15:52:32-0500
_audit_creation_method            fapswitch 2.2
_symmetry_space_group_name_H-M    P1
_symmetry_Int_Tables_number       1
_space_group_crystal_system       triclinic
_cell_length_a                    6.926165
_cell_length_b                    14.553374
_cell_length_c                    16.023007
_cell_angle_alpha                 90.250474
_cell_angle_beta                  89.885517
_cell_angle_gamma                 89.902676
_cell_volume                      1615.08318714

loop_
_atom_site_label
_atom_site_type_symbol
_atom_type_description
_atom_site_fract_x
_atom_site_fract_y
_atom_site_fract_z
_atom_type_partial_charge
O1    O     O_R   0.494400 0.415640 0.412830 -0.539661
O2    O     O_R   0.823920 0.405510 0.586560 -0.543922
O3    O     O_R   0.994250 0.584360 0.587170 -0.540532
C1    C     C_R   0.654851 0.383217 0.615410 0.683812
O4    O     O_R   0.824110 0.404610 0.413450 -0.541685
O5    O     O_R   0.994440 0.583460 0.412820 -0.539793
C2    C     C_R   0.655433 0.382638 0.384183 0.698452
O6    O     O_R   0.494210 0.416540 0.587180 -0.540327
O7    O     O_3   0.660810 0.558680 0.500000 -0.370331
V1    V     V_3+5 0.935650 0.489110 0.500000 1.391752
O8    O     O_R   0.324150 0.594490 0.413440 -0.543805
C3    C     C_R   0.155117 0.616634 0.384332 0.684289
O9    O     O_R   0.323970 0.595390 0.586550 -0.544351
C4    C     C_R   0.154989 0.617709 0.615583 0.653376
V2    V     V_3+5 0.435660 0.510890 0.500000 1.387381
O10   O     O_3   0.160630 0.441320 0.500000 -0.366422
C5    C     C_3   0.046700 0.645230 0.764582 -0.319263
H1    H     H_    0.898676 0.621289 0.748696 0.136737
H2    H     H_    0.130050 0.584081 0.785417 0.122972
C6    C     C_3   0.034342 0.716404 0.837073 -0.322221
H3    H     H_    0.111799 0.689333 0.892576 0.123793
H4    H     H_    0.880527 0.726171 0.855336 0.138753
H5    H     H_    0.876622 0.752217 0.641958 0.140917
H6    H     H_    0.858466 0.856882 0.748734 0.137453
C7    C     C_3   0.025132 0.773293 0.660172 -0.319344
C8    C     C_3   0.348947 0.721113 0.712342 -0.316025
C9    C     C_3   0.144405 0.687686 0.686360 0.116094
H7    H     H_    0.423099 0.753042 0.658039 0.136209
H8    H     H_    0.438492 0.661626 0.732469 0.134462
C10   C     C_3   0.123326 0.809740 0.810741 0.115026
C11   C     C_3   0.012770 0.844418 0.732698 -0.322670
C12   C     C_3   0.336772 0.791811 0.784375 -0.307362
H9    H     H_    0.420718 0.765773 0.838557 0.138063
H10   H     H_    0.405303 0.857199 0.764149 0.133277
H11   H     H_    0.092733 0.805888 0.604661 0.122982
H12   H     H_    0.074387 0.911077 0.711872 0.123338
C13   C     C_R   0.953219 0.773795 0.215984 -0.159746
H13   H     H_    0.812365 0.792126 0.191988 0.116144
C14   C     C_R   0.964285 0.710631 0.281553 -0.153505
H14   H     H_    0.831398 0.682109 0.305853 0.118237
C15   C     C_R   0.143992 0.684593 0.315115 -0.048586
C16   C     C_R   0.312316 0.723508 0.281156 -0.159922
H15   H     H_    0.453170 0.705173 0.305149 0.115969
C17   C     C_R   0.301249 0.786675 0.215589 -0.153537
H16   H     H_    0.434136 0.815196 0.191289 0.118478
C18   C     C_R   0.121540 0.812724 0.182036 -0.048618
C19   C     C_R   0.812302 0.274315 0.716245 -0.161628
H17   H     H_    0.953099 0.292828 0.692197 0.116390
C20   C     C_R   0.801386 0.209629 0.780447 -0.156069
H18   H     H_    0.934279 0.180204 0.803832 0.118087
C21   C     C_R   0.621705 0.183291 0.813830 -0.045962
C22   C     C_R   0.453240 0.223392 0.781242 -0.162491
H19   H     H_    0.312448 0.204893 0.805304 0.116528
C23   C     C_R   0.464156 0.288070 0.717032 -0.156557
H20   H     H_    0.331262 0.317495 0.693648 0.117929
C24   C     C_R   0.643829 0.314364 0.683609 -0.045980
C25   C     C_R   0.797649 0.255551 0.296135 -0.162117
H21   H     H_    0.927565 0.256614 0.333638 0.130335
C26   C     C_R   0.783502 0.191857 0.230715 -0.192064
H22   H     H_    0.902658 0.144906 0.220472 0.126199
C27   C     C_R   0.617460 0.187241 0.180153 -0.060542
C28   C     C_R   0.463592 0.249980 0.196729 0.155339
C29   C     C_R   0.478733 0.312146 0.263884 -0.146565
H23   H     H_    0.360935 0.359394 0.276383 0.121015
C30   C     C_R   0.644399 0.315591 0.314090 -0.086055
O11   O     O_R   0.771300 0.080930 0.910090 -0.539992
O12   O     O_R   0.441270 0.092800 0.083770 -0.538081
O13   O     O_R   0.271080 0.913920 0.084380 -0.539455
C31   C     C_R   0.609491 0.116756 0.111858 0.698352
O14   O     O_R   0.441580 0.091910 0.910670 -0.544003
O15   O     O_R   0.271390 0.913020 0.910040 -0.541037
C32   C     C_R   0.610665 0.114313 0.881915 0.682690
O16   O     O_R   0.770990 0.081830 0.084440 -0.540345
O17   O     O_3   0.604750 0.938760 0.997250 -0.369364
V3    V     V_3+5 0.329850 0.008280 0.997210 1.386582
O18   O     O_R   0.941680 0.901940 0.910610 -0.543465
C33   C     C_R   0.111111 0.879673 0.881565 0.654012
O19   O     O_R   0.941370 0.902830 0.083720 -0.543281
C34   C     C_R   0.110407 0.880709 0.112840 0.684518
V4    V     V_3+5 0.829860 0.986420 0.997150 1.387000
O20   O     O_3   0.104830 0.056030 0.997180 -0.366256
C35   C     C_3   0.284576 0.254756 0.143331 -0.754078
H24   H     H_    0.325401 0.263991 0.076842 0.203054
H25   H     H_    0.198317 0.191221 0.150743 0.218828
H26   H     H_    0.189968 0.313380 0.161188 0.192188

loop_
_geom_bond_atom_site_label_1
_geom_bond_atom_site_label_2
_ccdc_geom_bond_type
C7    C11   S    
O15   V3    S    
C29   C30   A    
C8    C12   S    
C15   C16   A    
C1    O6    A    
C19   C20   A    
C6    C10   S    
C17   H16   S    
O13   V3    S    
C8    C9    S    
C13   H13   S    
O5    C3    A    
C10   C11   S    
O19   V4    S    
C25   C26   A    
V2    O10   S    
C5    C6    S    
C10   C33   S    
O8    V2    S    
O11   C32   A    
C17   C18   A    
C20   C21   A    
C31   O16   A    
O1    V2    S    
C4    C9    S    
O7    V1    S    
O13   C34   A    
C28   C35   S    
C26   H22   S    
O17   V4    S    
O9    C4    A    
C1    C24   S    
C16   C17   A    
C22   C23   A    
C23   C24   A    
C26   C27   A    
O17   V3    S    
C21   C22   A    
C5    C9    S    
O18   C33   A    
C14   C15   A    
C14   H14   S    
O4    C2    A    
O19   C34   A    
V3    O20   S    
O12   C31   A    
C12   H10   S    
O2    C1    A    
C3    C15   S    
C2    C30   S    
C19   H17   S    
C28   C29   A    
C5    H1    S    
O3    C4    A    
C7    H11   S    
C6    H4    S    
C35   H24   S    
O6    V2    S    
C35   H25   S    
O9    V2    S    
O12   V3    S    
C21   C32   S    
O2    V1    S    
O15   C33   A    
C22   H19   S    
C27   C31   S    
C23   H20   S    
O1    C2    A    
O18   V4    S    
C25   C30   A    
V4    O20   S    
O5    V1    S    
O8    C3    A    
C7    C9    S    
C35   H26   S    
O11   V4    S    
C8    H7    S    
C12   H9    S    
O7    V2    S    
H6    C11   S    
O4    V1    S    
C13   C14   A    
O3    V1    S    
V1    O10   S    
C10   C12   S    
C25   H21   S    
C18   C34   S    
C5    H2    S    
O16   V4    S    
H5    C7    S    
C27   C28   A    
C29   H23   S    
C6    H3    S    
C8    H8    S    
C20   H18   S    
C16   H15   S    
O14   V3    S    
C11   H12   S    
O14   C32   A    
C13   C18   A    
C19   C24   A    
