data_mof_unit_56737.cif
_audit_creation_date              2012-12-10T19:44:28-0500
_audit_creation_method            fapswitch 2.2
_symmetry_space_group_name_H-M    P1
_symmetry_Int_Tables_number       1
_space_group_crystal_system       triclinic
_cell_length_a                    10.937354
_cell_length_b                    12.408934
_cell_length_c                    13.904969
_cell_angle_alpha                 118.229214
_cell_angle_beta                  77.731504
_cell_angle_gamma                 100.780239
_cell_volume                      1616.536129

loop_
_atom_site_label
_atom_site_type_symbol
_atom_type_description
_atom_site_fract_x
_atom_site_fract_y
_atom_site_fract_z
_atom_type_partial_charge
C1    C     C_R   0.502906 0.854646 0.290391 0.899442
C2    C     C_R   0.668043 0.859206 0.785765 -0.164304
C3    C     C_R   0.042373 0.913456 0.520185 -0.114578
C4    C     C_R   0.128759 0.004026 0.502443 -0.049959
C5    C     C_R   0.081112 0.099345 0.497111 0.072663
C6    C     C_R   0.954003 0.091121 0.493317 -0.118697
C7    C     C_R   0.870524 0.997234 0.502126 -0.102358
C8    C     C_R   0.913400 0.917350 0.530659 0.027401
C9    C     C_R   0.113421 0.328325 0.590031 0.383017
C10   C     C_R   0.129524 0.431569 0.571033 -0.314910
C11   C     C_R   0.190459 0.425796 0.469905 0.355778
C12   C     C_R   0.736593 0.999545 0.501206 0.825717
C13   C     C_R   0.242642 0.318259 0.389197 0.367203
C14   C     C_R   0.219915 0.212957 0.404735 -0.286031
C15   C     C_R   0.151710 0.215270 0.502797 -0.066064
C16   C     C_R   0.316245 0.270794 0.002304 -0.015413
C17   C     C_R   0.448334 0.229233 0.828283 -0.044429
C18   C     C_R   0.540790 0.814039 0.095680 0.386141
C19   C     C_R   0.614001 0.739151 0.999762 -0.166473
C20   C     C_R   0.612844 0.615033 0.972972 0.391153
C21   C     C_R   0.515161 0.561857 0.028865 -0.070358
C22   C     C_R   0.455097 0.644431 0.133568 -0.131121
C23   C     C_R   0.479227 0.146042 0.710889 0.808598
C24   C     C_R   0.466781 0.435191 0.982832 0.062351
C25   C     C_R   0.367211 0.393926 0.045803 0.046517
C26   C     C_R   0.309550 0.477556 0.146789 -0.121067
C27   C     C_R   0.348336 0.601963 0.188151 0.441531
C28   C     C_R   0.501760 0.351159 0.872061 -0.049542
C29   C     C_R   0.357121 0.188898 0.894613 -0.081228
C30   C     C_R   0.493909 0.770759 0.173150 -0.177242
C31   C     C_R   0.718091 0.362179 0.351042 0.254161
C32   C     C_R   0.338776 0.771144 0.650320 0.030721
C33   C     C_R   0.320869 0.692682 0.698862 0.269967
C34   C     C_R   0.262995 0.002089 0.501456 0.835524
C35   C     C_R   0.393653 0.592233 0.654036 0.290697
C36   C     C_R   0.469660 0.561849 0.548827 -0.156310
C37   C     C_R   0.490712 0.652745 0.509594 0.265939
C38   C     C_R   0.534585 0.452571 0.484353 -0.013755
C39   C     C_R   0.632382 0.450805 0.398864 -0.026617
C40   C     C_R   0.644377 0.539435 0.361950 -0.123652
C41   C     C_R   0.579696 0.639923 0.418945 -0.129542
C42   C     C_R   0.502458 0.342702 0.495477 0.042263
C43   C     C_R   0.684867 0.254593 0.367234 0.448476
C44   C     C_R   0.713374 0.978222 0.799532 0.454257
C45   C     C_R   0.798324 0.993179 0.716603 -0.183568
C46   C     C_R   0.835041 0.891427 0.617996 0.034010
C47   C     C_R   0.794225 0.772561 0.605528 -0.111680
C48   C     C_R   0.710774 0.756778 0.690111 -0.195182
Cu1   Cu    Cu3+1 0.529370 0.098270 0.475420 1.084757
Cu2   Cu    Cu3+1 0.470630 0.901730 0.524580 1.004033
H1    H     H_    0.601340 0.845195 0.848398 0.217608
H2    H     H_    0.246777 0.126971 0.337077 0.252893
H3    H     H_    0.313206 0.095166 0.861765 0.172682
H4    H     H_    0.225729 0.447303 0.188927 0.240740
H5    H     H_    0.240527 0.238910 0.050036 0.202823
H6    H     H_    0.565317 0.378673 0.815954 0.246799
H7    H     H_    0.672509 0.776764 0.947619 0.187112
H8    H     H_    0.705310 0.534027 0.288085 0.216132
H9    H     H_    0.418320 0.330957 0.546880 0.199294
H10   H     H_    0.287148 0.851142 0.688226 0.171835
H11   H     H_    0.607688 0.709375 0.392602 0.198625
H12   H     H_    0.834584 0.085003 0.727277 0.223797
H13   H     H_    0.824321 0.693354 0.530729 0.213701
H14   H     H_    0.678366 0.665263 0.680837 0.225458
H15   H     H_    0.073480 0.849413 0.540206 0.205694
H16   H     H_    0.917039 0.168191 0.498055 0.227275
H17   H     H_    0.090843 0.515460 0.633350 0.216502
N1    N     N_R   0.573890 0.246290 0.438210 -0.280336
N2    N     N_R   0.426890 0.754320 0.561170 -0.224158
O1    O     O_R   0.536940 0.972510 0.318130 -0.502560
O2    O     O_R   0.487330 0.806530 0.359650 -0.588613
O3    O     O_R   0.705160 0.082990 0.479250 -0.525816
O4    O     O_R   0.655550 0.917010 0.520760 -0.615481
O5    O     O_R   0.512670 0.193470 0.640350 -0.550958
O6    O     O_R   0.463060 0.027490 0.681870 -0.604949
O7    O     O_R   0.344450 0.082990 0.479240 -0.593616
O8    O     O_R   0.294840 0.917010 0.520750 -0.558877
Cl1   Cl    Cl    0.192791 0.551398 0.444072 -0.521921
Cl2   Cl    Cl    0.331532 0.310139 0.265706 -0.604188
S1    S     S_3+6 0.469966 0.935729 0.105008 0.100048
O9    O     O_2   0.432849 0.903700 0.996132 -0.190750
O10   O     O_2   0.352774 0.955541 0.187975 -0.299037
O11   O     O_3   0.568641 0.064801 0.145812 -0.433938
H18   H     H_    0.514179 0.132792 0.185510 0.393672
Cl3   Cl    Cl    0.741772 0.540256 0.880510 -0.529615
S2    S     S_3+6 0.672970 0.110402 0.921076 0.056535
O12   O     O_2   0.535380 0.098830 0.962410 -0.245781
O13   O     O_2   0.748264 0.124005 0.005001 -0.162606
O14   O     O_3   0.709134 0.235670 0.899345 -0.511686
H19   H     H_    0.695820 0.306200 0.973552 0.402103
Cl4   Cl    Cl    0.240421 0.701364 0.290398 -0.548553
S3    S     S_3+6 0.793074 0.136576 0.287909 0.108184
O15   O     O_2   0.756792 0.009579 0.276681 -0.282819
O16   O     O_2   0.823336 0.122633 0.172504 -0.156785
O17   O     O_3   0.927620 0.185826 0.341966 -0.542168
H20   H     H_    0.988334 0.127707 0.287622 0.390665
S4    S     S_3+6 0.865936 0.395966 0.275125 0.077740
O18   O     O_2   0.976274 0.335178 0.267002 -0.172218
O19   O     O_2   0.843361 0.359619 0.160285 -0.234193
O20   O     O_3   0.910659 0.547981 0.335896 -0.552624
H21   H     H_    0.971484 0.563717 0.278976 0.406358
S5    S     S_3+6 0.414488 0.533669 0.743962 -0.004647
O21   O     O_2   0.320772 0.424796 0.733051 -0.285489
O22   O     O_2   0.544874 0.495776 0.716965 -0.318272
O23   O     O_3   0.395207 0.642102 0.875769 -0.464235
H22   H     H_    0.337801 0.601794 0.917383 0.399844
Cl5   Cl    Cl    0.209056 0.728991 0.818579 -0.480710
S6    S     S_3+6 0.031731 0.338560 0.718408 0.082652
O24   O     O_2   0.892716 0.313132 0.713830 -0.267143
O25   O     O_2   0.072030 0.245624 0.742660 -0.255165
O26   O     O_3   0.061807 0.479510 0.820990 -0.395172
H23   H     H_    0.008550 0.532242 0.815740 0.400073

loop_
_geom_bond_atom_site_label_1
_geom_bond_atom_site_label_2
_ccdc_geom_bond_type
C13   Cl2   S    
Cu1   N1    S    
C37   N2    A    
C17   C29   A    
O17   H20   S    
C33   Cl5   S    
C41   H11   S    
C35   S5    S    
S4    O18   D    
C28   H6    S    
C7    C8    A    
C45   C46   A    
C19   H7    S    
C9    S6    S    
C26   C27   A    
C1    O2    A    
C31   C43   A    
O11   H18   S    
C21   C22   A    
C36   C37   A    
Cu2   N2    S    
C38   C42   A    
C37   C41   A    
C34   O8    A    
C47   H13   S    
C5    C6    A    
S2    O13   D    
C48   H14   S    
C45   H12   S    
S6    O24   D    
S5    O23   S    
C18   C19   A    
S3    O15   D    
C14   H2    S    
C19   C20   A    
C2    C44   A    
C43   N1    A    
Cu1   O3    S    
C27   Cl4   S    
C18   C30   A    
C9    C10   A    
C12   O3    A    
C12   O4    A    
C42   N1    A    
C3    H15   S    
S1    O11   S    
C44   S2    S    
C26   H4    S    
S4    O19   D    
C7    C12   S    
C4    C34   S    
C40   H8    S    
C24   C25   A    
S1    O10   D    
C3    C8    A    
C10   C11   A    
Cu2   O4    S    
C39   C40   A    
S2    O12   D    
S1    O9    D    
C2    C48   A    
C25   C26   A    
C10   H17   S    
S3    O17   S    
C35   C36   A    
Cu2   O2    S    
C11   Cl1   S    
C47   C48   A    
C20   Cl3   S    
S3    O16   D    
Cu1   O7    S    
C17   C23   S    
C1    O1    A    
S5    O22   D    
C6    C7    A    
C40   C41   A    
Cu1   O1    S    
C32   H10   S    
C23   O5    A    
C3    C4    A    
Cu2   O8    S    
S4    O20   S    
C44   C45   A    
C16   C25   A    
C46   C47   A    
C22   C30   A    
O26   H23   S    
Cu1   O5    S    
C17   C28   A    
C24   C28   A    
C23   O6    A    
C4    C5    A    
S2    O14   S    
C42   H9    S    
C32   N2    A    
O23   H22   S    
C43   S3    S    
S6    O26   S    
C22   C27   A    
C32   C33   A    
C36   C38   A    
C16   C29   A    
C16   H5    S    
Cu2   O6    S    
C11   C13   A    
C38   C39   A    
C29   H3    S    
C1    C30   S    
C33   C35   A    
S6    O25   D    
C31   S4    S    
C9    C15   A    
S5    O21   D    
C8    C46   S    
C5    C15   S    
C2    H1    S    
C6    H16   S    
C20   C21   A    
C18   S1    S    
Cu1   Cu2   S    
C21   C24   A    
C31   C39   A    
C14   C15   A    
O20   H21   S    
O14   H19   S    
C13   C14   A    
C34   O7    A    
