data_mof_unit_25739.cif
_audit_creation_date              2012-12-10T17:19:52-0500
_audit_creation_method            fapswitch 2.2
_symmetry_space_group_name_H-M    P1
_symmetry_Int_Tables_number       1
_space_group_crystal_system       triclinic
_cell_length_a                    9.578178
_cell_length_b                    10.864067
_cell_length_c                    15.56155
_cell_angle_alpha                 87.67752
_cell_angle_beta                  73.932544
_cell_angle_gamma                 90.472997
_cell_volume                      1554.4497252

loop_
_atom_site_label
_atom_site_type_symbol
_atom_type_description
_atom_site_fract_x
_atom_site_fract_y
_atom_site_fract_z
_atom_type_partial_charge
C1    C     C_R   0.003430 0.263135 0.492797 0.801735
C2    C     C_R   0.676039 0.503477 0.909739 0.023116
C3    C     C_R   0.780944 0.513799 0.957657 0.118283
C4    C     C_R   0.528996 0.477160 0.957331 0.090931
C5    C     C_R   0.482609 0.491698 0.051046 0.058634
C6    C     C_R   0.589177 0.513667 0.096442 -0.215756
C7    C     C_R   0.736219 0.520182 0.050567 -0.210168
C8    C     C_R   0.430807 0.425934 0.914971 -0.143234
C9    C     C_R   0.286345 0.402476 0.961186 -0.248829
C10   C     C_R   0.235007 0.430281 0.050936 0.164755
C11   C     C_R   0.332164 0.477312 0.096413 0.093145
C12   C     C_R   0.917432 0.505253 0.671849 0.847692
C13   C     C_R   0.087892 0.408981 0.096404 -0.218765
C14   C     C_R   0.035167 0.435902 0.186210 -0.199939
C15   C     C_R   0.275316 0.507769 0.185890 -0.250541
C16   C     C_R   0.280562 0.123708 0.438230 -0.155378
C17   C     C_R   0.405726 0.066360 0.446940 -0.163419
C18   C     C_R   0.394827 0.951528 0.490930 -0.130624
C19   C     C_R   0.261215 0.888798 0.517814 -0.150711
C20   C     C_R   0.135508 0.940131 0.500162 0.086749
C21   C     C_R   0.141964 0.065976 0.473475 0.097006
C22   C     C_R   0.009565 0.129418 0.484461 -0.118402
C23   C     C_R   0.999591 0.737674 0.504652 0.789133
C24   C     C_R   0.878711 0.062812 0.499793 -0.212973
C25   C     C_R   0.877136 0.935628 0.507347 -0.193270
C26   C     C_R   0.003879 0.872447 0.507802 -0.109343
C27   C     C_R   0.700242 0.661885 0.379728 -0.158494
C28   C     C_R   0.655346 0.741221 0.320928 -0.220129
C29   C     C_R   0.511351 0.742192 0.321387 -0.208459
C30   C     C_R   0.411443 0.663789 0.380608 -0.161930
C31   C     C_R   0.452473 0.580314 0.441221 0.198343
C32   C     C_R   0.602261 0.579841 0.441002 0.206580
C33   C     C_R   0.548078 0.423675 0.555908 -0.013148
C34   C     C_R   0.082250 0.498334 0.328259 0.767530
C35   C     C_R   0.400082 0.423637 0.555833 -0.061088
C36   C     C_R   0.870361 0.513127 0.770040 -0.125664
C37   C     C_R   0.129247 0.484345 0.231411 -0.040269
C38   C     C_R   0.929097 0.518686 0.911693 -0.203503
C39   C     C_R   0.973380 0.510713 0.819002 -0.240172
C40   C     C_R   0.721691 0.523414 0.816003 0.287648
Cu1   Cu    Cu3+1 0.140660 0.499990 0.500010 0.926049
Cu2   Cu    Cu3+1 0.859340 0.500010 0.499990 0.960702
H1    H     H_    0.815038 0.531835 0.088004 0.149802
H2    H     H_    0.014156 0.369252 0.062920 0.137781
H3    H     H_    0.776710 0.108946 0.506169 0.161808
H4    H     H_    0.294389 0.212169 0.402251 0.163078
H5    H     H_    0.510535 0.112714 0.421968 0.135637
H6    H     H_    0.490526 0.909687 0.502640 0.147326
H7    H     H_    0.258632 0.802767 0.555288 0.178777
H8    H     H_    0.775155 0.886824 0.514517 0.173139
H9    H     H_    0.582225 0.361154 0.601726 0.141101
H10   H     H_    0.812904 0.669218 0.374065 0.200610
H11   H     H_    0.733071 0.802819 0.274903 0.156697
H12   H     H_    0.342684 0.550929 0.221647 0.147352
H13   H     H_    0.476266 0.804787 0.275898 0.159997
H14   H     H_    0.303664 0.673774 0.376063 0.202337
H15   H     H_    0.323484 0.361049 0.601537 0.142655
H16   H     H_    0.922195 0.415597 0.220815 0.155357
H17   H     H_    0.214449 0.362740 0.926350 0.146635
H18   H     H_    0.010688 0.525984 0.947433 0.156566
H19   H     H_    0.088517 0.507509 0.785475 0.184219
H20   H     H_    0.563311 0.518204 0.168209 0.151291
H21   H     H_    0.466409 0.397890 0.846577 0.180517
N1    N     N_R   0.648320 0.501210 0.499140 -0.195445
N2    N     N_R   0.352470 0.501290 0.499110 -0.205192
O1    O     O_R   0.118810 0.319640 0.500010 -0.587789
O2    O     O_R   0.881240 0.319660 0.500000 -0.588436
O3    O     O_R   0.055570 0.499980 0.629840 -0.589045
O4    O     O_R   0.818000 0.500010 0.629830 -0.520892
O5    O     O_R   0.118760 0.680340 0.500000 -0.617029
O6    O     O_R   0.881190 0.680360 0.499990 -0.585526
O7    O     O_R   0.182000 0.499990 0.370170 -0.605757
O8    O     O_R   0.944430 0.500020 0.370160 -0.606584
Cl1   Cl    Cl    0.601302 0.596985 0.762007 -0.634815

loop_
_geom_bond_atom_site_label_1
_geom_bond_atom_site_label_2
_ccdc_geom_bond_type
C12   O4    A    
C16   C21   A    
Cu2   N1    S    
C34   C37   S    
Cu1   Cu2   S    
C19   C20   A    
C4    C8    A    
C12   O3    A    
C24   H3    S    
C28   C29   A    
C5    C11   A    
C3    C7    A    
C38   C39   A    
C35   N2    A    
C18   C19   A    
C23   C26   S    
C25   H8    S    
C15   C37   A    
C1    O2    A    
C11   C15   A    
C3    C38   A    
C8    C9    A    
C7    H1    S    
C12   C36   S    
C9    C10   A    
C1    C22   S    
C21   C22   A    
C23   O5    A    
C14   H16   S    
C1    O1    A    
Cu1   O3    S    
C39   H19   S    
C15   H12   S    
C23   O6    A    
C36   C40   A    
C24   C25   A    
C32   N1    A    
C16   H4    S    
C16   C17   A    
Cu1   N2    S    
C34   O8    A    
C25   C26   A    
C30   H14   S    
Cu2   O4    S    
C9    H17   S    
C2    C4    A    
C29   C30   A    
C19   H7    S    
C31   C32   A    
C30   C31   A    
C17   C18   A    
C6    C7    A    
Cu1   O7    S    
C38   H18   S    
Cu2   O2    S    
C22   C24   A    
C34   O7    A    
C27   H10   S    
C31   N2    A    
Cu2   O8    S    
C27   C32   A    
C36   C39   A    
C17   H5    S    
C4    C5    A    
C10   C13   A    
C18   H6    S    
C28   H11   S    
Cu1   O1    S    
C33   H9    S    
C29   H13   S    
C35   H15   S    
C6    H20   S    
C2    C3    A    
C14   C37   A    
C5    C6    A    
C20   C26   A    
C33   N1    A    
Cu2   O6    S    
C33   C35   A    
C40   Cl1   S    
C10   C11   A    
C8    H21   S    
C2    C40   A    
C20   C21   A    
C27   C28   A    
C13   C14   A    
C13   H2    S    
Cu1   O5    S    
