data_mof_unit_5538.cif
_audit_creation_date              2012-12-11T20:51:05-0500
_audit_creation_method            fapswitch 2.2
_symmetry_space_group_name_H-M    P1
_symmetry_Int_Tables_number       1
_space_group_crystal_system       triclinic
_cell_length_a                    30.502487
_cell_length_b                    33.729503
_cell_length_c                    8.436069
_cell_angle_alpha                 90.0
_cell_angle_beta                  89.957351
_cell_angle_gamma                 89.991729
_cell_volume                      8679.30981364

loop_
_atom_site_label
_atom_site_type_symbol
_atom_type_description
_atom_site_fract_x
_atom_site_fract_y
_atom_site_fract_z
_atom_type_partial_charge
Ba1   Ba    Ba6+2 0.999930 0.472870 0.844940 1.683001
Ba2   Ba    Ba6+2 0.999930 0.527130 0.344940 1.697096
Ba3   Ba    Ba6+2 0.499930 0.972870 0.844940 1.694842
Ba4   Ba    Ba6+2 0.499930 0.027130 0.344940 1.708909
C1    C     C_3   0.014591 0.277912 0.563641 -0.321663
C2    C     C_R   0.213241 0.331206 0.499519 0.582160
C3    C     C_R   0.402057 0.086936 0.696246 0.008368
C4    C     C_R   0.872328 0.383075 0.147996 -0.082770
C5    C     C_R   0.872259 0.616909 0.647989 -0.082535
C6    C     C_R   0.370554 0.884323 0.153808 -0.100297
C7    C     C_R   0.370453 0.115641 0.653903 -0.100145
C8    C     C_R   0.863396 0.349742 0.245410 0.229492
C9    C     C_R   0.863314 0.650243 0.745391 0.229737
C10   C     C_R   0.361486 0.851050 0.251295 0.236786
C11   C     C_R   0.361350 0.148899 0.751439 0.237077
C12   C     C_2   0.068602 0.596057 0.878311 -0.272154
C13   C     C_R   0.713762 0.168325 0.996036 0.573527
C14   C     C_2   0.067947 0.403546 0.378936 -0.264940
C15   C     C_2   0.568414 0.096177 0.878811 -0.272566
C16   C     C_2   0.567793 0.903448 0.379244 -0.265375
C17   C     C_3   0.123880 0.473369 0.168876 0.346669
C18   C     C_3   0.124941 0.525535 0.679535 0.405092
C19   C     C_3   0.623871 0.973367 0.168826 0.345879
C20   C     C_3   0.624995 0.025468 0.680113 0.404753
C21   C     C_3   0.165066 0.449250 0.207693 0.310892
C22   C     C_3   0.164129 0.553350 0.666623 0.320620
C23   C     C_3   0.665049 0.949226 0.207549 0.310819
C24   C     C_R   0.713600 0.831600 0.495116 0.581857
C25   C     C_3   0.664226 0.053248 0.667662 0.320684
C26   C     C_3   0.865875 0.527532 0.055534 0.706610
C27   C     C_3   0.865877 0.472471 0.555589 0.706635
C28   C     C_3   0.352436 0.005176 0.940044 0.761326
C29   C     C_3   0.352492 0.994788 0.440024 0.761568
C30   C     C_3   0.837813 0.549350 0.180587 -0.320039
C31   C     C_3   0.837782 0.450684 0.680616 -0.319853
C32   C     C_3   0.323721 0.042214 0.958287 -0.334790
C33   C     C_3   0.323837 0.957719 0.458251 -0.335122
C34   C     C_3   0.001569 0.321311 0.552895 0.351249
C35   C     C_R   0.157844 0.719082 0.010105 0.587545
C36   C     C_3   0.001677 0.678446 0.051594 0.349240
C37   C     C_3   0.500918 0.822496 0.549789 0.347499
C38   C     C_3   0.500988 0.177216 0.048093 0.344592
C39   C     C_R   0.927826 0.407295 0.322078 -0.237921
C40   C     C_R   0.927757 0.592687 0.822111 -0.238207
C41   C     C_R   0.424707 0.909472 0.331159 -0.285362
C42   C     C_R   0.424561 0.090458 0.831400 -0.285823
C43   C     C_3   0.194718 0.429776 0.966104 0.227835
C44   C     C_3   0.206811 0.588961 0.491982 0.239008
C45   C     C_3   0.694761 0.929919 0.965843 0.227746
C46   C     C_R   0.157603 0.280935 0.511335 0.587062
C47   C     C_3   0.707072 0.088872 0.493604 0.239818
C48   C     C_3   0.808094 0.536210 0.870637 0.140124
C49   C     C_3   0.808126 0.463773 0.370596 0.140305
C50   C     C_3   0.293930 0.959421 0.934248 0.159131
C51   C     C_3   0.293918 0.040486 0.434257 0.158820
C52   C     C_R   0.658298 0.218702 0.012135 0.588084
C53   C     C_R   0.658092 0.781323 0.513179 0.587599
C54   C     C_R   0.189395 0.747885 0.052279 -0.020653
C55   C     C_R   0.189166 0.252130 0.553531 -0.019818
C56   C     C_R   0.690094 0.247348 0.053670 -0.021162
C57   C     C_3   0.014884 0.721808 0.061501 -0.322575
C58   C     C_R   0.689906 0.752681 0.554737 -0.020313
C59   C     C_R   0.233602 0.736625 0.069575 -0.052849
C60   C     C_R   0.233421 0.263328 0.569704 -0.052849
C61   C     C_R   0.734378 0.236004 0.067335 -0.052790
C62   C     C_R   0.734226 0.763972 0.567356 -0.052713
C63   C     C_R   0.290136 0.686084 0.061483 -0.082633
C64   C     C_R   0.290040 0.313749 0.559391 -0.075415
C65   C     C_R   0.790803 0.185447 0.052880 -0.082652
C66   C     C_R   0.790708 0.814421 0.550839 -0.075565
C67   C     C_R   0.822579 0.213430 0.095230 -0.078593
C68   C     C_3   0.513939 0.779028 0.554475 -0.323013
C69   C     C_R   0.822506 0.786439 0.593135 -0.076451
C70   C     C_R   0.321665 0.714235 0.104497 -0.078492
C71   C     C_R   0.321583 0.285597 0.602390 -0.076299
C72   C     C_R   0.811026 0.253180 0.124791 -0.023631
C73   C     C_R   0.810939 0.746743 0.623715 -0.024284
C74   C     C_R   0.309922 0.754062 0.131315 -0.024170
C75   C     C_R   0.309809 0.245827 0.630313 -0.024898
C76   C     C_R   0.766727 0.264509 0.110470 -0.053214
C77   C     C_R   0.766598 0.735468 0.610453 -0.052544
C78   C     C_R   0.265693 0.765297 0.113461 -0.052877
C79   C     C_3   0.514210 0.220640 0.051673 -0.323998
C80   C     C_R   0.265528 0.234653 0.613568 -0.052223
C81   C     C_R   0.177630 0.787716 0.078592 -0.078493
C82   C     C_R   0.177368 0.212355 0.580927 -0.077803
C83   C     C_R   0.678515 0.287096 0.082889 -0.078394
C84   C     C_R   0.678310 0.712987 0.584962 -0.077673
C85   C     C_3   0.007257 0.313152 0.085979 0.329767
C86   C     C_3   0.008186 0.686742 0.583410 0.327754
C87   C     C_3   0.506927 0.813424 0.083653 0.328524
C88   C     C_3   0.508030 0.186468 0.580011 0.327199
C89   C     C_R   0.710241 0.315062 0.124967 -0.079601
C90   C     C_R   0.245797 0.696807 0.043692 -0.026573
C91   C     C_R   0.710054 0.685023 0.626995 -0.079396
C92   C     C_R   0.209098 0.815841 0.121449 -0.080619
C93   C     C_R   0.208849 0.184226 0.623734 -0.080421
C94   C     C_R   0.754607 0.304215 0.139490 -0.023210
C95   C     C_R   0.754459 0.695817 0.640477 -0.022888
C96   C     C_R   0.253382 0.805077 0.139669 -0.021569
C97   C     C_R   0.253182 0.194930 0.640846 -0.021286
C98   C     C_R   0.787038 0.332106 0.183368 0.583671
C99   C     C_R   0.786910 0.667927 0.684293 0.583832
C100  C     C_R   0.285532 0.833127 0.184559 0.579506
C101  C     C_R   0.245649 0.303090 0.542727 -0.027426
C102  C     C_R   0.285349 0.166877 0.685670 0.579591
C103  C     C_R   0.842709 0.281831 0.168439 0.588766
C104  C     C_R   0.842644 0.718092 0.667346 0.589934
C105  C     C_R   0.341345 0.782882 0.175670 0.589910
C106  C     C_R   0.341246 0.217005 0.674690 0.591176
C107  C     C_2   0.108557 0.656231 0.811282 -0.084618
C108  C     C_2   0.108226 0.343512 0.311487 -0.086405
C109  C     C_2   0.608425 0.156336 0.811624 -0.085250
C110  C     C_2   0.608109 0.843414 0.311731 -0.087128
C111  C     C_3   0.070099 0.632126 0.788303 -0.105312
C112  C     C_R   0.746395 0.196264 0.038586 -0.026467
C113  C     C_3   0.069732 0.367551 0.288359 -0.106408
C114  C     C_3   0.569992 0.132202 0.788461 -0.103873
C115  C     C_3   0.569632 0.867475 0.288449 -0.105103
C116  C     C_1   0.096688 0.588500 0.003423 0.015576
C117  C     C_1   0.096311 0.411442 0.502960 0.020254
C118  C     C_1   0.596684 0.088477 0.003262 0.013648
C119  C     C_1   0.596309 0.911473 0.502713 0.018696
C120  C     C_2   0.129218 0.615066 0.043624 -0.096953
C121  C     C_2   0.129059 0.385012 0.542642 -0.102856
C122  C     C_2   0.629418 0.114887 0.042810 -0.097117
C123  C     C_R   0.746259 0.803660 0.537606 -0.027410
C124  C     C_2   0.629251 0.885192 0.541767 -0.103046
C125  C     C_2   0.136616 0.650634 0.942613 0.225575
C126  C     C_2   0.136397 0.349305 0.442324 0.234907
C127  C     C_2   0.636710 0.150520 0.942146 0.226820
C128  C     C_2   0.636496 0.849425 0.441780 0.236012
C129  C     C_R   0.884728 0.345501 0.384932 -0.099626
C130  C     C_R   0.884626 0.654477 0.884957 -0.099750
C131  C     C_R   0.382600 0.846925 0.391277 -0.099104
C132  C     C_R   0.382424 0.153002 0.891512 -0.099163
C133  C     C_3   0.988511 0.276136 0.008670 -0.314383
C134  C     C_R   0.213407 0.668697 0.000446 0.573646
C135  C     C_3   0.990494 0.724186 0.506109 -0.315573
C136  C     C_3   0.488459 0.776358 0.005847 -0.319012
C137  C     C_3   0.491078 0.224143 0.502314 -0.321073
C138  C     C_R   0.917792 0.375158 0.432926 -0.057974
C139  C     C_R   0.917672 0.624791 0.933033 -0.057169
C140  C     C_R   0.415358 0.876799 0.439896 -0.039184
C141  C     C_R   0.415151 0.123092 0.940242 -0.038195
C142  C     C_R   0.904421 0.411466 0.188900 0.111225
C143  C     C_R   0.904374 0.588526 0.688893 0.111085
C144  C     C_R   0.402140 0.913033 0.196145 0.008552
H1    H     H_    0.177372 0.459202 0.325008 0.090328
H2    H     H_    0.900307 0.462958 0.574813 0.013277
H3    H     H_    0.518962 0.242849 0.462633 0.106505
H4    H     H_    0.103245 0.475034 0.276900 -0.082316
H5    H     H_    0.117239 0.520929 0.806176 -0.111839
H6    H     H_    0.603229 0.975009 0.276843 -0.082754
H7    H     H_    0.617294 0.020745 0.806680 -0.112006
H8    H     H_    0.105099 0.458269 0.074550 0.039764
H9    H     H_    0.096547 0.539548 0.619083 0.044931
H10   H     H_    0.605086 0.958303 0.074438 0.039946
H11   H     H_    0.596610 0.039558 0.619915 0.044221
H12   H     H_    0.031167 0.339921 0.571264 0.050854
H13   H     H_    0.381591 0.014847 0.872871 -0.001279
H14   H     H_    0.031201 0.659750 0.070272 0.048954
H15   H     H_    0.530425 0.840886 0.573081 0.053359
H16   H     H_    0.530421 0.158753 0.071753 0.051651
H17   H     H_    0.163991 0.435505 0.899876 0.060410
H18   H     H_    0.196538 0.398251 0.004410 0.041903
H19   H     H_    0.222349 0.435108 0.883270 0.072687
H20   H     H_    0.237208 0.580125 0.555750 0.029658
H21   H     H_    0.194738 0.618072 0.536214 0.036800
H22   H     H_    0.215256 0.592662 0.364893 0.078180
H23   H     H_    0.664053 0.935703 0.899571 0.060157
H24   H     H_    0.381663 0.985146 0.372854 -0.001322
H25   H     H_    0.696562 0.898366 0.003793 0.042503
H26   H     H_    0.722416 0.935304 0.883170 0.071904
H27   H     H_    0.737420 0.079971 0.557536 0.030441
H28   H     H_    0.695018 0.117977 0.537965 0.037773
H29   H     H_    0.715594 0.092622 0.366605 0.076314
H30   H     H_    0.801704 0.536564 0.741665 0.109528
H31   H     H_    0.793247 0.508681 0.919576 0.038496
H32   H     H_    0.791393 0.562969 0.917968 0.077803
H33   H     H_    0.793270 0.491319 0.419377 0.038424
H34   H     H_    0.791420 0.437030 0.418023 0.077284
H35   H     H_    0.802508 0.541921 0.171227 0.048106
H36   H     H_    0.801750 0.463379 0.241617 0.109752
H37   H     H_    0.284352 0.931071 0.877344 0.074769
H38   H     H_    0.300436 0.952846 0.060970 0.064713
H39   H     H_    0.265740 0.980021 0.922161 0.025100
H40   H     H_    0.300418 0.047072 0.560961 0.064371
H41   H     H_    0.265763 0.019858 0.422202 0.025259
H42   H     H_    0.284290 0.068822 0.377352 0.074486
H43   H     H_    0.802490 0.458175 0.671255 0.048040
H44   H     H_    0.295832 0.036630 0.039828 0.116883
H45   H     H_    0.295942 0.963269 0.539814 0.116940
H46   H     H_    0.841947 0.581901 0.169228 0.087586
H47   H     H_    0.841852 0.418127 0.669171 0.087792
H48   H     H_    0.310972 0.051673 0.841202 0.087449
H49   H     H_    0.192537 0.539645 0.728828 0.041248
H50   H     H_    0.311096 0.948254 0.341166 0.087341
H51   H     H_    0.846522 0.539779 0.300446 0.145679
H52   H     H_    0.846509 0.460218 0.800499 0.145784
H53   H     H_    0.343446 0.066775 0.009062 0.074819
H54   H     H_    0.343603 0.933175 0.508986 0.074885
H55   H     H_    0.988148 0.326335 0.432027 -0.093094
H56   H     H_    0.988226 0.673327 0.930816 -0.091341
H57   H     H_    0.488014 0.828802 0.429091 -0.092716
H58   H     H_    0.488029 0.170774 0.927564 -0.090108
H59   H     H_    0.035361 0.269882 0.460568 0.124384
H60   H     H_    0.677322 0.959104 0.325009 0.090270
H61   H     H_    0.035668 0.729641 0.958235 0.124967
H62   H     H_    0.536034 0.772224 0.453648 0.123436
H63   H     H_    0.536313 0.227202 0.950625 0.123951
H64   H     H_    0.033178 0.272467 0.674608 0.145117
H65   H     H_    0.033519 0.727316 0.172305 0.144641
H66   H     H_    0.531127 0.772293 0.667259 0.145517
H67   H     H_    0.531470 0.227481 0.164205 0.145082
H68   H     H_    0.969611 0.258922 0.097675 0.113903
H69   H     H_    0.971224 0.741380 0.594175 0.112632
H70   H     H_    0.469062 0.759293 0.093936 0.112310
H71   H     H_    0.692576 0.039493 0.730033 0.041271
H72   H     H_    0.471202 0.241208 0.589034 0.110613
H73   H     H_    0.699829 0.345293 0.146482 0.118282
H74   H     H_    0.699626 0.654835 0.649297 0.118146
H75   H     H_    0.198548 0.846131 0.140673 0.117980
H76   H     H_    0.198271 0.153982 0.643801 0.117907
H77   H     H_    0.143915 0.797323 0.066274 0.119003
H78   H     H_    0.143616 0.202793 0.569484 0.118730
H79   H     H_    0.644749 0.296763 0.073425 0.119156
H80   H     H_    0.644517 0.703359 0.576314 0.118897
H81   H     H_    0.856336 0.203762 0.105023 0.118715
H82   H     H_    0.156685 0.417311 0.221577 -0.063888
H83   H     H_    0.856291 0.796066 0.602090 0.119499
H84   H     H_    0.355375 0.704634 0.117027 0.118789
H85   H     H_    0.355330 0.295152 0.614036 0.119627
H86   H     H_    0.877508 0.320755 0.462409 0.089541
H87   H     H_    0.877403 0.679231 0.962398 0.089772
H88   H     H_    0.375538 0.822070 0.468389 0.089323
H89   H     H_    0.375351 0.177860 0.968600 0.089519
H90   H     H_    0.300650 0.655782 0.042362 0.122184
H91   H     H_    0.300584 0.344004 0.539390 0.124815
H92   H     H_    0.801180 0.155200 0.031511 0.122198
H93   H     H_    0.155498 0.581668 0.726559 -0.058777
H94   H     H_    0.801102 0.844623 0.528664 0.124923
H95   H     H_    0.148689 0.610592 0.149795 0.109364
H96   H     H_    0.148752 0.389657 0.648128 0.082167
H97   H     H_    0.649169 0.110229 0.148183 0.108389
H98   H     H_    0.649211 0.890018 0.646467 0.080783
H99   H     H_    0.113040 0.682153 0.736725 0.090824
H100  H     H_    0.112659 0.317483 0.237483 0.092839
H101  H     H_    0.612792 0.182382 0.737667 0.089750
H102  H     H_    0.612439 0.817271 0.238295 0.091783
H103  H     H_    0.853632 0.387176 0.040170 0.090460
H104  H     H_    0.656666 0.917278 0.221077 -0.062151
H105  H     H_    0.853563 0.612807 0.540167 0.089944
H106  H     H_    0.352653 0.887902 0.043974 0.098246
H107  H     H_    0.352573 0.112078 0.544019 0.097705
H108  H     H_    0.951658 0.429432 0.356354 0.064129
H109  H     H_    0.951619 0.570564 0.856353 0.064142
H110  H     H_    0.448344 0.931749 0.365836 0.076830
H111  H     H_    0.448213 0.068185 0.866068 0.076866
H112  H     H_    0.984875 0.258887 0.562203 0.109824
H113  H     H_    0.985248 0.740942 0.059780 0.110871
H114  H     H_    0.484324 0.760033 0.544639 0.111636
H115  H     H_    0.655590 0.081555 0.727666 -0.057472
H116  H     H_    0.484681 0.239740 0.041480 0.112826
H117  H     H_    0.040114 0.577235 0.861952 0.069941
H118  H     H_    0.039179 0.422083 0.363743 0.074639
H119  H     H_    0.539788 0.077488 0.863089 0.071052
H120  H     H_    0.538920 0.921882 0.364541 0.075675
H121  H     H_    0.979521 0.332632 0.122465 0.008377
H122  H     H_    0.979949 0.667535 0.617007 0.011725
H123  H     H_    0.479080 0.833004 0.118132 0.016129
H124  H     H_    0.479496 0.167281 0.610321 0.020388
H125  H     H_    0.025871 0.303283 0.192013 -0.029985
H126  H     H_    0.900310 0.537034 0.074652 0.013019
H127  H     H_    0.026267 0.696151 0.691277 -0.031176
H128  H     H_    0.525019 0.803638 0.190920 -0.031556
H129  H     H_    0.525347 0.195600 0.689808 -0.033614
H130  H     H_    0.966161 0.284272 0.910449 0.164934
H131  H     H_    0.968699 0.716607 0.405630 0.164676
H132  H     H_    0.466611 0.784421 0.906109 0.164229
H133  H     H_    0.470024 0.216871 0.399482 0.163626
H134  H     H_    0.015432 0.257207 0.962510 0.103259
H135  H     H_    0.017988 0.742908 0.463149 0.103931
H136  H     H_    0.515548 0.757329 0.961642 0.105591
N1    N     N_R   0.169917 0.679960 0.983949 -0.425597
N2    N     N_R   0.169706 0.319999 0.484026 -0.425929
N3    N     N_R   0.670215 0.179678 0.982998 -0.425872
N4    N     N_R   0.670019 0.820294 0.482988 -0.426223
N5    N     N_R   0.830548 0.320792 0.197764 -0.425618
N6    N     N_R   0.830456 0.679191 0.697710 -0.425793
N7    N     N_R   0.328970 0.821902 0.202570 -0.424965
N8    N     N_R   0.328831 0.178046 0.702670 -0.425196
O1    O     O_2   0.914200 0.445720 0.903420 -0.481509
O2    O     O_3   0.036498 0.666870 0.478132 -0.563686
O3    O     O_3   0.535451 0.832979 0.978277 -0.558459
O4    O     O_3   0.537009 0.166704 0.476828 -0.565505
O5    O     O_3   0.049930 0.518940 0.045960 -0.500821
O6    O     O_3   0.049930 0.481060 0.545960 -0.487968
O7    O     O_3   0.549930 0.018940 0.045960 -0.501072
O8    O     O_3   0.549930 0.981060 0.545960 -0.487955
O9    O     O_2   0.224012 0.634289 0.976106 -0.605216
O10   O     O_2   0.223870 0.365565 0.474319 -0.595416
O11   O     O_2   0.724192 0.133986 0.969253 -0.605631
O12   O     O_2   0.914200 0.554280 0.403420 -0.481656
O13   O     O_2   0.724041 0.865895 0.467573 -0.595063
O14   O     O_2   0.119424 0.728795 0.998661 -0.622612
O15   O     O_2   0.119148 0.271276 0.500881 -0.622676
O16   O     O_2   0.619822 0.228453 0.003915 -0.620880
O17   O     O_2   0.619591 0.771617 0.505860 -0.620960
O18   O     O_2   0.776469 0.366401 0.210446 -0.613963
O19   O     O_2   0.776330 0.633677 0.712163 -0.613875
O20   O     O_2   0.274771 0.867484 0.209357 -0.617630
O21   O     O_2   0.274567 0.132564 0.711281 -0.617232
O22   O     O_2   0.881193 0.272150 0.179514 -0.613281
O23   O     O_2   0.414200 0.945720 0.903420 -0.433600
O24   O     O_2   0.881165 0.727717 0.677466 -0.611389
O25   O     O_2   0.379794 0.773296 0.189461 -0.611758
O26   O     O_2   0.379738 0.226532 0.687526 -0.609574
O27   O     O_3   0.950020 0.480960 0.143730 -0.496044
O28   O     O_3   0.950020 0.519040 0.643730 -0.496294
O29   O     O_3   0.450020 0.980960 0.143730 -0.479574
O30   O     O_3   0.450020 0.019040 0.643730 -0.479708
O31   O     O_3   0.985090 0.412220 0.642040 -0.474207
O32   O     O_3   0.985090 0.587780 0.142040 -0.477717
O33   O     O_3   0.485090 0.912220 0.642040 -0.473301
O34   O     O_2   0.414200 0.054280 0.403420 -0.433969
O35   O     O_3   0.485090 0.087780 0.142040 -0.476830
O36   O     O_2   0.912135 0.380407 0.763340 -0.484592
O37   O     O_2   0.912240 0.619738 0.263739 -0.484210
O38   O     O_2   0.412456 0.880522 0.769796 -0.461979
O39   O     O_2   0.412624 0.119657 0.270484 -0.461805
O40   O     O_3   0.860848 0.486349 0.075741 -0.647245
O41   O     O_3   0.860850 0.513658 0.575689 -0.647201
O42   O     O_3   0.366400 0.992419 0.089602 -0.654707
O43   O     O_3   0.366434 0.007556 0.589583 -0.654558
O44   O     O_3   0.970564 0.329600 0.671363 -0.577222
O45   O     O_3   0.135743 0.489170 0.609808 -0.641234
O46   O     O_3   0.970645 0.670404 0.170255 -0.577862
O47   O     O_3   0.469376 0.829562 0.667586 -0.584850
O48   O     O_3   0.469441 0.170444 0.166163 -0.585525
O49   O     O_2   0.085560 0.445380 0.786390 -0.467244
O50   O     O_2   0.085560 0.554620 0.286390 -0.420193
O51   O     O_2   0.585560 0.945380 0.786390 -0.467975
O52   O     O_2   0.585560 0.054620 0.286390 -0.420559
O53   O     O_3   0.014550 0.412170 0.047860 -0.467322
O54   O     O_3   0.014550 0.587830 0.547860 -0.472947
O55   O     O_3   0.514550 0.912170 0.047860 -0.465960
O56   O     O_3   0.136089 0.511262 0.117522 -0.599301
O57   O     O_3   0.514550 0.087830 0.547860 -0.471738
O58   O     O_2   0.095320 0.387776 0.975371 -0.503131
O59   O     O_2   0.095788 0.611133 0.476910 -0.459598
O60   O     O_2   0.595437 0.887959 0.975988 -0.503719
O61   O     O_2   0.596014 0.110744 0.478113 -0.459709
O62   O     O_3   0.198892 0.455905 0.095699 -0.608612
O63   O     O_3   0.174116 0.559616 0.505030 -0.607771
O64   O     O_3   0.698907 0.955953 0.095754 -0.608319
O65   O     O_3   0.674328 0.059559 0.506192 -0.607670
O66   O     O_3   0.853902 0.538420 0.898623 -0.696763
O67   O     O_3   0.635742 0.989168 0.609764 -0.641216
O68   O     O_3   0.853931 0.461564 0.398672 -0.696833
O69   O     O_3   0.331076 0.974442 0.854085 -0.645545
O70   O     O_3   0.331086 0.025503 0.354081 -0.645622
O71   O     O_3   0.636090 0.011266 0.117594 -0.599601
O72   O     O_3   0.035231 0.332876 0.979167 -0.556895
P1    P     P_3+3 0.909970 0.458430 0.077330 1.026190
P2    P     P_3+3 0.055219 0.624039 0.573943 0.966756
P3    P     P_3+3 0.554816 0.875596 0.073880 0.958171
P4    P     P_3+3 0.555349 0.123928 0.573984 0.966664
P5    P     P_3+3 0.945429 0.625244 0.126997 0.973691
P6    P     P_3+3 0.945442 0.374754 0.627086 0.974812
P7    P     P_3+3 0.444655 0.124714 0.129930 0.997472
P8    P     P_3+3 0.444682 0.875273 0.629952 0.998502
P9    P     P_3+3 0.909970 0.541570 0.577330 1.025894
P10   P     P_3+3 0.409970 0.958430 0.077330 1.011604
P11   P     P_3+3 0.409970 0.041570 0.577330 1.011391
P12   P     P_3+3 0.089830 0.458070 0.612460 0.983852
P13   P     P_3+3 0.089830 0.541930 0.112460 1.027541
P14   P     P_3+3 0.589830 0.958070 0.612460 0.983099
P15   P     P_3+3 0.589830 0.041930 0.112460 1.026417
P16   P     P_3+3 0.054762 0.375553 0.073900 0.958130

loop_
_geom_bond_atom_site_label_1
_geom_bond_atom_site_label_2
_ccdc_geom_bond_type
C66   C123  A    
C95   C99   A    
C15   C118  A    
C41   C144  D    
C83   C89   A    
C45   H25   S    
C46   O15   D    
C4    H103  S    
C86   O2    S    
C64   C71   A    
O45   P12   S    
C46   C55   A    
C135  H131  S    
O31   P6    S    
C136  H136  S    
C28   O69   S    
C13   N3    Am   
C81   C92   A    
C91   C95   A    
Ba3   O30   S    
C19   H10   S    
C11   N8    S    
C96   C100  A    
C119  P14   S    
C17   H4    S    
O55   P3    S    
C22   H49   S    
C5    C9    A    
C60   C80   A    
C16   C119  A    
C130  C139  S    
C7    C11   A    
C63   C90   A    
Ba4   O52   S    
C47   O65   S    
O32   P5    S    
C27   O68   S    
C30   H46   S    
C84   C91   A    
C85   H125  S    
C86   H122  S    
O52   P15   D    
C53   N4    Am   
C21   H82   S    
C22   H93   S    
C91   H74   S    
Ba4   O57   S    
Ba1   O6    S    
C14   H118  S    
C27   H2    S    
C58   C62   A    
C77   C95   A    
C94   C98   A    
C58   C84   A    
C1    H112  S    
C33   H45   S    
C36   H14   S    
C1    H59   S    
C74   C78   A    
O38   P8    D    
Ba4   O34   S    
O35   P7    S    
C63   C70   A    
Ba3   O7    S    
Ba3   O33   S    
O44   P6    S    
C133  H134  S    
C72   C103  A    
C50   H39   S    
O54   P2    S    
C12   C111  A    
C1    H64   S    
C138  P6    S    
O47   P8    S    
C5    H105  S    
C38   C79   S    
C65   C112  A    
O59   P2    D    
Ba4   P11   S    
C18   H9    S    
C63   H90   S    
Ba3   P14   S    
C134  O9    D    
C125  N1    S    
C57   H113  S    
C67   C72   A    
C99   O19   D    
C53   O17   D    
C129  H86   S    
Ba1   O49   S    
C47   H28   S    
C51   O70   S    
Ba3   O51   S    
C44   H21   S    
C18   O45   S    
C69   C73   A    
C131  H88   S    
C39   C138  S    
Ba4   O8    S    
O67   P14   S    
C71   C75   A    
C6    C144  A    
O49   P12   D    
C136  H132  S    
C126  N2    S    
C139  P5    S    
C25   O65   S    
C41   H110  S    
C35   N1    Am   
C59   C90   A    
C129  C138  S    
C28   C32   S    
C87   H128  S    
O41   P9    S    
C12   C116  A    
C137  H72   S    
C75   C80   A    
C85   C133  S    
C38   H16   S    
C10   C131  D    
O5    P13   S    
C98   O18   D    
C109  H101  S    
C21   H1    S    
C44   O63   S    
Ba1   O53   S    
C104  N6    Am   
C36   H56   S    
C15   C114  A    
C50   H37   S    
Ba2   O27   S    
C41   C140  S    
O29   P10   S    
C27   O41   S    
O1    P1    D    
C12   H117  S    
C142  P1    S    
O3    P3    S    
C9    N6    S    
C57   H65   S    
O72   P16   S    
Ba2   O50   S    
C26   C30   S    
C59   C78   A    
C3    C42   D    
C21   O62   S    
C6    C10   A    
O61   P4    D    
C11   C132  D    
O57   P4    S    
C33   H50   S    
C35   C54   A    
C36   C57   S    
C87   C136  S    
C105  O25   D    
Ba3   O23   S    
C111  P2    S    
C32   H48   S    
C117  C121  A    
C102  N8    Am   
C78   C96   A    
O34   P11   D    
C4    C8    A    
C92   H75   S    
C48   O66   S    
C67   H81   S    
C30   H35   S    
C51   H40   S    
C88   C137  S    
C98   N5    Am   
O48   P7    S    
C50   H38   S    
Ba4   O29   S    
C81   H77   S    
C32   H53   S    
Ba2   O5    S    
Ba3   Ba4   S    
C37   O47   S    
C69   H83   S    
C15   H119  S    
C97   C102  A    
Ba2   O54   S    
C17   C21   S    
C31   H43   S    
C32   H44   S    
C73   C104  A    
C4    C142  A    
C72   C76   A    
O51   P14   D    
C68   H114  S    
C43   H17   S    
Ba1   O1    S    
C48   H31   S    
C34   H12   S    
C49   H34   S    
C29   H24   S    
C84   H80   S    
C40   C139  S    
C92   C96   A    
C100  O20   D    
Ba2   P9    S    
C74   C105  A    
C24   N4    Am   
C2    N2    Am   
C107  H99   S    
C64   C101  A    
C10   N7    S    
C108  C126  A    
C132  H89   S    
Ba4   P15   S    
C122  H97   S    
C18   H5    S    
O58   P16   D    
C39   H108  S    
C68   H66   S    
O33   P8    S    
Ba3   P10   S    
C16   H120  S    
C20   H11   S    
O4    P4    S    
C134  N1    Am   
Ba1   O5    S    
C108  C113  A    
C88   H124  S    
C40   C143  D    
C143  P9    S    
C121  H96   S    
C23   H60   S    
C9    C130  D    
Ba2   P13   S    
C20   C25   S    
C2    O10   D    
C107  C125  A    
C29   O70   S    
C7    H107  S    
C31   H47   S    
C100  N7    Am   
C1    C34   S    
C45   O64   S    
C34   O44   S    
C45   H26   S    
O60   P3    D    
C28   O42   S    
C53   C58   A    
C35   O14   D    
C70   H84   S    
C49   H36   S    
C43   H18   S    
C118  P15   S    
C104  O24   D    
C29   C33   S    
C52   C56   A    
O27   P1    S    
C23   H104  S    
C135  H69   S    
C73   C77   A    
C66   C69   A    
C57   H61   S    
C120  H95   S    
C47   H27   S    
C14   C113  A    
C137  H133  S    
C43   O62   S    
C44   H22   S    
C140  P8    S    
C26   H126  S    
Ba2   O32   S    
O30   P11   S    
C37   H15   S    
C133  H68   S    
C90   C134  A    
C27   C31   S    
O39   P7    D    
C49   O68   S    
C51   H41   S    
C105  N7    Am   
C42   H111  S    
C106  N8    Am   
C75   C106  A    
C76   C94   A    
C6    H106  S    
C106  O26   D    
O46   P5    S    
C64   H91   S    
C79   H67   S    
O12   P9    D    
O53   P16   S    
C88   O4    S    
C93   H76   S    
C22   O63   S    
C124  H98   S    
C39   C142  D    
C62   C77   A    
C87   O3    S    
C2    C101  A    
C120  C125  S    
C38   H58   S    
C117  P12   S    
C65   H92   S    
C48   H30   S    
Ba3   O8    S    
C14   C117  A    
C3    P11   S    
C18   C22   S    
C19   H6    S    
O56   P13   S    
C16   C115  A    
C26   O40   S    
C24   O13   D    
O71   P15   S    
C19   O71   S    
C26   O66   S    
C86   C135  S    
C60   C101  A    
C62   C123  A    
C3    C7    A    
C55   C60   A    
Ba2   O6    S    
C85   H121  S    
O42   P10   S    
C87   H123  S    
C42   C141  S    
C110  H102  S    
Ba1   O28   S    
O36   P6    D    
O37   P5    D    
C116  P13   S    
Ba1   Ba2   S    
C88   H129  S    
C65   C67   A    
C50   O69   S    
C40   H109  S    
C116  C120  A    
C121  C126  S    
C68   H62   S    
C13   O11   D    
O40   P1    S    
O43   P11   S    
C130  H87   S    
C86   H127  S    
Ba4   O7    S    
C19   C23   S    
O2    P2    S    
C70   C74   A    
C132  C141  S    
C20   H7    S    
C20   O67   S    
C144  P10   S    
C61   C76   A    
C46   N2    Am   
C80   C97   A    
C79   H116  S    
O50   P13   D    
C124  C128  S    
C85   O72   S    
Ba1   O31   S    
C56   C83   A    
C31   H52   S    
C133  H130  S    
C51   H42   S    
C52   O16   D    
C45   H23   S    
C99   N6    Am   
C8    N5    S    
C5    C143  A    
Ba4   O35   S    
O28   P9    S    
C17   O56   S    
C118  C122  A    
C48   H32   S    
C49   H33   S    
C43   H19   S    
C44   H20   S    
C33   H54   S    
C115  P3    S    
C28   H13   S    
C141  P7    S    
C37   C68   S    
C136  H70   S    
C131  C140  S    
C113  P16   S    
O23   P10   D    
C8    C129  D    
C82   H78   S    
C61   C112  A    
C82   C93   A    
C54   C81   A    
O7    P15   S    
C137  H3    S    
Ba3   O55   S    
C54   C59   A    
C108  H100  S    
C109  C127  A    
Ba1   P1    S    
C110  C128  A    
C110  C115  A    
C56   C61   A    
C89   H73   S    
C24   C123  A    
C83   H79   S    
C135  H135  S    
C34   H55   S    
C55   C82   A    
C47   H29   S    
C66   H94   S    
C127  N3    S    
C103  O22   D    
O6    P12   S    
C119  C124  A    
C128  N4    S    
C122  C127  S    
O8    P14   S    
C25   H115  S    
C17   H8    S    
C71   H85   S    
C52   N3    Am   
C37   H57   S    
C79   H63   S    
C23   O64   S    
C30   H51   S    
C109  C114  A    
C36   O46   S    
C25   H71   S    
C38   O48   S    
C102  O21   D    
C114  P4    S    
C29   O43   S    
C107  C111  A    
Ba2   O12   S    
C89   C94   A    
Ba1   P12   S    
C93   C97   A    
C103  N5    Am   
C13   C112  A    
