data_mof_unit_30092.cif
_audit_creation_date              2012-12-10T18:21:23-0500
_audit_creation_method            fapswitch 2.2
_symmetry_space_group_name_H-M    P1
_symmetry_Int_Tables_number       1
_space_group_crystal_system       triclinic
_cell_length_a                    14.931654
_cell_length_b                    14.01461
_cell_length_c                    10.620652
_cell_angle_alpha                 90.125831
_cell_angle_beta                  90.003339
_cell_angle_gamma                 89.998063
_cell_volume                      2222.48615892

loop_
_atom_site_label
_atom_site_type_symbol
_atom_type_description
_atom_site_fract_x
_atom_site_fract_y
_atom_site_fract_z
_atom_type_partial_charge
C1    C     C_R   0.326828 0.499922 0.503142 0.941659
C2    C     C_3   0.586687 0.546826 0.927930 -0.410142
C3    C     C_R   0.813684 0.555970 0.412745 -0.223434
C4    C     C_R   0.768246 0.499331 0.498977 -0.065380
C5    C     C_R   0.812963 0.439938 0.582356 -0.251381
C6    C     C_R   0.905428 0.438883 0.582917 0.168049
C7    C     C_R   0.952950 0.495486 0.495480 0.015122
C8    C     C_R   0.906662 0.552275 0.406822 -0.064710
C9    C     C_R   0.950623 0.382880 0.670564 -0.246472
C10   C     C_R   0.043215 0.383814 0.674368 -0.154325
C11   C     C_R   0.092101 0.440391 0.589598 0.109180
C12   C     C_R   0.499884 0.499744 0.257505 0.825503
C13   C     C_R   0.046338 0.496025 0.498184 -0.030672
C14   C     C_R   0.093744 0.553549 0.411496 -0.028293
C15   C     C_R   0.047537 0.608012 0.320553 0.196853
C16   C     C_R   0.954023 0.604723 0.315260 0.435321
C17   C     C_R   0.185524 0.443065 0.594127 0.191554
C18   C     C_R   0.231218 0.499403 0.506293 -0.137430
C19   C     C_R   0.186543 0.554419 0.417440 -0.222079
C20   C     C_R   0.548455 0.797993 0.411208 -0.047657
C21   C     C_R   0.548240 0.201702 0.410982 -0.058555
C22   C     C_R   0.451727 0.798305 0.588917 -0.045473
C23   C     C_R   0.452037 0.201968 0.589212 -0.039456
C24   C     C_R   0.450677 0.898963 0.591175 0.013187
C25   C     C_R   0.450821 0.101335 0.591303 0.005873
C26   C     C_R   0.673087 0.499960 0.499840 0.874826
C27   C     C_R   0.500095 0.949387 0.500051 0.087362
C28   C     C_R   0.500101 0.050600 0.500050 0.086894
C29   C     C_R   0.549524 0.898645 0.408949 0.015205
C30   C     C_R   0.549421 0.101036 0.408837 0.016051
C31   C     C_R   0.401646 0.950168 0.681912 -0.194398
C32   C     C_R   0.401752 0.050463 0.682013 -0.184537
C33   C     C_R   0.598504 0.049835 0.318153 -0.197672
C34   C     C_R   0.598591 0.949536 0.318246 -0.191923
C35   C     C_R   0.499832 0.499873 0.742523 0.856954
C36   C     C_3   0.416956 0.554422 0.072494 -0.386351
C37   C     C_3   0.495707 0.394868 0.071189 -0.390239
C38   C     C_3   0.417191 0.554937 0.928075 -0.384413
C39   C     C_3   0.495404 0.394977 0.928297 -0.385502
C40   C     C_3   0.586573 0.547060 0.072456 -0.411572
C41   C     C_3   0.499793 0.499042 0.121262 0.176472
C42   C     C_3   0.499754 0.499225 0.878834 0.168970
H1    H     H_    0.417787 0.629320 0.107660 0.191510
H2    H     H_    0.554562 0.353340 0.105118 0.172365
H3    H     H_    0.075397 0.339772 0.744406 0.199709
H4    H     H_    0.225670 0.596102 0.351712 0.199030
H5    H     H_    0.586174 0.757657 0.342174 0.129272
H6    H     H_    0.585756 0.241802 0.341740 0.129861
H7    H     H_    0.414033 0.758211 0.657977 0.135247
H8    H     H_    0.414761 0.242230 0.658688 0.171525
H9    H     H_    0.363252 0.912675 0.752815 0.151955
H10   H     H_    0.363434 0.088222 0.752979 0.161135
H11   H     H_    0.636841 0.087334 0.247195 0.142777
H12   H     H_    0.637002 0.911793 0.247368 0.147142
H13   H     H_    0.354273 0.520469 0.107329 0.176024
H14   H     H_    0.434086 0.358563 0.105790 0.189618
H15   H     H_    0.354356 0.521870 0.892387 0.205849
H16   H     H_    0.433523 0.358986 0.893888 0.209609
H17   H     H_    0.418747 0.630045 0.894175 0.177896
H18   H     H_    0.553930 0.353148 0.893680 0.174667
H19   H     H_    0.591176 0.621924 0.107180 0.174390
H20   H     H_    0.646502 0.508128 0.107814 0.148548
H21   H     H_    0.591840 0.621528 0.893216 0.183191
H22   H     H_    0.646351 0.507241 0.892784 0.156609
H23   H     H_    0.775815 0.601269 0.349613 0.164596
H24   H     H_    0.775543 0.396685 0.648767 0.141990
H25   H     H_    0.914248 0.339212 0.737406 0.150087
N1    N     N_R   0.500070 0.750030 0.500050 -0.104198
N2    N     N_R   0.500070 0.249970 0.500050 -0.105495
O1    O     O_R   0.367860 0.580280 0.500020 -0.619423
O2    O     O_R   0.367860 0.419720 0.500020 -0.577769
O3    O     O_R   0.500000 0.580270 0.314790 -0.633044
O4    O     O_R   0.500000 0.419730 0.314790 -0.634018
O5    O     O_R   0.632160 0.580270 0.499960 -0.617164
O6    O     O_R   0.632160 0.419730 0.499960 -0.621964
O7    O     O_R   0.500030 0.580270 0.685200 -0.634001
O8    O     O_R   0.500030 0.419730 0.685200 -0.623239
Zn1   Zn    Zn3+2 0.500020 0.607200 0.499990 0.949091
Zn2   Zn    Zn3+2 0.500020 0.392800 0.499990 0.959379
Br1   Br    Br    0.251251 0.375451 0.723846 -0.620569
Br2   Br    Br    0.109237 0.689245 0.202366 -0.516268
O9    O     O_3   0.909711 0.658358 0.224969 -0.604922
C43   C     C_3   0.872308 0.598228 0.130867 0.057561
H26   H     H_    0.800668 0.618068 0.119874 0.151134
H27   H     H_    0.874021 0.520402 0.153617 0.114416
C44   C     C_3   0.920068 0.614598 0.005323 -0.267712
H28   H     H_    0.921250 0.692192 0.983899 0.251342
H29   H     H_    0.990209 0.588747 0.012325 0.246571
C45   C     C_3   0.873399 0.561961 0.897760 -0.976348
H30   H     H_    0.872089 0.484004 0.916353 0.261430
H31   H     H_    0.910277 0.574712 0.808585 0.286629
H32   H     H_    0.803725 0.588340 0.886414 0.261008

loop_
_geom_bond_atom_site_label_1
_geom_bond_atom_site_label_2
_ccdc_geom_bond_type
C27   C29   A    
C23   N2    A    
C24   C27   A    
C6    C9    A    
O2    Zn2   S    
C19   H4    S    
C7    C8    A    
C15   Br2   S    
C25   C28   A    
C1    C18   S    
C1    O2    A    
O7    Zn1   S    
C38   C42   S    
C5    C6    A    
C44   H29   S    
O1    Zn1   S    
C15   C16   A    
C40   H20   S    
C18   C19   A    
C35   C42   S    
C32   H10   S    
O3    Zn1   S    
C37   H14   S    
C31   C32   A    
C45   H31   S    
C9    C10   A    
C21   H6    S    
C25   C32   A    
C12   O3    A    
C8    C16   A    
C12   O4    A    
N1    Zn1   S    
C36   C41   S    
C3    H23   S    
C2    H22   S    
C26   O6    A    
C39   C42   S    
C20   C29   A    
O8    Zn2   S    
C33   H11   S    
C35   O7    A    
C3    C8    A    
C44   H28   S    
C5    H24   S    
C23   H8    S    
C39   H16   S    
C29   C34   A    
C35   O8    A    
C17   Br1   S    
C40   H19   S    
C21   N2    A    
C9    H25   S    
C12   C41   S    
C38   H15   S    
C43   H26   S    
C10   H3    S    
C16   O9    S    
C17   C18   A    
O4    Zn2   S    
C45   H32   S    
C22   N1    A    
C22   H7    S    
C40   C41   S    
C43   H27   S    
C34   H12   S    
C22   C24   A    
N2    Zn2   S    
C3    C4    A    
C2    H21   S    
C11   C17   A    
C30   C33   A    
C14   C19   A    
C20   N1    A    
C31   H9    S    
C4    C5    A    
C44   C45   S    
C4    C26   S    
C6    C7    A    
C21   C30   A    
C1    O1    A    
C37   H2    S    
C36   C38   S    
C24   C31   A    
C37   C39   S    
C36   H13   S    
C11   C13   A    
C2    C42   S    
C39   H18   S    
C28   C30   A    
C26   O5    A    
C33   C34   A    
C23   C25   A    
C37   C41   S    
C20   H5    S    
C10   C11   A    
C38   H17   S    
C2    C40   S    
C7    C13   A    
C43   C44   S    
O9    C43   S    
O5    Zn1   S    
C27   C28   A    
C14   C15   A    
C36   H1    S    
C45   H30   S    
C13   C14   A    
O6    Zn2   S    
