data_mof_unit_19755.cif
_audit_creation_date              2012-12-10T19:01:22-0500
_audit_creation_method            fapswitch 2.2
_symmetry_space_group_name_H-M    P1
_symmetry_Int_Tables_number       1
_space_group_crystal_system       triclinic
_cell_length_a                    9.554834
_cell_length_b                    10.834098
_cell_length_c                    15.505641
_cell_angle_alpha                 88.75481
_cell_angle_beta                  74.054356
_cell_angle_gamma                 90.633608
_cell_volume                      1542.74618689

loop_
_atom_site_label
_atom_site_type_symbol
_atom_type_description
_atom_site_fract_x
_atom_site_fract_y
_atom_site_fract_z
_atom_type_partial_charge
C1    C     C_R   0.998191 0.262642 0.502618 0.837973
C2    C     C_R   0.673903 0.476442 0.911567 0.013891
C3    C     C_R   0.777674 0.480788 0.961005 0.035650
C4    C     C_R   0.526328 0.448734 0.957918 0.095770
C5    C     C_R   0.479374 0.460785 0.052272 0.065220
C6    C     C_R   0.585074 0.473850 0.099678 -0.204034
C7    C     C_R   0.732273 0.477114 0.054436 -0.157551
C8    C     C_R   0.428396 0.397569 0.914309 -0.093463
C9    C     C_R   0.285022 0.368801 0.961426 -0.178513
C10   C     C_R   0.233533 0.396437 0.052081 0.082971
C11   C     C_R   0.329105 0.448893 0.096929 0.090039
C12   C     C_R   0.917611 0.502887 0.672681 0.848911
C13   C     C_R   0.088984 0.368499 0.099387 -0.275003
C14   C     C_R   0.036254 0.397196 0.189859 0.378696
C15   C     C_R   0.271663 0.487902 0.184976 -0.320958
C16   C     C_R   0.125193 0.066681 0.493015 -0.045989
C17   C     C_R   0.994956 0.129797 0.510903 -0.043660
C18   C     C_R   0.863357 0.061967 0.539754 -0.189245
C19   C     C_R   0.864978 0.932657 0.539926 -0.108558
C20   C     C_R   0.997634 0.870712 0.508592 -0.074967
C21   C     C_R   0.126526 0.940450 0.489181 -0.086013
C22   C     C_3   0.267868 0.945239 0.415383 0.274715
C23   C     C_R   0.999925 0.737628 0.501413 0.811821
C24   C     C_3   0.266540 0.086088 0.422633 0.292011
C25   C     C_R   0.587626 0.601844 0.469716 0.244661
C26   C     C_R   0.555544 0.406291 0.539895 0.002524
C27   C     C_R   0.406462 0.406760 0.540497 -0.006974
C28   C     C_R   0.442305 0.598854 0.466378 0.161651
C29   C     C_3   0.481237 0.649947 0.372802 -0.570525
C30   C     C_3   0.635492 0.668753 0.380427 0.675778
C31   C     C_R   0.081628 0.490985 0.328428 0.863298
C32   C     C_R   0.871304 0.502071 0.772457 -0.216811
C33   C     C_R   0.126760 0.462384 0.232360 -0.118666
C34   C     C_R   0.925786 0.490622 0.916803 -0.248493
C35   C     C_R   0.973869 0.495492 0.823540 0.347316
C36   C     C_R   0.720698 0.504583 0.818635 0.248191
Cu1   Cu    Cu3+1 0.140670 0.499980 0.500000 1.000905
Cu2   Cu    Cu3+1 0.859330 0.500020 0.500000 1.055701
H1    H     H_    0.811200 0.478527 0.092493 0.169884
H2    H     H_    0.018048 0.320871 0.066692 0.168792
H3    H     H_    0.759952 0.108270 0.559534 0.157093
H4    H     H_    0.762578 0.881831 0.561267 0.203102
H5    H     H_    0.357553 0.906402 0.439608 0.106202
H6    H     H_    0.351258 0.125058 0.452150 0.047828
H7    H     H_    0.596357 0.329334 0.570786 0.127610
H8    H     H_    0.335948 0.330337 0.572193 0.139585
H9    H     H_    0.472685 0.578291 0.324238 0.192853
H10   H     H_    0.339053 0.539675 0.217450 0.166170
H11   H     H_    0.425482 0.735913 0.365261 0.237206
H12   H     H_    0.213934 0.325893 0.926608 0.174350
H13   H     H_    0.005095 0.493276 0.954991 0.177039
H14   H     H_    0.556850 0.471610 0.172118 0.160038
H15   H     H_    0.464240 0.371855 0.844779 0.192058
N1    N     N_R   0.648210 0.500930 0.499430 -0.178696
N2    N     N_R   0.352300 0.500890 0.499430 -0.176168
O1    O     O_R   0.118810 0.319640 0.500000 -0.591285
O2    O     O_R   0.881230 0.319680 0.499990 -0.590203
O3    O     O_R   0.055580 0.499970 0.629840 -0.530399
O4    O     O_R   0.818000 0.500010 0.629830 -0.543114
O5    O     O_R   0.118770 0.680320 0.500010 -0.572690
O6    O     O_R   0.881190 0.680360 0.500000 -0.559930
O7    O     O_R   0.182000 0.499990 0.370170 -0.596686
O8    O     O_R   0.944420 0.500030 0.370160 -0.482278
O9    O     O_3   0.271613 0.902471 0.328122 -0.574601
C37   C     C_3   0.137952 0.906052 0.305474 -0.126732
H16   H     H_    0.069793 0.986125 0.332694 0.211177
H17   H     H_    0.076098 0.818303 0.326765 0.136758
H18   H     H_    0.162176 0.913424 0.231368 0.170986
O10   O     O_3   0.247696 0.150042 0.346186 -0.558663
C38   C     C_3   0.383570 0.195983 0.293597 -0.181015
H19   H     H_    0.464919 0.121325 0.276036 0.191195
H20   H     H_    0.424406 0.271157 0.328577 0.162870
H21   H     H_    0.369544 0.235662 0.230024 0.180966
O11   O     O_3   0.741396 0.604417 0.316126 -0.531322
C39   C     C_3   0.783459 0.671455 0.233711 -0.207505
H22   H     H_    0.842533 0.758456 0.239163 0.191062
H23   H     H_    0.688932 0.689900 0.206819 0.163398
H24   H     H_    0.862561 0.616356 0.184651 0.165739
Cl1   Cl    Cl    0.679877 0.827067 0.396401 -0.719476
Cl2   Cl    Cl    0.861101 0.340453 0.247665 -0.610986
Cl3   Cl    Cl    0.164533 0.500705 0.776693 -0.585384
Cl4   Cl    Cl    0.595857 0.577361 0.767939 -0.565100

loop_
_geom_bond_atom_site_label_1
_geom_bond_atom_site_label_2
_ccdc_geom_bond_type
C16   C21   A    
C19   C20   A    
C4    C8    A    
C14   C33   A    
Cu1   O7    S    
C35   Cl3   S    
C29   H11   S    
C25   C28   A    
C34   H13   S    
C29   C30   S    
C29   H9    S    
C32   C36   A    
C28   C29   S    
C1    O1    A    
C5    C11   A    
C3    C7    A    
C5    C6    A    
C30   O11   S    
C27   N2    A    
C18   C19   A    
C13   H2    S    
C26   H7    S    
Cu1   O1    S    
C11   C15   A    
C36   Cl4   S    
C16   C17   A    
C37   H17   S    
C31   C33   S    
C38   H19   S    
C14   Cl2   S    
C9    C10   A    
Cu1   O3    S    
C19   H4    S    
Cu2   O6    S    
C12   O3    A    
C16   C24   S    
C21   C22   S    
C12   C32   S    
C12   O4    A    
C31   O7    A    
C15   H10   S    
C34   C35   A    
C26   N1    A    
C28   N2    A    
C24   O10   S    
C23   O5    A    
O11   C39   S    
C32   C35   A    
C31   O8    A    
C25   N1    A    
C18   H3    S    
C8    C9    A    
C3    C34   A    
C2    C4    A    
C39   H22   S    
Cu1   Cu2   S    
C1    O2    A    
Cu2   O2    S    
C22   H5    S    
Cu2   N1    S    
C20   C23   S    
C37   H18   S    
C38   H21   S    
C17   C18   A    
C26   C27   A    
C39   H23   S    
C30   Cl1   S    
C27   H8    S    
C24   H6    S    
C22   C24   S    
Cu2   O8    S    
C2    C36   A    
C25   C30   S    
C9    H12   S    
C4    C5    A    
C10   C13   A    
C8    H15   S    
C6    C7    A    
C1    C17   S    
O9    C37   S    
C2    C3    A    
O10   C38   S    
C39   H24   S    
Cu1   O5    S    
C10   C11   A    
C22   O9    S    
Cu2   O4    S    
Cu1   N2    S    
C23   O6    A    
C20   C21   A    
C37   H16   S    
C7    H1    S    
C38   H20   S    
C6    H14   S    
C13   C14   A    
C15   C33   A    
