data_mof_unit_16652.cif
_audit_creation_date              2012-12-10T16:51:28-0500
_audit_creation_method            fapswitch 2.2
_symmetry_space_group_name_H-M    P1
_symmetry_Int_Tables_number       1
_space_group_crystal_system       triclinic
_cell_length_a                    7.83423
_cell_length_b                    8.614789
_cell_length_c                    12.03239
_cell_angle_alpha                 92.543959
_cell_angle_beta                  101.544924
_cell_angle_gamma                 93.649525
_cell_volume                      792.669395866

loop_
_atom_site_label
_atom_site_type_symbol
_atom_type_description
_atom_site_fract_x
_atom_site_fract_y
_atom_site_fract_z
_atom_type_partial_charge
C1    C     C_R   0.042884 0.794078 0.495609 0.871177
C2    C     C_R   0.157172 0.498567 0.833459 -0.093062
C3    C     C_2   0.053760 0.955014 0.477322 0.174722
C4    C     C_R   0.106306 0.503731 0.710745 0.950064
C5    C     C_2   0.945947 0.044949 0.522271 0.229912
C6    C     C_R   0.956895 0.205869 0.504001 0.902730
C7    C     C_R   0.891832 0.488076 0.289115 0.851150
C8    C     C_R   0.800543 0.269112 0.006819 -0.165451
C9    C     C_R   0.827335 0.451323 0.168915 -0.067346
C10   C     C_R   0.076591 0.594857 0.901359 -0.301257
C11   C     C_R   0.139007 0.612046 0.017730 -0.110951
C12   C     C_R   0.383111 0.459669 0.995723 -0.122796
C13   C     C_R   0.289546 0.542902 0.066840 0.438391
C14   C     C_R   0.299388 0.415212 0.883122 -0.003111
C15   C     C_R   0.558180 0.423989 0.030336 0.072458
C16   C     C_R   0.629587 0.311190 0.967323 0.130991
C17   C     C_R   0.528082 0.240671 0.867419 -0.337755
C18   C     C_R   0.362635 0.291812 0.823958 0.465429
C19   C     C_R   0.667130 0.504886 0.122770 -0.254556
C20   C     C_R   0.897338 0.335424 0.109963 -0.167827
H1    H     H_    0.022061 0.291889 0.145722 0.170362
H2    H     H_    0.069919 0.679375 0.070250 0.163685
H3    H     H_    0.319854 0.132460 0.699269 0.339646
H4    H     H_    0.214056 0.925856 0.373103 0.355149
H5    H     H_    0.469869 0.373956 0.416950 0.154183
H6    H     H_    0.855735 0.180629 0.960839 0.148284
H7    H     H_    0.624455 0.604409 0.165002 0.197465
H8    H     H_    0.786824 0.074406 0.627267 0.343222
H9    H     H_    0.634232 0.706413 0.638063 0.362755
H10   H     H_    0.578797 0.148483 0.822003 0.149348
H11   H     H_    0.965541 0.657590 0.864239 0.184911
H12   H     H_    0.389457 0.452124 0.206692 0.329000
N1    N     N_2   0.434800 0.456690 0.470850 -0.044711
N2    N     N_2   0.565200 0.543310 0.529150 0.107961
O1    O     O_R   0.893060 0.738880 0.507150 -0.571867
O2    O     O_3   0.521650 0.651259 0.599823 -0.622347
O3    O     O_3   0.331501 0.548057 0.183879 -0.776387
O4    O     O_3   0.256641 0.215958 0.728981 -0.778825
O5    O     O_3   0.156555 0.012190 0.404297 -0.785367
O6    O     O_R   0.172250 0.711130 0.488470 -0.579825
O7    O     O_R   0.944700 0.520730 0.667600 -0.638537
O8    O     O_R   0.223890 0.492980 0.648920 -0.534929
O9    O     O_R   0.827750 0.288870 0.511530 -0.664358
O10   O     O_R   0.106940 0.261120 0.492850 -0.546115
O11   O     O_R   0.776110 0.507020 0.351080 -0.633158
O12   O     O_R   0.055300 0.479270 0.332400 -0.589067
O13   O     O_3   0.843691 0.987953 0.595666 -0.778216
Zn1   Zn    Zn3+2 0.813580 0.518530 0.512470 1.001310
Zn2   Zn    Zn3+2 0.186420 0.481470 0.487530 1.073516

loop_
_geom_bond_atom_site_label_1
_geom_bond_atom_site_label_2
_ccdc_geom_bond_type
O10   Zn2   S    
C2    C4    S    
H8    O13   S    
H3    O4    S    
C11   C13   A    
O9    Zn1   S    
C14   C18   A    
C11   H2    S    
C13   O3    S    
O12   Zn2   S    
C12   C15   A    
N1    N2    D    
C18   O4    S    
C3    O5    S    
C8    C16   A    
C6    O10   A    
H12   O3    S    
C12   C13   A    
C15   C19   A    
C17   H10   S    
C5    O13   S    
H9    O2    S    
C8    C20   A    
C4    O8    A    
O1    Zn1   S    
C7    O11   A    
O7    Zn1   S    
C12   C14   A    
C17   C18   A    
N2    O2    S    
C6    O9    A    
C5    C6    S    
C2    C14   A    
N2    Zn1   S    
C10   C11   A    
C8    H6    S    
O8    Zn2   S    
N1    Zn2   S    
O6    Zn2   S    
C2    C10   A    
C7    O12   A    
H4    O5    S    
C19   H7    S    
C20   H1    S    
C1    O1    A    
C4    O7    A    
O11   Zn1   S    
C7    C9    S    
C9    C20   A    
C1    O6    A    
C3    C5    D    
C10   H11   S    
C9    C19   A    
C15   C16   A    
H5    N1    S    
C16   C17   A    
C1    C3    S    
