data_mof_unit_26537.cif
_audit_creation_date              2012-12-10T17:06:43-0500
_audit_creation_method            fapswitch 2.2
_symmetry_space_group_name_H-M    P1
_symmetry_Int_Tables_number       1
_space_group_crystal_system       triclinic
_cell_length_a                    15.899307
_cell_length_b                    10.982059
_cell_length_c                    9.792371
_cell_angle_alpha                 108.460629
_cell_angle_beta                  99.497748
_cell_angle_gamma                 90.496048
_cell_volume                      1596.20745024

loop_
_atom_site_label
_atom_site_type_symbol
_atom_type_description
_atom_site_fract_x
_atom_site_fract_y
_atom_site_fract_z
_atom_type_partial_charge
C1    C     C_R   0.488962 0.256480 0.445726 0.810252
C2    C     C_R   0.508350 0.746087 0.553490 0.730095
C3    C     C_2   0.531049 0.046381 0.437502 0.371993
C4    C     C_2   0.508900 0.914180 0.434405 0.295947
C5    C     C_2   0.511874 0.501176 0.078288 0.004272
C6    C     C_2   0.499000 0.482115 0.918613 -0.027604
C7    C     C_R   0.339989 0.501179 0.500019 0.779528
C8    C     C_R   0.660033 0.500047 0.500140 0.826330
C9    C     C_3   0.976607 0.404578 0.546461 0.462334
C10   C     C_3   0.023325 0.595101 0.451208 0.424002
C11   C     C_3   0.017555 0.386939 0.409714 0.032563
C12   C     C_3   0.982179 0.612814 0.587925 -0.003246
C13   C     C_1   0.250564 0.500478 0.499346 -0.174663
C14   C     C_1   0.749398 0.499993 0.500344 -0.171989
C15   C     C_3   0.041891 0.518486 0.634484 -0.008904
C16   C     C_3   0.957844 0.481348 0.363170 -0.003178
C17   C     C_3   0.083826 0.499815 0.498181 -0.008911
C18   C     C_3   0.915934 0.499586 0.499620 -0.010682
C19   C     C_1   0.175207 0.499849 0.498578 0.057482
C20   C     C_1   0.824664 0.499877 0.500239 0.049089
C21   C     C_2   0.466815 0.123647 0.431218 0.169144
C22   C     C_2   0.520237 0.883489 0.561703 0.177308
Cu1   Cu    Cu3+1 0.514700 0.521810 0.644910 0.985919
Cu2   Cu    Cu3+1 0.485300 0.478190 0.355090 0.989887
H1    H     H_    0.453732 0.406656 0.843750 0.140904
H2    H     H_    0.562234 0.568969 0.151633 0.153436
N1    N     N_2   0.463210 0.445420 0.137360 -0.107163
N2    N     N_2   0.536790 0.554580 0.862640 -0.100632
O1    O     O_R   0.507840 0.332340 0.577400 -0.574168
O2    O     O_R   0.492160 0.667660 0.422600 -0.539459
O3    O     O_R   0.483020 0.295500 0.332650 -0.568849
O4    O     O_R   0.516980 0.704500 0.667350 -0.559095
O5    O     O_R   0.391490 0.518400 0.622350 -0.587818
O6    O     O_R   0.608510 0.481600 0.377650 -0.587090
O7    O     O_R   0.366660 0.481570 0.377600 -0.553093
O8    O     O_R   0.633340 0.518430 0.622400 -0.544919
N3    N     N_3   0.037472 0.264885 0.310914 -0.614459
H3    H     H_    0.979826 0.209928 0.263689 0.244925
H4    H     H_    0.061682 0.284476 0.226611 0.234588
N4    N     N_3   0.961727 0.735113 0.685635 -0.602454
H5    H     H_    0.019089 0.791033 0.731866 0.231633
H6    H     H_    0.938111 0.716141 0.770792 0.224737
O9    O     O_3   0.945709 0.306989 0.594408 -0.576093
C23   C     C_3   0.013625 0.235366 0.632379 0.077063
H7    H     H_    0.062064 0.297137 0.723789 0.178298
H8    H     H_    0.044924 0.188509 0.537271 0.169248
C24   C     C_3   0.978897 0.130396 0.682677 -0.812004
H9    H     H_    0.932836 0.062994 0.592089 0.250129
H10   H     H_    0.032175 0.075558 0.716625 0.206398
H11   H     H_    0.946233 0.173701 0.777019 0.259062
O10   O     O_3   0.056156 0.692989 0.405814 -0.568350
C25   C     C_3   0.989712 0.764811 0.363349 0.071011
H12   H     H_    0.946195 0.794012 0.444539 0.167426
H13   H     H_    0.952247 0.708738 0.255019 0.134854
C26   C     C_3   0.028576 0.886398 0.349214 -0.798402
H14   H     H_    0.068931 0.860956 0.263072 0.249140
H15   H     H_    0.977074 0.945838 0.319277 0.202936
H16   H     H_    0.068742 0.943399 0.454709 0.255170
N5    N     N_3   0.910694 0.455529 0.215107 -0.578753
H17   H     H_    0.953899 0.468626 0.150522 0.228356
H18   H     H_    0.865720 0.524651 0.217946 0.207008
N6    N     N_3   0.088881 0.540841 0.782021 -0.601255
H19   H     H_    0.044081 0.554593 0.851641 0.228220
H20   H     H_    0.125770 0.627494 0.812211 0.228161
O11   O     O_3   0.486033 0.821906 0.296336 -0.622263
C27   C     C_3   0.402275 0.839296 0.232666 0.105245
H21   H     H_    0.402352 0.924575 0.194736 0.164094
H22   H     H_    0.356947 0.848740 0.310480 0.195457
C28   C     C_3   0.368765 0.724052 0.099303 -0.793968
H23   H     H_    0.362907 0.637276 0.132492 0.266459
H24   H     H_    0.304404 0.741449 0.047604 0.199151
H25   H     H_    0.411908 0.708939 0.018115 0.253244
O12   O     O_3   0.614585 0.093390 0.446220 -0.607772
C29   C     C_3   0.671107 0.994562 0.408924 0.051490
H26   H     H_    0.646249 0.923349 0.299432 0.158317
H27   H     H_    0.681799 0.945504 0.493168 0.138814
C30   C     C_3   0.756728 0.053438 0.402505 -0.746149
H28   H     H_    0.783219 0.125651 0.510007 0.279543
H29   H     H_    0.802362 0.977065 0.375305 0.180153
H30   H     H_    0.748599 0.101376 0.317286 0.250989
O13   O     O_3   0.539621 0.982773 0.694421 -0.585009
C31   C     C_3   0.611095 0.957466 0.785819 0.082239
H31   H     H_    0.658342 0.900665 0.723292 0.108750
H32   H     H_    0.589463 0.905427 0.855653 0.190965
C32   C     C_3   0.656470 0.084727 0.885698 -0.749788
H33   H     H_    0.611977 0.143350 0.952300 0.252987
H34   H     H_    0.711994 0.066669 0.960241 0.195515
H35   H     H_    0.679554 0.139022 0.819249 0.261550
O14   O     O_3   0.385742 0.082797 0.444840 -0.635758
C33   C     C_3   0.322808 0.170673 0.434102 0.051644
H36   H     H_    0.320709 0.197066 0.332796 0.151639
H37   H     H_    0.335159 0.257830 0.532569 0.154992
C34   C     C_3   0.235818 0.108750 0.428313 -0.797996
H38   H     H_    0.235694 0.080420 0.527575 0.254886
H39   H     H_    0.186114 0.178262 0.423492 0.224702
H40   H     H_    0.220482 0.022047 0.329767 0.244591
N7    N     N_3   0.598456 0.650843 0.950634 -0.478032
H41   H     H_    0.570630 0.717043 0.030408 0.216782
H42   H     H_    0.648537 0.608901 0.999462 0.200612
N8    N     N_3   0.398753 0.353428 0.050141 -0.463295
H43   H     H_    0.426247 0.277306 0.980854 0.220105
H44   H     H_    0.355405 0.395822 0.989109 0.199498

loop_
_geom_bond_atom_site_label_1
_geom_bond_atom_site_label_2
_ccdc_geom_bond_type
N2    N7    S    
C27   H22   S    
C26   H14   S    
C1    C21   S    
C34   H38   S    
O12   C29   S    
Cu2   N1    S    
O13   C31   S    
C24   H10   S    
C21   O14   S    
C30   H28   S    
C23   H7    S    
N3    H3    S    
C29   H27   S    
Cu1   O1    S    
C5    C6    S    
C32   H35   S    
C6    H1    S    
C10   C17   S    
C1    O3    A    
C2    O4    A    
C8    O8    A    
C28   H24   S    
N6    H20   S    
C5    N1    D    
C6    N2    D    
C23   H8    S    
Cu1   O5    S    
C29   C30   S    
C2    C22   S    
Cu1   Cu2   S    
C23   C24   S    
C32   H34   S    
C27   H21   S    
N5    H17   S    
C34   H39   S    
C7    O5    A    
C10   O10   S    
C1    O1    A    
N7    H42   S    
C25   H13   S    
N7    H41   S    
C24   H11   S    
C30   H29   S    
N1    N8    S    
C9    O9    S    
Cu2   O7    S    
N5    H18   S    
C29   H26   S    
C13   C19   T    
O10   C25   S    
C22   O13   S    
C14   C20   T    
C32   H33   S    
C31   H31   S    
Cu2   O6    S    
C16   N5    S    
C12   N4    S    
C28   H25   S    
O9    C23   S    
N6    H19   S    
C4    C22   D    
C11   C16   S    
C33   H37   S    
C24   H9    S    
C12   C15   S    
N8    H44   S    
C8    O6    A    
Cu1   N2    S    
C9    C11   S    
C10   C12   S    
N4    H5    S    
O11   C27   S    
C34   H40   S    
C31   H32   S    
C26   H15   S    
C3    C21   D    
C3    C4    S    
C25   H12   S    
C33   C34   S    
C11   N3    S    
C30   H30   S    
C15   C17   S    
C11   C17   S    
C8    C14   S    
C7    O7    A    
C25   C26   S    
C31   C32   S    
C2    O2    A    
Cu1   O4    S    
C9    C15   S    
Cu2   O3    S    
N3    H4    S    
C10   C16   S    
C33   H36   S    
C4    O11   S    
N4    H6    S    
N8    H43   S    
C17   C19   S    
C15   N6    S    
C18   C20   S    
C28   H23   S    
C3    O12   S    
Cu2   O2    S    
C5    H2    S    
C27   C28   S    
C9    C18   S    
C7    C13   S    
C16   C18   S    
Cu1   O8    S    
C26   H16   S    
C12   C18   S    
O14   C33   S    
