data_mof_unit_6543.cif
_audit_creation_date              2013-03-05T16:47:55-0500
_audit_creation_method            fapswitch 2.2
_symmetry_space_group_name_H-M    P1
_symmetry_Int_Tables_number       1
_space_group_crystal_system       triclinic
_cell_length_a                    8.113823
_cell_length_b                    8.919609
_cell_length_c                    16.844993
_cell_angle_alpha                 89.874542
_cell_angle_beta                  86.510047
_cell_angle_gamma                 89.918072
_cell_volume                      1216.84320649

loop_
_atom_site_label
_atom_site_type_symbol
_atom_site_description
_atom_site_fract_x
_atom_site_fract_y
_atom_site_fract_z
_atom_type_partial_charge
O1    O     O_R   0.363150 0.714660 0.500000 -0.625040
O2    O     O_R   0.636850 0.285340 0.500000 -0.608554
O3    O     O_R   0.636850 0.714660 0.500000 -0.599439
O4    O     O_R   0.363150 0.285340 0.500000 -0.616908
C1    C     C_R   0.499900 0.781967 0.500208 0.965735
C2    C     C_R   0.500056 0.218031 0.500140 0.952501
O5    O     O_R   0.346950 0.500000 0.615800 -0.618764
O6    O     O_R   0.653050 0.500000 0.384200 -0.593720
O7    O     O_R   0.620700 0.500000 0.615800 -0.604799
O8    O     O_R   0.379300 0.500000 0.384200 -0.611648
C3    C     C_R   0.479631 0.501931 0.652860 0.977404
C4    C     C_R   0.520429 0.500406 0.347147 0.962998
Zn1   Zn    Zn3+2 0.317220 0.500000 0.500010 1.021714
Zn2   Zn    Zn3+2 0.682780 0.500000 0.499990 1.044392
N1    N     N_1   0.926360 0.500000 0.499990 -0.017399
N2    N     N_1   0.073640 0.500000 0.500010 -0.020595
C5    C     C_R   0.476333 0.522588 0.737780 -0.190738
C6    C     C_R   0.524672 0.518716 0.262087 -0.190817
C7    C     C_R   0.466999 0.669781 0.768594 0.071464
C8    C     C_R   0.473432 0.399293 0.214898 0.074271
C9    C     C_R   0.518892 0.696238 0.845469 0.185953
C10   C     C_R   0.431588 0.429084 0.136591 0.196609
C11   C     C_R   0.568461 0.573589 0.891631 0.042051
C12   C     C_R   0.447758 0.577180 0.106621 0.043554
C13   C     C_R   0.576604 0.426499 0.860546 0.115837
C14   C     C_R   0.498581 0.696099 0.154372 0.122419
C15   C     C_R   0.529426 0.402069 0.783265 0.321260
C16   C     C_R   0.539689 0.665350 0.232045 0.315604
C17   C     C_2   0.580070 0.593533 0.976604 -0.179767
C18   C     C_2   0.439962 0.601538 0.021788 -0.180720
C19   C     C_1   0.499836 0.934780 0.500353 -0.124388
C20   C     C_1   0.500061 0.065221 0.500306 -0.131870
H1    H     H_    0.320507 0.604676 0.995802 0.166532
H2    H     H_    0.698530 0.579572 0.002706 0.166392
C21   C     C_3   0.634175 0.293997 0.908227 -0.819905
H3    H     H_    0.532469 0.211281 0.916851 0.257570
H4    H     H_    0.741014 0.239316 0.875601 0.266897
H5    H     H_    0.675096 0.324448 0.967572 0.228263
C22   C     C_3   0.505465 0.856500 0.124505 -0.825066
H6    H     H_    0.634699 0.897745 0.122445 0.256178
H7    H     H_    0.457899 0.870631 0.064733 0.230236
H8    H     H_    0.427032 0.928312 0.165149 0.261410
C23   C     C_3   0.370650 0.301952 0.086100 -0.889837
H9    H     H_    0.469197 0.216400 0.076305 0.242184
H10   H     H_    0.260657 0.248841 0.116749 0.247395
H11   H     H_    0.332515 0.338296 0.027057 0.247447
C24   C     C_3   0.523189 0.855323 0.877296 -0.847849
H12   H     H_    0.588560 0.864451 0.932915 0.235137
H13   H     H_    0.591441 0.929243 0.833688 0.283023
H14   H     H_    0.395515 0.898292 0.888734 0.243153
C25   C     C_3   0.409687 0.800166 0.719063 -0.804863
H15   H     H_    0.315663 0.867286 0.753983 0.263552
H16   H     H_    0.516420 0.872661 0.700704 0.264977
H17   H     H_    0.350141 0.764469 0.664914 0.226617
C26   C     C_3   0.463722 0.240289 0.247364 -0.795204
H18   H     H_    0.543016 0.165577 0.208784 0.255929
H19   H     H_    0.508148 0.229329 0.308041 0.225236
H20   H     H_    0.334255 0.199835 0.249366 0.246809
Cl1   Cl    Cl    0.603309 0.813048 0.293576 -0.649051
Cl2   Cl    Cl    0.539517 0.219313 0.741723 -0.681763

loop_
_geom_bond_atom_site_label_1
_geom_bond_atom_site_label_2
_geom_bond_distance
_ccdc_geom_bond_type
C2    C20   1.363000 S    
O7    Zn2   1.984888 S    
C17   C18   1.330946 D    
C13   C15   1.396720 A    
C23   H10   1.109724 S    
C14   C16   1.396315 A    
C19   C20   1.163483 T    
O6    C4    1.276422 A    
C26   H18   1.109122 S    
C25   H17   1.105521 S    
O3    C1    1.262059 A    
C11   C13   1.413650 A    
C24   H13   1.109231 S    
O5    C3    1.277069 A    
O7    C3    1.270094 A    
O2    C2    1.262521 A    
O3    Zn2   1.950089 S    
O8    C4    1.270365 A    
C13   C21   1.516592 S    
C8    C26   1.519343 S    
O1    C1    1.262522 A    
C11   C17   1.451522 S    
O4    C2    1.262064 A    
C7    C9    1.406366 A    
C8    C10   1.406620 A    
C24   H14   1.109971 S    
C12   C18   1.450132 S    
C15   Cl2   1.775192 S    
C26   H19   1.108378 S    
C9    C11   1.412907 A    
C23   H9    1.109785 S    
O2    Zn2   1.951135 S    
C23   H11   1.107159 S    
C10   C12   1.416524 A    
C14   C22   1.515534 S    
Zn1   N2    1.976365 S    
O1    Zn1   1.951134 S    
C25   H16   1.109897 S    
C25   H15   1.109975 S    
C5    C15   1.401250 A    
C24   H12   1.107576 S    
C7    C25   1.518679 S    
O5    Zn1   1.979861 S    
C21   H5    1.106897 S    
C6    C16   1.404150 A    
C21   H4    1.110561 S    
C6    C8    1.408754 A    
C22   H7    1.106893 S    
C16   Cl1   1.774654 S    
C4    C6    1.440084 S    
C22   H6    1.110264 S    
C26   H20   1.109749 S    
C22   H8    1.109829 S    
C5    C7    1.413077 A    
O6    Zn2   1.979861 S    
C21   H3    1.110462 S    
C18   H1    1.087815 S    
C1    C19   1.363042 S    
Zn2   N1    1.976365 S    
C17   H2    1.087902 S    
C10   C23   1.520114 S    
C3    C5    1.441317 S    
N1    N2    1.195024 T    
O4    Zn1   1.950090 S    
C12   C14   1.409791 A    
C9    C24   1.519173 S    
O8    Zn1   1.984888 S    
