data_mof_unit_36824.cif
_audit_creation_date              2012-12-11T15:49:08-0500
_audit_creation_method            fapswitch 2.2
_symmetry_space_group_name_H-M    P1
_symmetry_Int_Tables_number       1
_space_group_crystal_system       triclinic
_cell_length_a                    21.645976
_cell_length_b                    7.177397
_cell_length_c                    15.365219
_cell_angle_alpha                 90.523218
_cell_angle_beta                  107.706049
_cell_angle_gamma                 90.11783
_cell_volume                      2273.96180938

loop_
_atom_site_label
_atom_site_type_symbol
_atom_type_description
_atom_site_fract_x
_atom_site_fract_y
_atom_site_fract_z
_atom_type_partial_charge
O1    O     O_R   0.335860 0.638190 0.002110 -0.518617
O2    O     O_R   0.664140 0.361810 0.997890 -0.511673
O3    O     O_R   0.164140 0.138190 0.997890 -0.519182
O4    O     O_R   0.835860 0.861810 0.002110 -0.516955
O5    O     O_R   0.217530 0.305920 0.861960 -0.541868
O6    O     O_R   0.782470 0.694080 0.138040 -0.537057
O7    O     O_R   0.282470 0.805920 0.138040 -0.542636
O8    O     O_R   0.717530 0.194080 0.861960 -0.547655
C1    C     C_R   0.204841 0.475642 0.826917 0.844143
C2    C     C_R   0.795550 0.524571 0.173146 0.838868
C3    C     C_R   0.295778 0.977564 0.172949 0.843175
C4    C     C_R   0.704091 0.022079 0.827102 0.845234
O9    O     O_R   0.338690 0.308320 0.993240 -0.514112
O10   O     O_R   0.661310 0.691680 0.006760 -0.516572
O11   O     O_R   0.161310 0.808320 0.006760 -0.513377
O12   O     O_R   0.838690 0.191680 0.993240 -0.517545
O13   O     O_R   0.286170 0.140430 0.130100 -0.543808
O14   O     O_R   0.713830 0.859570 0.869900 -0.545542
O15   O     O_R   0.213830 0.640430 0.869900 -0.540891
O16   O     O_R   0.786170 0.359570 0.130100 -0.539080
C5    C     C_R   0.365226 0.476817 0.999157 0.822114
C6    C     C_R   0.634989 0.522772 0.001867 0.819081
C7    C     C_R   0.134681 0.976494 0.000383 0.823496
C8    C     C_R   0.865044 0.023155 0.998325 0.827503
O17   O     O_3   0.232630 0.472410 0.044750 -0.391551
O18   O     O_3   0.767370 0.527590 0.955250 -0.394840
O19   O     O_3   0.267370 0.972410 0.955250 -0.390217
O20   O     O_3   0.732630 0.027590 0.044750 -0.386239
V1    V     V_3+5 0.253220 0.196620 0.991700 1.626960
V2    V     V_3+5 0.746780 0.803380 0.008300 1.636003
V3    V     V_3+5 0.246780 0.696620 0.008300 1.630130
V4    V     V_3+5 0.753220 0.303380 0.991700 1.628550
C9    C     C_R   0.034467 0.833775 0.026069 0.287189
C10   C     C_R   0.964325 0.163328 0.968629 0.264432
C11   C     C_R   0.464900 0.333402 0.972361 0.258356
C12   C     C_R   0.536215 0.663003 0.032432 0.248162
C13   C     C_R   0.969922 0.848583 0.026664 0.488494
C14   C     C_R   0.028834 0.148307 0.967807 0.496391
C15   C     C_R   0.529704 0.347296 0.972634 0.506341
C16   C     C_R   0.471340 0.649046 0.032177 0.489536
C17   C     C_R   0.933974 0.012681 0.998326 -0.381534
C18   C     C_R   0.065121 0.985363 0.997621 -0.387321
C19   C     C_R   0.566027 0.511921 0.001703 -0.381285
C20   C     C_R   0.434652 0.485877 0.001388 -0.377698
C21   C     C_R   0.676194 0.006426 0.728153 -0.300409
C22   C     C_R   0.322486 0.984049 0.272278 -0.285189
C23   C     C_R   0.823911 0.524862 0.272475 -0.303304
C24   C     C_R   0.177947 0.475402 0.727599 -0.289686
C25   C     C_R   0.689606 0.934651 0.581947 -0.209205
C26   C     C_R   0.310806 0.896046 0.416683 -0.207658
C27   C     C_R   0.816230 0.613373 0.420062 -0.198651
C28   C     C_R   0.187620 0.373532 0.582913 -0.197651
C29   C     C_R   0.715523 0.949566 0.676059 0.488357
C30   C     C_R   0.284085 0.920397 0.323741 0.480267
C31   C     C_R   0.789165 0.604882 0.326138 0.491549
C32   C     C_R   0.214936 0.400659 0.675981 0.480014
C33   C     C_R   0.609258 0.030547 0.686893 0.639295
C34   C     C_R   0.388311 0.025914 0.314443 0.636779
C35   C     C_R   0.888196 0.466861 0.312667 0.639317
C36   C     C_R   0.112583 0.520026 0.686008 0.634784
C37   C     C_R   0.580709 0.991974 0.592241 -0.053483
C38   C     C_R   0.418286 0.983115 0.408144 -0.054461
C39   C     C_R   0.920078 0.502091 0.407097 -0.063733
C40   C     C_R   0.081910 0.475217 0.592315 -0.063428
C41   C     C_R   0.623199 0.967011 0.538888 -0.226158
C42   C     C_R   0.377011 0.932036 0.460424 -0.211443
C43   C     C_R   0.880318 0.555140 0.461347 -0.223218
C44   C     C_R   0.122378 0.418775 0.539635 -0.209711
C45   C     C_R   0.512148 0.978119 0.548737 -0.166024
C46   C     C_R   0.487191 0.984697 0.451291 -0.166027
C47   C     C_R   0.988607 0.481763 0.450681 -0.167079
C48   C     C_R   0.013341 0.487337 0.548515 -0.171787
C49   C     C_R   0.531925 0.969552 0.400496 0.643505
C50   C     C_R   0.468898 0.930301 0.598323 0.655387
C51   C     C_R   0.968280 0.494837 0.598818 0.661954
C52   C     C_R   0.033730 0.463993 0.400745 0.660444
C53   C     C_R   0.598911 0.970294 0.443277 0.352210
C54   C     C_R   0.402321 0.910191 0.555259 0.344945
C55   C     C_R   0.903316 0.536688 0.556246 0.356200
C56   C     C_R   0.098393 0.418305 0.444073 0.346051
H1    H     H_    0.721951 0.898281 0.542837 0.195702
H2    H     H_    0.279195 0.843671 0.453526 0.183391
H3    H     H_    0.786488 0.664141 0.460470 0.198655
H4    H     H_    0.218329 0.319459 0.544778 0.184526
O21   O     O_3   0.064494 0.662307 0.042882 -0.487706
C57   C     C_3   0.084873 0.625538 0.137493 0.208781
H5    H     H_    0.056290 0.699045 0.176688 0.167971
H6    H     H_    0.136527 0.667379 0.166585 0.140308
C58   C     C_3   0.078989 0.417337 0.150193 -0.504299
H7    H     H_    0.110799 0.340428 0.117888 0.194742
H8    H     H_    0.093560 0.381749 0.223057 0.224166
H9    H     H_    0.027818 0.372953 0.120101 0.275506
O22   O     O_3   0.934774 0.335464 0.952747 -0.489567
C59   C     C_3   0.910307 0.367120 0.857995 0.202104
H10   H     H_    0.861675 0.300806 0.830572 0.085997
H11   H     H_    0.942356 0.312624 0.819016 0.188373
C60   C     C_3   0.903759 0.576209 0.843355 -0.475185
H12   H     H_    0.952359 0.642813 0.866913 0.246240
H13   H     H_    0.882189 0.608156 0.770514 0.228922
H14   H     H_    0.872054 0.635648 0.881178 0.219177
O23   O     O_3   0.434268 0.161790 0.955139 -0.498575
C61   C     C_3   0.416247 0.117669 0.861016 0.201732
H15   H     H_    0.443947 0.194585 0.821994 0.158015
H16   H     H_    0.363982 0.149325 0.830526 0.145509
C62   C     C_3   0.426395 0.910327 0.850558 -0.520368
H17   H     H_    0.394648 0.829784 0.881246 0.195332
H18   H     H_    0.414403 0.869239 0.778152 0.228318
H19   H     H_    0.478009 0.875619 0.883564 0.280691
O24   O     O_3   0.568032 0.832523 0.053188 -0.507386
C63   C     C_3   0.583148 0.873615 0.147442 0.252719
H20   H     H_    0.635883 0.853178 0.179644 0.159000
H21   H     H_    0.557462 0.785297 0.185061 0.181644
C64   C     C_3   0.566903 0.076462 0.158594 -0.486960
H22   H     H_    0.515379 0.102801 0.120846 0.286828
H23   H     H_    0.573700 0.109778 0.230877 0.210791
H24   H     H_    0.598850 0.168724 0.133457 0.168600
F1    F     F_    0.942879 0.699482 0.055450 -0.613204
F2    F     F_    0.055868 0.296958 0.938637 -0.601885
F3    F     F_    0.556881 0.196274 0.945025 -0.601381
F4    F     F_    0.444373 0.798238 0.061618 -0.616598
O25   O     O_3   0.640292 0.960578 0.389978 -0.528557
C65   C     C_3   0.672180 0.134826 0.393614 0.072776
H25   H     H_    0.694473 0.187676 0.464457 0.113227
H26   H     H_    0.637718 0.242933 0.356604 0.135259
C66   C     C_3   0.726446 0.114402 0.350492 -0.608497
H27   H     H_    0.706535 0.075268 0.277308 0.225969
H28   H     H_    0.752976 0.248124 0.355953 0.164525
H29   H     H_    0.761099 0.006260 0.386765 0.232697
O26   O     O_3   0.363643 0.842990 0.605182 -0.538239
C67   C     C_3   0.325283 0.988761 0.623491 0.102312
H30   H     H_    0.300643 0.072303 0.562252 0.119595
H31   H     H_    0.355868 0.086807 0.674868 0.154850
C68   C     C_3   0.273219 0.903877 0.659319 -0.636918
H32   H     H_    0.243417 0.014642 0.676984 0.213079
H33   H     H_    0.240961 0.811647 0.606176 0.204818
H34   H     H_    0.295718 0.820374 0.721248 0.222835
O27   O     O_3   0.861884 0.559420 0.608537 -0.537660
C69   C     C_3   0.826014 0.393190 0.606146 0.093926
H35   H     H_    0.855036 0.295038 0.658049 0.160924
H36   H     H_    0.812089 0.321156 0.538247 0.109543
C70   C     C_3   0.763685 0.439680 0.628029 -0.666680
H37   H     H_    0.733447 0.534295 0.575494 0.221918
H38   H     H_    0.735621 0.310780 0.628274 0.174309
H39   H     H_    0.774558 0.507882 0.696114 0.240761
O28   O     O_3   0.136988 0.361997 0.391611 -0.544248
C71   C     C_3   0.178211 0.509333 0.383180 0.097774
H40   H     H_    0.200785 0.585667 0.448584 0.116032
H41   H     H_    0.150434 0.611580 0.332622 0.179046
C72   C     C_3   0.232483 0.427744 0.350735 -0.633314
H42   H     H_    0.212091 0.353090 0.284556 0.221097
H43   H     H_    0.265227 0.539380 0.341584 0.206435
H44   H     H_    0.261317 0.328149 0.401982 0.208847
F5    F     F_    0.420533 0.118516 0.264710 -0.630662
F6    F     F_    0.574058 0.105116 0.738155 -0.615270
F7    F     F_    0.081964 0.619394 0.736105 -0.616326
F8    F     F_    0.915821 0.362672 0.260533 -0.617042
F9    F     F_    0.220199 0.882663 0.283635 -0.734138
F10   F     F_    0.779749 0.917988 0.715910 -0.708857
F11   F     F_    0.278452 0.359975 0.715646 -0.734938
F12   F     F_    0.727213 0.662482 0.288043 -0.708116
F13   F     F_    0.511921 0.921418 0.310854 -0.638761
F14   F     F_    0.491461 0.871136 0.685812 -0.636161
F15   F     F_    0.984699 0.444304 0.687709 -0.635480
F16   F     F_    0.017953 0.506159 0.310978 -0.642971

loop_
_geom_bond_atom_site_label_1
_geom_bond_atom_site_label_2
_ccdc_geom_bond_type
C34   C38   A    
C25   C29   A    
O1    C5    A    
O22   C59   S    
O19   V1    S    
O13   V1    S    
O3    C7    A    
C10   O22   S    
O15   V3    S    
C60   H12   S    
O21   C57   S    
O7    C3    A    
C62   H18   S    
C21   C33   A    
C29   F10   S    
O23   C61   S    
C7    C18   S    
C25   C41   A    
C9    C18   A    
C40   C44   A    
O2    V4    S    
C54   O26   S    
C14   C18   A    
C32   F11   S    
C45   C46   A    
C72   H43   S    
C47   C52   A    
O4    C8    A    
C57   H6    S    
C37   C45   A    
C5    C20   S    
O1    V3    S    
C38   C46   A    
C61   C62   S    
C51   F15   S    
C25   H1    S    
C33   C37   A    
C28   H4    S    
C9    O21   S    
C63   H20   S    
C49   F13   S    
C64   H22   S    
C70   H37   S    
C1    O15   A    
C3    O13   A    
C2    O16   A    
O2    C6    A    
C68   H34   S    
C24   C36   A    
O14   V2    S    
C58   H8    S    
O5    V1    S    
C28   C44   A    
C64   H24   S    
O11   C7    A    
O27   C69   S    
C21   C29   A    
O12   C8    A    
C22   C34   A    
C8    C17   S    
C59   H10   S    
C10   C17   A    
O10   V2    S    
C48   C51   A    
C60   H13   S    
O28   C71   S    
C71   H41   S    
C42   C54   A    
C62   H19   S    
C39   C43   A    
C41   C53   A    
C38   C42   A    
O8    V4    S    
C12   C16   A    
O7    V3    S    
C70   H39   S    
C50   F14   S    
C57   H5    S    
C15   C19   A    
C59   C60   S    
C69   C70   S    
C9    C13   A    
C67   H31   S    
O5    C1    A    
C34   F5    S    
C66   H28   S    
C66   H29   S    
C71   C72   S    
C6    C19   S    
O8    C4    A    
C22   C30   A    
C46   C49   A    
C12   C19   A    
O9    C5    A    
C45   C50   A    
C27   C43   A    
C58   H9    S    
C59   H11   S    
C11   C20   A    
C26   C42   A    
C63   C64   S    
O25   C65   S    
C71   H40   S    
C69   H36   S    
C72   H44   S    
C56   O28   S    
O6    V2    S    
C39   C47   A    
C66   H27   S    
C52   F16   S    
C67   C68   S    
C65   H26   S    
C44   C56   A    
C27   H3    S    
C12   O24   S    
C60   H14   S    
C26   H2    S    
C23   C31   A    
O26   C67   S    
O16   V4    S    
O9    V1    S    
C24   C32   A    
C31   F12   S    
C16   F4    S    
C10   C14   A    
O17   V3    S    
C52   C56   A    
C4    C21   S    
C11   O23   S    
C57   C58   S    
O6    C2    A    
C35   F8    S    
O11   V3    S    
O18   V4    S    
O12   V4    S    
C62   H17   S    
C35   C39   A    
C61   H16   S    
C36   C40   A    
O10   C6    A    
C65   C66   S    
C70   H38   S    
C67   H30   S    
C58   H7    S    
C36   F7    S    
C47   C48   A    
C26   C30   A    
C72   H42   S    
C30   F9    S    
O3    V1    S    
C68   H32   S    
C15   F3    S    
C11   C15   A    
O20   V2    S    
C27   C31   A    
C40   C48   A    
C13   C17   A    
C61   H15   S    
C63   H21   S    
C53   O25   S    
C69   H35   S    
C23   C35   A    
C14   F2    S    
C37   C41   A    
C16   C20   A    
C13   F1    S    
C1    C24   S    
C50   C54   A    
C4    O14   A    
C2    C23   S    
C68   H33   S    
C49   C53   A    
C3    C22   S    
C65   H25   S    
O24   C63   S    
C33   F6    S    
C51   C55   A    
C55   O27   S    
C43   C55   A    
O4    V2    S    
C28   C32   A    
C64   H23   S    
