data_mof_unit_35093.cif
_audit_creation_date              2012-12-10T17:04:33-0500
_audit_creation_method            fapswitch 2.2
_symmetry_space_group_name_H-M    P1
_symmetry_Int_Tables_number       1
_space_group_crystal_system       triclinic
_cell_length_a                    14.925612
_cell_length_b                    10.728171
_cell_length_c                    10.089177
_cell_angle_alpha                 89.87885
_cell_angle_beta                  89.438962
_cell_angle_gamma                 89.878107
_cell_volume                      1615.43995606

loop_
_atom_site_label
_atom_site_type_symbol
_atom_type_description
_atom_site_fract_x
_atom_site_fract_y
_atom_site_fract_z
_atom_type_partial_charge
C1    C     C_R   0.495098 0.263068 0.500045 0.862594
C2    C     C_R   0.907415 0.604768 0.456651 0.070967
C3    C     C_R   0.956805 0.284140 0.585846 -0.219207
C4    C     C_R   0.049419 0.287978 0.591738 -0.221200
C5    C     C_R   0.095074 0.393842 0.548961 0.128658
C6    C     C_R   0.047719 0.498716 0.501827 0.081039
C7    C     C_R   0.094597 0.605034 0.456262 0.129673
C8    C     C_R   0.048393 0.709960 0.412347 -0.222947
C9    C     C_R   0.955622 0.710529 0.413641 -0.195906
C10   C     C_R   0.187803 0.396307 0.551270 -0.266931
C11   C     C_R   0.232578 0.500344 0.502453 -0.049219
C12   C     C_R   0.327458 0.500237 0.500677 0.884774
C13   C     C_R   0.187369 0.604262 0.454939 -0.268995
C14   C     C_2   0.495358 0.933054 0.389502 -0.157856
C15   C     C_2   0.514168 0.868146 0.498327 -0.287328
C16   C     C_2   0.502219 0.066604 0.392809 -0.223739
C17   C     C_2   0.476505 0.132891 0.499257 -0.132910
C18   C     C_2   0.536905 0.417489 0.928923 0.066258
C19   C     C_2   0.516966 0.405701 0.074554 -0.201435
C20   C     C_R   0.503098 0.736949 0.499699 0.932512
C21   C     C_R   0.672630 0.498792 0.499244 0.902394
C22   C     C_R   0.813971 0.604618 0.458936 -0.094921
C23   C     C_R   0.768488 0.495669 0.496982 -0.139730
C24   C     C_R   0.813595 0.384241 0.530342 0.079683
C25   C     C_R   0.907598 0.387387 0.538794 0.094009
C26   C     C_R   0.953970 0.497042 0.499483 0.000986
H1    H     H_    0.538272 0.912031 0.588132 0.160538
H2    H     H_    0.533155 0.110589 0.306759 0.167713
H3    H     H_    0.519604 0.314225 0.120439 0.162223
H4    H     H_    0.522507 0.585168 0.109584 0.180453
H5    H     H_    0.925149 0.199385 0.619745 0.150393
H6    H     H_    0.085456 0.207312 0.628388 0.151797
H7    H     H_    0.225395 0.316732 0.587650 0.141910
H8    H     H_    0.224603 0.684407 0.418681 0.139130
H9    H     H_    0.084014 0.791931 0.377700 0.148324
H10   H     H_    0.922219 0.794193 0.379686 0.156543
H11   H     H_    0.477550 0.888828 0.296637 0.175020
N1    N     N_2   0.500970 0.501330 0.852150 -0.125432
N2    N     N_2   0.500990 0.501360 0.147810 -0.199053
O1    O     O_R   0.499990 0.319060 0.613040 -0.615832
O2    O     O_R   0.500010 0.319100 0.386900 -0.630455
O3    O     O_R   0.367830 0.499950 0.613080 -0.636623
O4    O     O_R   0.367860 0.499990 0.386940 -0.602792
O5    O     O_R   0.499990 0.680900 0.613100 -0.633804
O6    O     O_R   0.500010 0.680940 0.386960 -0.616863
O7    O     O_R   0.632140 0.500010 0.613060 -0.614646
O8    O     O_R   0.632170 0.500050 0.386920 -0.605803
Zn1   Zn    Zn3+2 0.499980 0.499970 0.650990 0.939986
Zn2   Zn    Zn3+2 0.500020 0.500030 0.349010 0.941034
C27   C     C_1   0.763917 0.716056 0.422744 0.154027
N3    N     N_1   0.724240 0.804674 0.393838 -0.224390
C28   C     C_1   0.421197 0.083664 0.606641 0.174004
N4    N     N_1   0.377062 0.044893 0.692149 -0.227073
C29   C     C_1   0.596428 0.326165 0.872025 0.226771
N5    N     N_1   0.644233 0.251928 0.827551 -0.244591
C30   C     C_3   0.417167 0.563543 0.891145 -0.185142
C31   C     C_3   0.339482 0.470705 0.912487 -0.339027
C32   C     C_3   0.248602 0.536048 0.907476 -0.875920
H12   H     H_    0.244278 0.609185 0.985068 0.260172
H13   H     H_    0.238361 0.579309 0.808632 0.272976
H14   H     H_    0.194433 0.467046 0.925279 0.257644
H15   H     H_    0.341749 0.396681 0.835711 0.244147
H16   H     H_    0.345377 0.424725 0.010609 0.222034
H17   H     H_    0.423593 0.627015 0.976097 0.125935
H18   H     H_    0.399056 0.628151 0.809937 0.225173
C33   C     C_3   0.761684 0.262230 0.549867 -0.396854
C34   C     C_3   0.776134 0.170579 0.434462 -0.380950
C35   C     C_3   0.740540 0.221351 0.303443 -0.789496
H19   H     H_    0.668821 0.247094 0.313684 0.262644
H20   H     H_    0.779373 0.304507 0.271499 0.266180
H21   H     H_    0.747138 0.148834 0.225590 0.238714
H22   H     H_    0.848176 0.147261 0.421902 0.227149
H23   H     H_    0.740175 0.082577 0.458286 0.229761
H24   H     H_    0.780834 0.217579 0.644682 0.181293
H25   H     H_    0.688575 0.276826 0.560575 0.209836

loop_
_geom_bond_atom_site_label_1
_geom_bond_atom_site_label_2
_ccdc_geom_bond_type
C2    C22   A    
C9    H10   S    
C12   O3    A    
C11   C12   S    
C30   H17   S    
C24   C25   A    
C16   H2    S    
C6    C7    A    
C34   H23   S    
C24   C33   S    
C12   O4    A    
C29   N5    T    
N1    Zn1   S    
C20   O6    A    
C14   C15   D    
O6    Zn2   S    
C23   C24   A    
C32   H14   S    
C33   C34   S    
C18   N1    D    
C5    C10   A    
O8    Zn2   S    
O3    Zn1   S    
C21   O8    A    
C30   C31   S    
C14   H11   S    
C3    H5    S    
C11   C13   A    
C31   C32   S    
C4    H6    S    
C19   N2    D    
C35   H21   S    
C5    C6    A    
C33   H25   S    
C17   C28   S    
O2    Zn2   S    
C20   O5    A    
H4    N2    S    
C31   H16   S    
C10   H7    S    
O7    Zn1   S    
C21   C23   S    
C15   C20   S    
C14   C16   S    
N2    Zn2   S    
C32   H12   S    
C7    C8    A    
C10   C11   A    
C18   C29   S    
C32   H13   S    
C30   H18   S    
C19   H3    S    
O5    Zn1   S    
C22   C27   S    
C7    C13   A    
C34   H22   S    
N1    C30   S    
C28   N4    T    
C8    C9    A    
C2    C26   A    
C21   O7    A    
C1    O2    A    
O1    Zn1   S    
C35   H20   S    
C27   N3    T    
C6    C26   A    
C18   C19   S    
C13   H8    S    
C3    C25   A    
C1    O1    A    
C31   H15   S    
C25   C26   A    
C22   C23   A    
C2    C9    A    
C1    C17   S    
C35   H19   S    
O4    Zn2   S    
C3    C4    A    
C34   C35   S    
C16   C17   D    
C4    C5    A    
C15   H1    S    
C8    H9    S    
C33   H24   S    
