data_mof_unit_68448.cif
_audit_creation_date              2012-12-10T20:52:10-0500
_audit_creation_method            fapswitch 2.2
_symmetry_space_group_name_H-M    P1
_symmetry_Int_Tables_number       1
_space_group_crystal_system       triclinic
_cell_length_a                    10.814991
_cell_length_b                    8.903179
_cell_length_c                    8.308336
_cell_angle_alpha                 89.844907
_cell_angle_beta                  92.911548
_cell_angle_gamma                 91.122251
_cell_volume                      798.804295021

loop_
_atom_site_label
_atom_site_type_symbol
_atom_type_description
_atom_site_fract_x
_atom_site_fract_y
_atom_site_fract_z
_atom_type_partial_charge
C1    C     C_R   0.500105 0.218884 0.500133 0.909428
C2    C     C_R   0.499890 0.781116 0.499866 0.909414
C3    C     C_R   0.873437 0.503423 0.508869 -0.134029
C4    C     C_R   0.126564 0.496576 0.491130 -0.134019
C5    C     C_R   0.942124 0.403407 0.607178 0.055875
C6    C     C_R   0.057878 0.596594 0.392825 0.056032
C7    C     C_1   0.500085 0.065450 0.500225 -0.105338
C8    C     C_1   0.499903 0.934550 0.499773 -0.105383
C9    C     C_R   0.259839 0.498659 0.496429 0.853253
C10   C     C_R   0.740161 0.501340 0.503571 0.853257
C11   C     C_R   0.234885 0.763009 0.053623 -0.036492
C12   C     C_R   0.765121 0.237004 0.946380 -0.036507
C13   C     C_R   0.164579 0.765419 0.193007 -0.015005
C14   C     C_R   0.835438 0.234595 0.807010 -0.014970
C15   C     C_R   0.102157 0.630632 0.233983 0.044862
C16   C     C_R   0.897850 0.369383 0.766024 0.044878
C17   C     C_R   0.104579 0.503393 0.137028 -0.177830
C18   C     C_R   0.895416 0.496627 0.862969 -0.177805
C19   C     C_R   0.183293 0.496346 0.012453 0.012020
C20   C     C_R   0.816701 0.503671 0.987545 0.012019
C21   C     C_R   0.244819 0.629051 0.967111 -0.225755
C22   C     C_R   0.755178 0.370962 0.032888 -0.225776
C23   C     C_R   0.931978 0.603848 0.408757 -0.176990
C24   C     C_R   0.068023 0.396152 0.591244 -0.176997
H1    H     H_    0.303629 0.630774 0.867779 0.196954
H2    H     H_    0.696366 0.369236 0.132216 0.196960
H3    H     H_    0.056670 0.401641 0.174210 0.192329
H4    H     H_    0.943317 0.598382 0.825781 0.192349
H5    H     H_    0.878923 0.684313 0.339173 0.188595
H6    H     H_    0.121079 0.315689 0.660830 0.188646
N1    N     N_1   0.500020 0.500030 0.073640 -0.001735
N2    N     N_1   0.499980 0.499970 0.926360 -0.001734
O1    O     O_R   0.499990 0.285340 0.636850 -0.577060
O2    O     O_R   0.500010 0.714660 0.363150 -0.577086
O3    O     O_R   0.500010 0.285350 0.363100 -0.617855
O4    O     O_R   0.499990 0.714650 0.636900 -0.617837
O5    O     O_R   0.316750 0.500000 0.636870 -0.614808
O6    O     O_R   0.683250 0.500000 0.363130 -0.614809
O7    O     O_R   0.316770 0.500020 0.363120 -0.621474
O8    O     O_R   0.683230 0.499980 0.636880 -0.621462
Zn1   Zn    Zn3+2 0.499990 0.499990 0.682780 1.023070
Zn2   Zn    Zn3+2 0.500010 0.500010 0.317220 1.023052
C25   C     C_1   0.304167 0.892062 0.999414 0.268110
N3    N     N_1   0.360555 0.994465 0.955029 -0.115290
C26   C     C_1   0.695848 0.107942 0.000583 0.268035
N4    N     N_1   0.639466 0.005532 0.044961 -0.115318
C27   C     C_2   0.156498 0.903150 0.294565 0.884230
O9    O     O_2   0.073653 0.913540 0.388430 -0.585266
O10   O     O_R   0.242067 0.021960 0.282813 -0.800899
H7    H     H_    0.224949 0.108888 0.356604 0.347293
C28   C     C_2   0.843549 0.096857 0.705479 0.884305
O11   O     O_2   0.926500 0.086390 0.611788 -0.585247
O12   O     O_R   0.757885 0.978129 0.717066 -0.800949
H8    H     H_    0.775035 0.891180 0.643318 0.347288
C29   C     C_2   0.205866 0.345137 0.946740 0.884769
O13   O     O_2   0.301271 0.318696 0.881184 -0.595965
O14   O     O_R   0.118219 0.229304 0.965206 -0.814850
H9    H     H_    0.140205 0.132924 0.909883 0.355841
C30   C     C_2   0.794129 0.654877 0.053264 0.884740
O15   O     O_2   0.698726 0.681316 0.118826 -0.595969
O16   O     O_R   0.881777 0.770710 0.034801 -0.814878
H10   H     H_    0.859800 0.867084 0.090145 0.355780

loop_
_geom_bond_atom_site_label_1
_geom_bond_atom_site_label_2
_ccdc_geom_bond_type
N2    Zn1   S    
C11   C25   S    
N1    Zn2   S    
C3    C23   A    
C14   C28   S    
O2    Zn2   S    
C13   C15   A    
C9    O7    A    
C10   O6    A    
O1    Zn1   S    
C2    O2    A    
C29   O13   D    
C9    O5    A    
O4    Zn1   S    
C3    C5    A    
C1    O1    A    
C7    C8    T    
C27   O10   S    
C3    C10   S    
C26   N4    T    
C20   C30   S    
C6    C15   S    
C11   C13   A    
O14   H9    S    
C5    C24   A    
C6    C23   A    
C23   H5    S    
C16   C18   A    
O8    Zn1   S    
C19   C21   A    
C12   C14   A    
O6    Zn2   S    
O7    Zn2   S    
C18   C20   A    
C29   O14   S    
C25   N3    T    
O5    Zn1   S    
O16   H10   S    
C4    C24   A    
C14   C16   A    
C30   O16   S    
C24   H6    S    
C19   C29   S    
C28   O11   D    
C17   H3    S    
C12   C22   A    
C30   O15   D    
C18   H4    S    
C1    O3    A    
C4    C6    A    
O10   H7    S    
C22   H2    S    
C2    O4    A    
C15   C17   A    
O3    Zn2   S    
C21   H1    S    
C10   O8    A    
C17   C19   A    
C4    C9    S    
C1    C7    S    
C13   C27   S    
C11   C21   A    
N1    N2    T    
C2    C8    S    
C5    C16   S    
C27   O9    D    
O12   H8    S    
C20   C22   A    
C12   C26   S    
C28   O12   S    
