data_mof_unit_10002.cif
_audit_creation_date              2012-12-11T14:14:10-0500
_audit_creation_method            fapswitch 2.2
_symmetry_space_group_name_H-M    P1
_symmetry_Int_Tables_number       1
_space_group_crystal_system       triclinic
_cell_length_a                    17.057292
_cell_length_b                    7.245934
_cell_length_c                    17.001542
_cell_angle_alpha                 90.495042
_cell_angle_beta                  99.347029
_cell_angle_gamma                 89.422905
_cell_volume                      2073.26556284

loop_
_atom_site_label
_atom_site_type_symbol
_atom_type_description
_atom_site_fract_x
_atom_site_fract_y
_atom_site_fract_z
_atom_type_partial_charge
O1    O     O_R   0.414560 0.494370 0.416770 -0.547908
O2    O     O_R   0.585440 0.994370 0.583230 -0.540481
O3    O     O_R   0.578370 0.819590 0.429320 -0.548791
O4    O     O_R   0.421630 0.319590 0.570680 -0.545008
C1    C     C_R   0.604314 0.654113 0.413829 0.702684
C2    C     C_R   0.395084 0.156997 0.585601 0.795058
O5    O     O_R   0.414740 0.823790 0.407360 -0.525814
O6    O     O_R   0.585260 0.323790 0.592640 -0.524364
O7    O     O_R   0.420650 0.998510 0.561120 -0.519310
O8    O     O_R   0.579350 0.498510 0.438880 -0.541800
C3    C     C_R   0.389459 0.655115 0.384045 0.642062
C4    C     C_R   0.613984 0.155487 0.612551 0.659372
O9    O     O_3   0.502130 0.662240 0.550470 -0.364226
O10   O     O_3   0.497870 0.162240 0.449530 -0.386927
V1    V     V_3+5 0.499600 0.935390 0.490640 1.455659
V2    V     V_3+5 0.500400 0.435390 0.509360 1.449492
C5    C     C_2   0.789382 0.264407 0.781593 0.155596
C6    C     C_2   0.217999 0.764019 0.211398 0.177867
C7    C     C_2   0.810764 0.114620 0.828110 0.258961
C8    C     C_2   0.169396 0.617076 0.192181 0.242664
C9    C     C_2   0.710573 0.273476 0.727852 0.158437
C10   C     C_2   0.273330 0.772888 0.289328 0.167102
C11   C     C_2   0.689991 0.144218 0.670169 0.251302
C12   C     C_2   0.330472 0.642269 0.309144 0.248173
C13   C     C_R   0.330966 0.155294 0.635344 -0.143840
C14   C     C_R   0.667876 0.639912 0.363711 -0.198898
C15   C     C_R   0.166499 0.112817 0.862500 -0.292682
C16   C     C_R   0.833439 0.627496 0.136811 -0.279246
C17   C     C_R   0.297944 0.004893 0.839982 0.378476
C18   C     C_R   0.699120 0.728131 0.152494 0.427253
C19   C     C_R   0.240126 0.025840 0.890418 0.243134
C20   C     C_R   0.758045 0.699660 0.103828 0.204565
C21   C     C_R   0.151957 0.187370 0.784550 0.358880
C22   C     C_R   0.849090 0.577470 0.218435 0.357745
C23   C     C_R   0.212009 0.177428 0.734865 -0.085250
C24   C     C_R   0.788425 0.596322 0.266927 -0.110306
C25   C     C_R   0.285527 0.083937 0.762332 -0.127315
C26   C     C_R   0.713003 0.673250 0.233869 -0.096514
C27   C     C_R   0.344707 0.073645 0.711069 0.162828
C28   C     C_R   0.652856 0.693437 0.282994 0.181457
C29   C     C_R   0.258143 0.244585 0.608105 0.002154
C30   C     C_R   0.742521 0.565601 0.396361 0.038121
C31   C     C_R   0.198855 0.256923 0.657285 0.486636
C32   C     C_R   0.802553 0.542165 0.348504 0.481737
O11   O     O_R   0.920750 0.773600 0.061260 -0.530440
O12   O     O_R   0.079250 0.273600 0.938740 -0.526705
O13   O     O_R   0.085340 0.439850 0.092570 -0.551506
O14   O     O_R   0.914660 0.939850 0.907430 -0.548071
C33   C     C_R   0.110420 0.608701 0.116460 0.645840
C34   C     C_R   0.886130 0.108258 0.887128 0.642624
O15   O     O_R   0.921720 0.444130 0.070790 -0.536917
O16   O     O_R   0.078280 0.944130 0.929210 -0.520903
O17   O     O_R   0.914480 0.269530 0.916840 -0.524708
O18   O     O_R   0.085520 0.769530 0.083160 -0.517791
C35   C     C_R   0.896632 0.613683 0.086312 0.675911
C36   C     C_R   0.103259 0.111138 0.913339 0.701389
O19   O     O_3   0.997840 0.601520 0.949550 -0.364027
O20   O     O_3   0.002160 0.101520 0.050450 -0.377391
V3    V     V_3+5 0.000400 0.328340 0.009360 1.486067
V4    V     V_3+5 0.999600 0.828340 0.990640 1.511087
N1    N     N_3   0.841473 0.419514 0.783830 -0.661968
H1    H     H_    0.813380 0.534509 0.804699 0.233983
H2    H     H_    0.849928 0.446322 0.725488 0.254111
N2    N     N_3   0.216849 0.916421 0.157850 -0.673247
H3    H     H_    0.275109 0.938492 0.148550 0.250887
H4    H     H_    0.197788 0.034248 0.185454 0.235631
O21   O     O_3   0.079339 0.268509 0.754820 -0.582551
H5    H     H_    0.038385 0.236781 0.787260 0.295272
O22   O     O_3   0.923300 0.511601 0.252652 -0.585491
H6    H     H_    0.964002 0.541321 0.219587 0.278133
O23   O     O_3   0.757664 0.969889 0.824023 -0.629169
H7    H     H_    0.777202 0.878857 0.865906 0.296079
O24   O     O_3   0.172425 0.476297 0.247360 -0.631934
H8    H     H_    0.128830 0.388486 0.230006 0.295713
N3    N     N_3   0.657655 0.424252 0.737646 -0.667770
H9    H     H_    0.685197 0.547162 0.726288 0.248699
H10   H     H_    0.649071 0.426969 0.797143 0.242949
N4    N     N_3   0.266050 0.925577 0.342178 -0.687244
H11   H     H_    0.207356 0.930871 0.352664 0.242821
H12   H     H_    0.277119 0.047249 0.313464 0.246790
O25   O     O_3   0.744096 0.003999 0.662104 -0.629964
H13   H     H_    0.725069 0.931501 0.613194 0.285049
O26   O     O_3   0.335841 0.498285 0.256057 -0.631974
H14   H     H_    0.384088 0.423829 0.275245 0.289246
N5    N     N_3   0.420864 0.986540 0.734391 -0.638172
H15   H     H_    0.413485 0.845898 0.743837 0.282063
H16   H     H_    0.451579 0.052439 0.784923 0.280413
N6    N     N_3   0.575272 0.763007 0.250352 -0.561377
H17   H     H_    0.532683 0.665459 0.258793 0.212406
H18   H     H_    0.564489 0.885058 0.280154 0.238090
N7    N     N_3   0.242760 0.320372 0.529152 -0.667013
H19   H     H_    0.281950 0.428625 0.525452 0.250479
H20   H     H_    0.251941 0.217469 0.488016 0.247759
N8    N     N_3   0.758929 0.516726 0.479239 -0.674427
H21   H     H_    0.721718 0.408959 0.489518 0.243113
H22   H     H_    0.747567 0.631159 0.513699 0.233448
O27   O     O_3   0.367924 0.910086 0.866674 -0.646771
H23   H     H_    0.365492 0.845939 0.917321 0.349437
O28   O     O_3   0.626645 0.807412 0.121072 -0.600208
H24   H     H_    0.626814 0.852299 0.066335 0.346448
O29   O     O_3   0.127581 0.347652 0.631035 -0.584887
H25   H     H_    0.126991 0.402999 0.578011 0.341717
O30   O     O_3   0.875626 0.465901 0.380120 -0.584933
H26   H     H_    0.876545 0.425312 0.435618 0.340045
O31   O     O_3   0.257972 0.958849 0.967364 -0.637653
H27   H     H_    0.225334 0.023590 0.002204 0.306119
O32   O     O_3   0.739393 0.744066 0.023805 -0.646559
H28   H     H_    0.775165 0.677705 0.992680 0.283220

loop_
_geom_bond_atom_site_label_1
_geom_bond_atom_site_label_2
_ccdc_geom_bond_type
C18   C20   A    
O11   V4    S    
O29   H25   S    
O12   V3    S    
C19   O31   S    
O24   H8    S    
C7    O23   S    
O1    C3    A    
O2    C4    A    
C2    O7    A    
O27   H23   S    
O17   V3    S    
O13   C33   A    
O18   V4    S    
N5    H15   S    
C15   C21   A    
O5    C3    A    
C4    C11   S    
C14   C30   A    
C23   C25   A    
C12   O26   S    
O22   H6    S    
C21   C23   A    
N4    H12   S    
C2    C13   S    
C33   O18   A    
C3    C12   S    
C18   C26   A    
N1    H2    S    
O16   V4    S    
C5    N1    S    
C16   C35   S    
O26   H14   S    
C20   O32   S    
O32   H28   S    
C23   C31   A    
O15   C35   A    
O14   C34   A    
C16   C22   A    
O6    V2    S    
C6    C10   S    
C29   C31   A    
N1    H1    S    
C30   C32   A    
C32   O30   S    
O14   V4    S    
N5    H16   S    
C34   O17   A    
C15   C19   A    
O21   H5    S    
C6    N2    S    
C16   C20   A    
C10   N4    S    
O4    C2    A    
C13   C29   A    
N7    H19   S    
C15   C36   S    
O19   V4    S    
O20   V3    S    
C18   O28   S    
O25   H13   S    
N2    H4    S    
O4    V2    S    
N3    H9    S    
C31   O29   S    
C8    C33   S    
N7    H20   S    
O28   H24   S    
O6    C4    A    
O1    V2    S    
N8    H22   S    
O2    V1    S    
N3    H10   S    
C22   O22   S    
C29   N7    S    
N6    H18   S    
C9    C11   D    
C10   C12   D    
C24   C32   A    
O15   V3    S    
C27   N5    S    
C17   C25   A    
O3    V1    S    
C21   O21   S    
C11   O25   S    
C30   N8    S    
O3    C1    A    
O31   H27   S    
C9    N3    S    
C17   O27   S    
N2    H3    S    
C28   N6    S    
C24   C26   A    
O7    V1    S    
C1    O8    A    
C17   C19   A    
O8    V2    S    
C13   C27   A    
C26   C28   A    
N4    H11   S    
C7    C34   S    
C14   C28   A    
O5    V1    S    
C5    C7    D    
C22   C24   A    
C8    O24   S    
C6    C8    D    
N8    H21   S    
C5    C9    S    
O13   V3    S    
C1    C14   S    
O23   H7    S    
N6    H17   S    
O11   C35   A    
C25   C27   A    
O9    V2    S    
O12   C36   A    
O30   H26   S    
O10   V1    S    
O16   C36   A    
