data_mof_unit_7806.cif
_audit_creation_date              2012-12-11T14:46:03-0500
_audit_creation_method            fapswitch 2.2
_symmetry_space_group_name_H-M    P1
_symmetry_Int_Tables_number       1
_space_group_crystal_system       triclinic
_cell_length_a                    10.869564
_cell_length_b                    11.010019
_cell_length_c                    18.75022
_cell_angle_alpha                 90.1286
_cell_angle_beta                  89.98207
_cell_angle_gamma                 119.78363
_cell_volume                      1947.50542646

loop_
_atom_site_label
_atom_site_type_symbol
_atom_type_description
_atom_site_fract_x
_atom_site_fract_y
_atom_site_fract_z
_atom_type_partial_charge
C1    C     C_R   0.863646 0.639620 0.602854 0.561235
C2    C     C_R   0.463532 0.711318 0.774992 -0.099667
C3    C     C_R   0.435500 0.690867 0.702809 -0.111912
C4    C     C_R   0.301298 0.656320 0.678784 0.062480
C5    C     C_R   0.796930 0.092163 0.810604 -0.023052
C6    C     C_R   0.060604 0.203417 0.819530 -0.095256
C7    C     C_R   0.189378 0.235666 0.787802 -0.125404
C8    C     C_R   0.194446 0.211559 0.715460 -0.125739
C9    C     C_R   0.073703 0.166781 0.673755 -0.085024
C10   C     C_R   0.944727 0.143287 0.704266 0.013077
C11   C     C_R   0.933219 0.144181 0.779183 -0.002956
C12   C     C_R   0.266973 0.629877 0.604503 0.552349
C13   C     C_R   0.692922 0.063042 0.690934 -0.029709
C14   C     C_R   0.676381 0.058593 0.765602 -0.016221
C15   C     C_R   0.573298 0.015390 0.645678 -0.068422
C16   C     C_R   0.442130 0.989962 0.672133 0.136093
C17   C     C_R   0.427170 0.995274 0.745561 -0.136959
C18   C     C_R   0.539784 0.025608 0.791376 -0.134233
C19   C     C_R   0.829680 0.125226 0.661701 -0.037514
C20   C     C_R   0.697534 0.567387 0.707118 0.252118
C21   C     C_R   0.681672 0.586444 0.779701 -0.127927
C22   C     C_R   0.783596 0.707297 0.814681 -0.032986
C23   C     C_R   0.858315 0.216630 0.598757 0.537504
C24   C     C_R   0.893437 0.814266 0.775926 -0.164018
C25   C     C_R   0.908778 0.796531 0.704582 -0.185147
C26   C     C_R   0.816703 0.669686 0.670499 0.033835
C27   C     C_R   0.255314 0.542113 0.277413 -0.136714
C28   C     C_R   0.274241 0.559062 0.205284 -0.152166
C29   C     C_R   0.350843 0.693427 0.177012 0.017790
C30   C     C_R   0.403825 0.811722 0.221635 -0.151847
C31   C     C_R   0.380317 0.794448 0.294687 -0.152694
C32   C     C_R   0.309197 0.659115 0.322504 0.031193
C33   C     C_R   0.814296 0.303837 0.266477 -0.129992
C34   C     C_R   0.868267 0.637237 0.396378 0.538830
C35   C     C_R   0.800458 0.267273 0.194343 0.258108
C36   C     C_R   0.857902 0.184531 0.169374 0.026123
C37   C     C_R   0.934015 0.146530 0.215769 -0.200850
C38   C     C_R   0.944620 0.181469 0.287449 -0.161162
C39   C     C_R   0.880722 0.256443 0.313312 -0.018555
C40   C     C_R   0.958925 0.682230 0.275170 -0.121870
C41   C     C_R   0.940498 0.683299 0.202009 0.136399
C42   C     C_R   0.807910 0.653964 0.176329 0.079846
C43   C     C_R   0.691480 0.609859 0.222615 -0.169912
C44   C     C_R   0.709424 0.603910 0.295401 -0.171262
C45   C     C_R   0.270170 0.632688 0.396378 0.531466
C46   C     C_R   0.844392 0.645814 0.321659 0.002994
C47   C     C_R   0.773234 0.050953 0.886899 0.528905
C48   C     C_R   0.392452 0.700024 0.897658 0.522542
C49   C     C_R   0.773650 0.730021 0.890257 0.548175
C50   C     C_R   0.810637 0.111366 0.101211 0.577990
C51   C     C_R   0.399790 0.706679 0.104636 0.536726
C52   C     C_R   0.795643 0.695779 0.105173 0.574806
C53   C     C_R   0.887478 0.291878 0.388451 0.559532
C54   C     C_R   0.193830 0.638120 0.726795 -0.102432
C55   C     C_R   0.221008 0.653036 0.799725 -0.151808
C56   C     C_R   0.356366 0.689198 0.823361 0.039737
Cr1   Cr    Cr6+3 0.791660 0.390250 0.499930 1.013089
Cr2   Cr    Cr6+3 0.098520 0.708290 0.500540 0.987136
Cr3   Cr    Cr6+3 0.109770 0.401430 0.499480 1.007718
Cr4   Cr    Cr6+3 0.874790 0.925890 0.000070 1.007983
Cr5   Cr    Cr6+3 0.574120 0.948670 0.999300 1.001942
Cr6   Cr    Cr6+3 0.551420 0.625320 0.000920 0.999265
H1    H     H_    0.088583 0.609131 0.707767 0.122568
H2    H     H_    0.585332 0.005005 0.589143 0.126364
H3    H     H_    0.326905 0.975573 0.767844 0.110101
H4    H     H_    0.589803 0.508165 0.808210 0.139552
H5    H     H_    0.970530 0.910776 0.801277 0.158427
H6    H     H_    0.998966 0.879701 0.677454 0.139733
H7    H     H_    0.196234 0.436523 0.297795 0.142860
H8    H     H_    0.233243 0.466646 0.171769 0.130506
H9    H     H_    0.466637 0.916228 0.200424 0.130291
H10   H     H_    0.137894 0.635879 0.837075 0.116131
H11   H     H_    0.419274 0.885137 0.329253 0.121616
H12   H     H_    0.772745 0.368514 0.286345 0.128199
H13   H     H_    0.976892 0.081494 0.197782 0.147194
H14   H     H_    0.999008 0.146081 0.322884 0.147662
H15   H     H_    0.061996 0.707235 0.295825 0.135620
H16   H     H_    0.588469 0.587143 0.202928 0.144934
H17   H     H_    0.620105 0.571392 0.331092 0.131211
H18   H     H_    0.569856 0.748200 0.793640 0.101520
H19   H     H_    0.518598 0.705983 0.665872 0.125303
H20   H     H_    0.285136 0.278358 0.819574 0.118483
H21   H     H_    0.292719 0.231413 0.691032 0.137583
H22   H     H_    0.064618 0.231227 0.874992 0.152888
H23   H     H_    0.081500 0.148563 0.617636 0.128371
H24   H     H_    0.513544 0.026361 0.846170 0.180019
O1    O     O_R   0.766500 0.250040 0.579790 -0.528882
O2    O     O_R   0.218690 0.701900 0.425960 -0.516373
O3    O     O_R   0.249490 0.516440 0.419420 -0.530002
O4    O     O_R   0.982880 0.281910 0.424890 -0.511244
O5    O     O_3   0.999980 0.499990 0.499980 -0.269678
O6    O     O_R   0.895110 0.806860 0.920430 -0.517094
O7    O     O_R   0.872260 0.046970 0.925000 -0.524700
O8    O     O_R   0.691430 0.085060 0.918550 -0.523338
O9    O     O_R   0.451490 0.822460 0.925250 -0.530606
O10   O     O_R   0.413330 0.603360 0.920440 -0.522738
O11   O     O_R   0.676110 0.626250 0.926750 -0.499607
O12   O     O_R   0.798570 0.516780 0.574780 -0.453987
O13   O     O_R   0.895350 0.809870 0.080950 -0.486962
O14   O     O_R   0.872490 0.049760 0.073800 -0.513185
O15   O     O_R   0.691680 0.088070 0.079070 -0.476601
O16   O     O_R   0.451720 0.825250 0.074050 -0.507817
O17   O     O_R   0.413580 0.606370 0.080960 -0.527292
O18   O     O_R   0.676340 0.629040 0.075550 -0.508665
O19   O     O_3   0.666780 0.833290 0.000090 -0.281530
O20   O     O_R   0.984000 0.732950 0.581090 -0.537128
O21   O     O_R   0.218600 0.700890 0.574760 -0.476959
O22   O     O_R   0.249390 0.515350 0.579940 -0.502708
O23   O     O_R   0.982790 0.280900 0.573700 -0.498978
O24   O     O_R   0.766600 0.251130 0.419260 -0.521120
O25   O     O_R   0.798660 0.517790 0.425980 -0.518988
O26   O     O_R   0.984100 0.734040 0.420570 -0.521800
N1    N     N_2   0.326211 0.964983 0.626592 -0.493538
H25   H     H_    0.244597 0.971266 0.651050 0.237832
C57   C     C_3   0.354169 0.017621 0.554109 -0.255953
H26   H     H_    0.428249 0.132167 0.553499 0.122004
H27   H     H_    0.253304 0.996582 0.528485 0.139659
H28   H     H_    0.397885 0.963098 0.521981 0.156298
O27   O     O_3   0.594484 0.453309 0.670786 -0.568896
C58   C     C_3   0.589355 0.331734 0.697261 -0.095454
H29   H     H_    0.696545 0.343054 0.703854 0.143966
H30   H     H_    0.532360 0.249600 0.657327 0.167777
H31   H     H_    0.529141 0.298315 0.748080 0.097525
O28   O     O_3   0.739351 0.318369 0.146773 -0.565720
C59   C     C_3   0.595970 0.268363 0.164817 -0.093091
H32   H     H_    0.585753 0.318707 0.214044 0.106648
H33   H     H_    0.536594 0.152614 0.170643 0.118631
H34   H     H_    0.545384 0.295456 0.121007 0.145169
N2    N     N_2   0.056432 0.721788 0.154637 -0.508908
H35   H     H_    0.154716 0.775758 0.178078 0.250638
C60   C     C_3   0.041079 0.612886 0.105774 -0.248771
H36   H     H_    0.131689 0.655832 0.068175 0.139266
H37   H     H_    0.943054 0.572746 0.073475 0.187142
H38   H     H_    0.037531 0.524457 0.135697 0.155043

loop_
_geom_bond_atom_site_label_1
_geom_bond_atom_site_label_2
_ccdc_geom_bond_type
C53   O24   A    
C55   C56   A    
C48   O9    A    
Cr6   O10   S    
C21   H4    S    
C8    H21   S    
C34   O26   A    
C41   C42   A    
C14   C18   A    
Cr5   O15   S    
C35   C36   A    
C60   H38   S    
C16   N1    S    
C30   H9    S    
C7    C8    A    
Cr6   O19   S    
C38   H14   S    
C51   O16   A    
C40   C46   A    
C5    C47   S    
C33   C39   A    
Cr2   O26   S    
C35   O28   S    
C29   C51   S    
C5    C11   A    
Cr3   O3    S    
C38   C39   A    
C31   H11   S    
C54   H1    S    
C51   O17   A    
C57   H26   S    
C48   O10   A    
Cr2   O21   S    
C32   C45   S    
C39   C53   S    
C24   H5    S    
C9    H23   S    
C52   O18   A    
C31   C32   A    
C58   H30   S    
C8    C9    A    
C57   H27   S    
C3    H19   S    
C59   H34   S    
C15   H2    S    
C34   C46   S    
C4    C12   S    
C29   C30   A    
Cr5   O19   S    
C9    C10   A    
C55   H10   S    
C27   H7    S    
C58   H31   S    
C1    O20   A    
Cr4   O7    S    
Cr4   O13   S    
C59   H32   S    
C37   H13   S    
C18   H24   S    
C23   O1    A    
C21   C22   A    
C34   O25   A    
C25   H6    S    
Cr3   O23   S    
C44   C46   A    
Cr6   O18   S    
Cr4   O6    S    
C23   O23   A    
C6    H22   S    
C15   C16   A    
C13   C19   A    
C45   O2    A    
C24   C25   A    
C6    C11   A    
C12   O22   A    
Cr5   O8    S    
C16   C17   A    
Cr4   O14   S    
C25   C26   A    
Cr1   O1    S    
N1    C57   S    
C43   H16   S    
Cr3   O4    S    
C19   C23   S    
C43   C44   A    
C37   C38   A    
Cr6   O11   S    
Cr1   O24   S    
C10   C19   A    
C57   H28   S    
C17   C18   A    
C47   O7    A    
Cr3   O5    S    
C5    C14   A    
C22   C49   S    
C40   C41   A    
C13   C15   A    
C1    C26   S    
C22   C24   A    
C42   C43   A    
C49   O6    A    
C3    C4    A    
C53   O4    A    
C36   C50   S    
C58   H29   S    
N1    H25   S    
Cr2   O5    S    
C48   C56   S    
C54   C55   A    
C28   C29   A    
C45   O3    A    
Cr1   O5    S    
C4    C54   A    
C27   C32   A    
C50   O14   A    
C44   H17   S    
C28   H8    S    
C60   H37   S    
Cr2   O2    S    
C1    O12   A    
Cr6   O17   S    
C12   O21   A    
O27   C58   S    
Cr5   O9    S    
C6    C7    A    
C52   O13   A    
C17   H3    S    
Cr3   O22   S    
Cr5   O16   S    
N2    H35   S    
C2    C56   A    
C41   N2    S    
C30   C31   A    
Cr1   O25   S    
C20   C26   A    
Cr1   O12   S    
C33   C35   A    
C47   O8    A    
C2    C3    A    
C2    H18   S    
C10   C11   A    
C49   O11   A    
C33   H12   S    
C7    H20   S    
C20   C21   A    
C50   O15   A    
C36   C37   A    
C27   C28   A    
C59   H33   S    
C40   H15   S    
Cr2   O20   S    
C13   C14   A    
C20   O27   S    
Cr4   O19   S    
C60   H36   S    
C42   C52   S    
O28   C59   S    
N2    C60   S    
