data_mof_unit_21971.cif
_audit_creation_date              2012-12-10T20:30:08-0500
_audit_creation_method            fapswitch 2.2
_symmetry_space_group_name_H-M    P1
_symmetry_Int_Tables_number       1
_space_group_crystal_system       triclinic
_cell_length_a                    9.878911
_cell_length_b                    10.737758
_cell_length_c                    12.919329
_cell_angle_alpha                 90.220547
_cell_angle_beta                  71.590453
_cell_angle_gamma                 89.29416
_cell_volume                      1300.17144522

loop_
_atom_site_label
_atom_site_type_symbol
_atom_type_description
_atom_site_fract_x
_atom_site_fract_y
_atom_site_fract_z
_atom_type_partial_charge
C1    C     C_R   0.500889 0.740100 0.496856 0.918050
C2    C     C_R   0.457559 0.378119 0.970162 0.040075
C3    C     C_R   0.496764 0.387178 0.856289 0.101482
C4    C     C_R   0.561678 0.404728 0.020599 0.101840
C5    C     C_R   0.706598 0.415495 0.956084 0.179801
C6    C     C_R   0.747154 0.384660 0.845595 -0.170745
C7    C     C_R   0.642558 0.369339 0.795828 -0.119444
C8    C     C_R   0.523130 0.434202 0.131167 -0.230927
C9    C     C_R   0.766549 0.489358 0.113171 -0.142071
C10   C     C_R   0.388500 0.415659 0.808839 -0.162516
C11   C     C_R   0.389784 0.938296 0.473750 0.037490
C12   C     C_R   0.425182 0.474578 0.700279 0.929314
C13   C     C_R   0.508162 0.871591 0.480612 -0.085722
C14   C     C_R   0.636498 0.933965 0.468336 -0.170787
C15   C     C_R   0.636786 0.062932 0.469248 -0.162776
C16   C     C_R   0.508672 0.128574 0.482773 -0.106796
C17   C     C_R   0.389317 0.065507 0.476075 0.073274
C18   C     C_3   0.235300 0.072703 0.544473 0.493035
C19   C     C_3   0.236691 0.931774 0.541044 -0.516511
C20   C     C_R   0.890741 0.539138 0.590143 0.159163
C21   C     C_R   0.964411 0.454610 0.413502 -0.096735
C22   C     C_R   0.108252 0.455708 0.413087 -0.034580
C23   C     C_R   0.501842 0.260064 0.497280 0.893381
C24   C     C_R   0.033075 0.535017 0.591460 0.161137
C25   C     C_3   0.018708 0.658864 0.645297 -0.536119
C26   C     C_3   0.869671 0.668447 0.636563 0.097399
C27   C     C_R   0.578030 0.497634 0.295248 0.874038
C28   C     C_R   0.807350 0.459764 0.002325 -0.089752
C29   C     C_R   0.624234 0.475778 0.177800 -0.066333
C30   C     C_R   0.246796 0.385752 0.867339 -0.200082
C31   C     C_R   0.214527 0.339867 0.973608 0.336911
C32   C     C_R   0.316086 0.345667 0.027670 -0.228442
H1    H     H_    0.734181 0.110125 0.466417 0.201705
H2    H     H_    0.222560 0.888172 0.621641 0.221521
H3    H     H_    0.939888 0.419048 0.343121 0.169451
H4    H     H_    0.092857 0.725354 0.593329 0.199528
H5    H     H_    0.858656 0.381043 0.796448 0.165789
H6    H     H_    0.859900 0.738800 0.576254 0.144742
H7    H     H_    0.163606 0.393189 0.829541 0.186243
N1    N     N_R   0.856940 0.500860 0.500710 -0.134236
N2    N     N_R   0.142580 0.500820 0.500710 -0.096916
O1    O     O_R   0.385310 0.683210 0.499990 -0.614414
O2    O     O_R   0.614650 0.683240 0.500000 -0.615486
O3    O     O_R   0.328390 0.499940 0.653610 -0.602753
O4    O     O_R   0.557730 0.499980 0.653620 -0.595843
O5    O     O_R   0.385350 0.316760 0.500000 -0.578554
O6    O     O_R   0.614690 0.316790 0.500010 -0.635070
O7    O     O_R   0.442270 0.500020 0.346380 -0.626405
O8    O     O_R   0.671610 0.500060 0.346390 -0.620035
Zn1   Zn    Zn3+2 0.346870 0.499980 0.499990 0.983096
Zn2   Zn    Zn3+2 0.653130 0.500020 0.500010 0.968311
H8    H     H_    0.845863 0.522210 0.148228 0.164920
Br1   Br    Br    0.198815 0.139373 0.691286 -0.472708
Br2   Br    Br    0.113452 0.146003 0.468442 -0.518058
H9    H     H_    0.171233 0.893068 0.493005 0.211220
H10   H     H_    0.191561 0.420865 0.342332 0.150027
H11   H     H_    0.023010 0.651843 0.730032 0.232357
Br3   Br    Br    0.722874 0.685340 0.777055 -0.478298
H12   H     H_    0.917098 0.472716 0.952448 0.148166
H13   H     H_    0.412992 0.429511 0.181333 0.151541
H14   H     H_    0.285126 0.317434 0.112056 0.165406
Br4   Br    Br    0.036621 0.263039 0.045073 -0.508933
H15   H     H_    0.677417 0.345596 0.710007 0.183351
H16   H     H_    0.733782 0.884250 0.465244 0.174286

loop_
_geom_bond_atom_site_label_1
_geom_bond_atom_site_label_2
_ccdc_geom_bond_type
C27   O7    A    
C30   H7    S    
C2    C4    A    
O8    Zn2   S    
C6    C7    A    
C21   H3    S    
C27   C29   S    
C5    C28   A    
C11   C13   A    
C10   C30   A    
C31   C32   A    
C9    C29   A    
C4    C8    A    
C14   H16   S    
O5    Zn1   S    
O7    Zn1   S    
C2    C3    A    
C6    H5    S    
C12   O3    A    
C3    C10   A    
C21   C22   A    
C8    H13   S    
C24   N2    A    
C26   Br3   S    
C31   Br4   S    
O2    Zn2   S    
C25   H11   S    
C30   C31   A    
C9    H8    S    
C10   C12   S    
O1    Zn1   S    
C8    C29   A    
C15   H1    S    
C32   H14   S    
C17   C18   S    
C16   C23   S    
C3    C7    A    
C21   N1    A    
C11   C19   S    
C5    C6    A    
C20   N1    A    
C22   N2    A    
C1    C13   S    
O4    Zn2   S    
C25   H4    S    
C19   H9    S    
C15   C16   A    
N1    Zn2   S    
C20   C24   A    
C1    O1    A    
C23   O6    A    
C24   C25   S    
C9    C28   A    
C2    C32   A    
C18   C19   S    
C7    H15   S    
C28   H12   S    
O3    Zn1   S    
C23   O5    A    
N2    Zn1   S    
C18   Br2   S    
C14   C15   A    
C26   H6    S    
C22   H10   S    
C18   Br1   S    
C12   O4    A    
C25   C26   S    
C13   C14   A    
C1    O2    A    
O6    Zn2   S    
C27   O8    A    
C16   C17   A    
C4    C5    A    
C20   C26   S    
C19   H2    S    
C11   C17   A    
