data_mof_unit_32791.cif
_audit_creation_date              2012-12-11T14:36:14-0500
_audit_creation_method            fapswitch 2.2
_symmetry_space_group_name_H-M    P1
_symmetry_Int_Tables_number       1
_space_group_crystal_system       triclinic
_cell_length_a                    13.676963
_cell_length_b                    13.662843
_cell_length_c                    27.341664
_cell_angle_alpha                 90.256625
_cell_angle_beta                  89.918147
_cell_angle_gamma                 60.091412
_cell_volume                      4428.71156454

loop_
_atom_site_label
_atom_site_type_symbol
_atom_type_description
_atom_site_fract_x
_atom_site_fract_y
_atom_site_fract_z
_atom_type_partial_charge
C1    C     C_R   0.621468 0.100763 0.569756 0.556458
C2    C     C_1   0.631787 0.720346 0.614417 0.055278
C3    C     C_3   0.663853 0.575283 0.775143 0.238742
C4    C     C_3   0.682164 0.659766 0.805797 0.029901
C5    C     C_3   0.570949 0.673666 0.746437 0.121758
C6    C     C_3   0.659640 0.664201 0.708963 0.010154
C7    C     C_3   0.589026 0.756883 0.777295 0.095507
C8    C     C_3   0.677824 0.748988 0.740019 0.173594
C9    C     C_1   0.690226 0.644254 0.859229 0.071888
C10   C     C_1   0.647306 0.685603 0.655904 0.029605
C11   C     C_3   0.058847 0.201836 0.735607 0.101533
C12   C     C_R   0.599620 0.777895 0.568192 0.560375
C13   C     C_3   0.125115 0.096411 0.767894 -0.106155
C14   C     C_1   0.094835 0.200580 0.901761 0.091031
C15   C     C_1   0.222762 0.147756 0.616016 0.061608
C16   C     C_3   0.071143 0.277874 0.774127 0.217666
C17   C     C_3   0.140054 0.172542 0.806064 0.004035
C18   C     C_3   0.180779 0.255633 0.749443 0.114734
C19   C     C_3   0.166989 0.181307 0.710610 0.059550
C20   C     C_3   0.250523 0.152307 0.782092 0.179532
C21   C     C_3   0.235670 0.076467 0.743257 0.146556
C22   C     C_1   0.120417 0.180258 0.859203 0.096094
C23   C     C_R   0.276805 0.123055 0.569072 0.556094
C24   C     C_1   0.190323 0.168923 0.657787 0.073159
C25   C     C_3   0.658161 0.256781 0.739256 0.104428
C26   C     C_3   0.567409 0.257335 0.772222 0.113968
C27   C     C_1   0.684625 0.206994 0.904759 0.079021
C28   C     C_1   0.644603 0.130172 0.617239 0.059600
C29   C     C_3   0.750822 0.181634 0.776292 0.178981
C30   C     C_3   0.658293 0.182455 0.809493 0.057887
C31   C     C_3   0.766040 0.074385 0.749715 0.170087
C32   C     C_3   0.672808 0.151246 0.712756 -0.015923
C33   C     C_3   0.674182 0.076317 0.783082 0.111089
C34   C     C_R   0.623895 0.102988 0.433155 0.564534
C35   C     C_3   0.580697 0.151045 0.746121 0.173603
C36   C     C_1   0.664311 0.195733 0.862782 0.103800
C37   C     C_1   0.663161 0.141918 0.659428 0.047219
C38   C     C_R   0.733606 0.719336 0.359288 0.099697
C39   C     C_R   0.732207 0.717536 0.307939 0.091381
C40   C     C_R   0.730670 0.708460 0.204296 0.068289
C41   C     C_R   0.785225 0.759435 0.228310 0.154270
C42   C     C_R   0.788508 0.761373 0.279778 0.162765
C43   C     C_R   0.741781 0.684711 0.152961 0.201870
C44   C     C_R   0.677559 0.641123 0.132036 -0.017692
C45   C     C_R   0.603922 0.774303 0.431185 0.557435
C46   C     C_R   0.596054 0.656416 0.363740 0.098679
C47   C     C_R   0.603269 0.640551 0.312323 0.065295
C48   C     C_R   0.665594 0.679332 0.284411 -0.055151
C49   C     C_R   0.544214 0.594998 0.287572 0.160552
C50   C     C_R   0.530807 0.606685 0.236810 0.119659
C51   C     C_R   0.592291 0.644947 0.209818 0.017265
C52   C     C_R   0.663632 0.676930 0.232932 -0.041783
C53   C     C_R   0.591277 0.640833 0.159426 -0.138120
C54   C     C_R   0.650116 0.709113 0.385583 0.011700
C55   C     C_R   0.210549 0.056454 0.359791 0.084187
C56   C     C_R   0.276334 0.121553 0.431389 0.552953
C57   C     C_R   0.199781 0.060895 0.308020 0.010878
C58   C     C_R   0.170677 0.080316 0.204606 0.037970
C59   C     C_R   0.207853 0.975302 0.227567 0.117413
C60   C     C_R   0.223427 0.964876 0.278539 0.151029
C61   C     C_R   0.140721 0.098703 0.154139 0.073668
C62   C     C_R   0.118067 0.201119 0.132502 0.033395
C63   C     C_R   0.162734 0.253188 0.363475 0.083364
C64   C     C_R   0.139645 0.264813 0.312724 0.017826
C65   C     C_R   0.166446 0.165998 0.284666 -0.059902
C66   C     C_R   0.096684 0.370587 0.288406 0.188864
C67   C     C_3   0.754054 0.564875 0.737361 -0.106779
C68   C     C_R   0.099457 0.373819 0.237238 0.167251
C69   C     C_R   0.135737 0.274364 0.209724 -0.027577
C70   C     C_R   0.157275 0.173447 0.233166 -0.062264
C71   C     C_R   0.140530 0.275141 0.158622 0.170272
C72   C     C_R   0.210970 0.145744 0.385183 0.032554
C73   C     C_R   0.559347 0.244707 0.366377 0.093435
C74   C     C_R   0.560047 0.248129 0.314933 0.035464
C75   C     C_R   0.567774 0.260414 0.211328 0.028837
C76   C     C_R   0.463186 0.315706 0.236599 0.077564
C77   C     C_R   0.459660 0.310209 0.288057 0.077625
C78   C     C_3   0.772329 0.650173 0.768724 -0.104749
C79   C     C_R   0.579906 0.276284 0.160357 0.152269
C80   C     C_R   0.684551 0.205387 0.137007 0.019598
C81   C     C_R   0.754635 0.094462 0.367218 0.075871
C82   C     C_R   0.763600 0.111892 0.316667 0.054409
C83   C     C_R   0.663115 0.182601 0.290002 -0.049727
C84   C     C_R   0.867123 0.055769 0.290973 0.082646
C85   C     C_R   0.867956 0.058196 0.240269 -0.127307
C86   C     C_R   0.767899 0.117718 0.213914 -0.007943
C87   C     C_R   0.666146 0.187935 0.238469 -0.035337
C88   C     C_R   0.768841 0.111995 0.163040 0.067673
C89   C     C_1   0.697006 0.615662 0.901409 0.070366
C90   C     C_R   0.648607 0.151699 0.389925 0.020584
C91   C     C_R   0.048454 0.236582 0.949865 0.556658
C92   C     C_R   0.711474 0.564238 0.948641 0.555799
C93   C     C_R   0.721206 0.225415 0.951514 0.559517
C94   C     C_R   0.050930 0.243142 0.087386 0.572973
C95   C     C_R   0.706435 0.576432 0.085789 0.558420
C96   C     C_R   0.718919 0.232578 0.089465 0.569943
Cr1   Cr    Cr6+3 0.417550 0.169090 0.500530 1.054444
Cr2   Cr    Cr6+3 0.669180 0.913420 0.499920 1.060705
Cr3   Cr    Cr6+3 0.413260 0.917540 0.499520 1.080389
Cr4   Cr    Cr6+3 0.909170 0.177380 0.020380 1.095965
Cr5   Cr    Cr6+3 0.912710 0.429210 0.018220 1.152283
Cr6   Cr    Cr6+3 0.657170 0.432570 0.019030 1.116164
H1    H     H_    0.852969 0.646773 0.777877 0.201529
H2    H     H_    0.820191 0.486464 0.719746 0.169588
H3    H     H_    0.533191 0.619581 0.142091 0.216365
H4    H     H_    0.948965 0.015194 0.221834 0.130495
H5    H     H_    0.104073 0.029496 0.775987 0.202960
O1    O     O_R   0.301710 0.195650 0.554160 -0.504987
O2    O     O_R   0.658900 0.818120 0.449760 -0.534721
O3    O     O_R   0.503220 0.801620 0.445520 -0.479227
O4    O     O_R   0.319370 0.022040 0.450020 -0.474225
O5    O     O_3   0.499990 0.000010 0.499990 -0.269781
O6    O     O_R   0.818720 0.150820 0.967160 -0.488716
O7    O     O_R   0.006410 0.181720 0.970200 -0.495107
O8    O     O_R   0.027890 0.334070 0.964920 -0.475099
O9    O     O_R   0.809600 0.521790 0.967960 -0.483464
O10   O     O_R   0.635520 0.542770 0.964420 -0.484655
O11   O     O_R   0.665950 0.325030 0.970100 -0.478327
O12   O     O_R   0.522390 0.158990 0.550460 -0.495465
O13   O     O_R   0.816620 0.158530 0.074540 -0.475546
O14   O     O_R   0.004460 0.188870 0.069750 -0.472810
O15   O     O_R   0.025800 0.341780 0.072300 -0.449509
O16   O     O_R   0.807650 0.528950 0.067500 -0.446593
O17   O     O_R   0.633420 0.550490 0.071810 -0.517645
O18   O     O_R   0.664000 0.332180 0.069640 -0.460370
O19   O     O_3   0.826350 0.346390 0.019210 -0.300534
O20   O     O_R   0.694390 0.003530 0.554040 -0.478931
O21   O     O_R   0.657700 0.819660 0.549320 -0.477348
O22   O     O_R   0.501930 0.803280 0.552920 -0.494376
O23   O     O_R   0.318170 0.023580 0.549580 -0.475484
O24   O     O_R   0.303010 0.193990 0.446760 -0.522946
O25   O     O_R   0.523600 0.157450 0.450900 -0.487541
O26   O     O_R   0.695690 0.001860 0.446640 -0.494745
Br1   Br    Br    0.369316 0.132286 0.827129 -0.505995
N1    N     N_3   0.202215 0.347630 0.738650 -0.562961
H6    H     H_    0.242273 0.358574 0.768923 0.272650
H7    H     H_    0.257393 0.324172 0.708928 0.266757
Br2   Br    Br    0.967312 0.415599 0.807379 -0.493887
N2    N     N_3   0.460877 0.357232 0.784869 -0.527899
H8    H     H_    0.413549 0.385526 0.752817 0.247344
H9    H     H_    0.417771 0.331694 0.808434 0.267120
N3    N     N_3   0.649499 0.353454 0.713095 -0.538683
H10   H     H_    0.575224 0.388348 0.692680 0.245274
H11   H     H_    0.716136 0.323155 0.688043 0.221553
Br3   Br    Br    0.467278 0.127448 0.714682 -0.494529
N4    N     N_3   0.683248 0.982314 0.811590 -0.558607
H12   H     H_    0.758745 0.909583 0.802458 0.286359
H13   H     H_    0.617122 0.969522 0.801682 0.310134
Br4   Br    Br    0.911456 0.946291 0.732540 -0.417751
Br5   Br    Br    0.868846 0.194181 0.809622 -0.492465
Br6   Br    Br    0.842452 0.706570 0.110166 -0.378097
N5    N     N_3   0.822554 0.726186 0.384273 -0.525609
H14   H     H_    0.794751 0.809253 0.395284 0.280828
H15   H     H_    0.849329 0.672237 0.414419 0.252973
N6    N     N_3   0.829924 0.817292 0.200871 -0.576295
H16   H     H_    0.784702 0.902823 0.210183 0.219115
H17   H     H_    0.914994 0.784640 0.209431 0.270461
N7    N     N_3   0.842256 0.815887 0.303440 -0.598437
H18   H     H_    0.800250 0.900609 0.293451 0.219561
H19   H     H_    0.926591 0.777634 0.292371 0.276329
N8    N     N_3   0.459625 0.573309 0.211984 -0.620304
H20   H     H_    0.377968 0.618507 0.226317 0.267253
H21   H     H_    0.491508 0.487705 0.218054 0.255589
N9    N     N_3   0.503659 0.530952 0.313125 -0.666270
H22   H     H_    0.417787 0.563713 0.306460 0.270115
H23   H     H_    0.548370 0.448223 0.300047 0.229592
N10   N     N_3   0.530857 0.625522 0.394698 -0.591706
H24   H     H_    0.567134 0.537735 0.395229 0.255252
H25   H     H_    0.447080 0.665320 0.383038 0.295748
N11   N     N_3   0.129323 0.017930 0.124507 -0.571754
H26   H     H_    0.208757 0.948830 0.116781 0.273588
H27   H     H_    0.076439 0.993997 0.141897 0.272025
N12   N     N_3   0.212974 0.967771 0.388588 -0.592036
H28   H     H_    0.148712 0.951909 0.378203 0.278435
H29   H     H_    0.293236 0.896332 0.387749 0.301467
N13   N     N_3   0.235822 0.876678 0.198727 -0.641382
H30   H     H_    0.186764 0.841800 0.210094 0.267323
H31   H     H_    0.321452 0.818088 0.202904 0.284878
Br7   Br    Br    0.701116 0.860881 0.707140 -0.440225
Br8   Br    Br    0.279021 0.814007 0.303596 -0.677576
Br9   Br    Br    0.206729 0.350740 0.123453 -0.316861
Br10  Br    Br    0.036027 0.519007 0.205431 -0.392255
Br11  Br    Br    0.032099 0.515277 0.321943 -0.452865
N14   N     N_3   0.139318 0.349657 0.392924 -0.550967
H32   H     H_    0.104687 0.346679 0.426640 0.246840
H33   H     H_    0.212511 0.354854 0.397208 0.298235
Br12  Br    Br    0.459465 0.392973 0.121887 -0.370518
N15   N     N_3   0.469731 0.334378 0.394462 -0.545515
H34   H     H_    0.453024 0.411102 0.379126 0.249381
H35   H     H_    0.500419 0.338265 0.428995 0.220371
N16   N     N_3   0.359439 0.372635 0.210267 -0.515219
H36   H     H_    0.314156 0.456912 0.221689 0.266524
H37   H     H_    0.312782 0.333139 0.217927 0.261406
N17   N     N_3   0.352914 0.360949 0.312926 -0.588729
H38   H     H_    0.309137 0.321072 0.301109 0.244491
H39   H     H_    0.306985 0.446914 0.304713 0.257035
N18   N     N_3   0.854955 0.013924 0.137284 -0.572796
H40   H     H_    0.903370 0.946752 0.160517 0.231030
H41   H     H_    0.813426 0.984244 0.114784 0.275225
N19   N     N_3   0.505931 0.858547 0.802355 -0.576535
H42   H     H_    0.434910 0.851184 0.809614 0.267138
H43   H     H_    0.483176 0.925208 0.778362 0.326861
N20   N     N_3   0.972698 0.996563 0.315559 -0.657230
H44   H     H_    0.018224 0.914882 0.301010 0.265658
H45   H     H_    0.015989 0.039518 0.308233 0.252401
N21   N     N_3   0.849425 0.017233 0.396095 -0.586604
H46   H     H_    0.906368 0.046792 0.399461 0.267996
H47   H     H_    0.887231 0.936535 0.380468 0.283387
N22   N     N_3   0.467417 0.672744 0.734810 -0.551476
H48   H     H_    0.404816 0.725001 0.759679 0.275096
H49   H     H_    0.442206 0.704283 0.699583 0.277031
Br13  Br    Br    0.638954 0.466398 0.809850 -0.391794
N23   N     N_3   0.958680 0.231173 0.706624 -0.612804
H50   H     H_    0.949340 0.159940 0.704181 0.279369
H51   H     H_    0.888735 0.294036 0.725165 0.285011
Br14  Br    Br    0.337994 0.937642 0.709803 -0.539098

loop_
_geom_bond_atom_site_label_1
_geom_bond_atom_site_label_2
_ccdc_geom_bond_type
C95   O17   A    
C66   C68   A    
N20   H44   S    
C8    C78   S    
N6    H17   S    
N2    H9    S    
C41   C42   A    
C71   Br9   S    
C83   C87   A    
C25   N3    S    
C74   C83   A    
C13   H5    S    
Cr6   O18   S    
C2    C12   S    
N16   H37   S    
C81   C82   A    
C7    C8    S    
N10   H25   S    
N12   H28   S    
N20   H45   S    
Cr2   O26   S    
C68   Br10  S    
N9    H23   S    
Cr5   O16   S    
C79   Br12  S    
Cr4   O19   S    
N15   H35   S    
N9    H22   S    
C19   C21   S    
C73   C90   A    
C18   C19   S    
C35   Br3   S    
C5    C6    S    
C31   Br4   S    
C45   O2    A    
Cr2   O21   S    
N11   H26   S    
C23   O1    A    
C65   C70   A    
C17   C20   S    
C58   C70   A    
N14   H32   S    
C69   C71   A    
Cr4   O14   S    
C73   C74   A    
C7    N19   S    
N18   H41   S    
C55   N12   S    
C49   N9    S    
C33   C35   S    
C29   Br5   S    
Cr1   O1    S    
C44   C53   A    
C40   C43   A    
Cr3   O23   S    
C47   C48   A    
C91   O8    A    
C16   C17   S    
C56   C72   S    
C74   C77   A    
Cr5   O19   S    
N19   H42   S    
C1    C28   S    
C31   C33   S    
N13   H30   S    
Cr4   O13   S    
C17   C22   S    
N21   H46   S    
C80   C96   S    
C56   O4    A    
C18   C20   S    
C55   C72   A    
Cr6   O11   S    
C61   C62   A    
C58   C61   A    
C15   C23   S    
N17   H38   S    
C34   O25   A    
C59   C60   A    
Cr2   O2    S    
C61   N11   S    
C50   N8    S    
N7    H19   S    
C42   N7    S    
C67   C78   S    
C62   C71   A    
C4    C7    S    
Cr6   O17   S    
C38   N5    S    
N8    H21   S    
C67   H2    S    
N22   H48   S    
C39   C42   A    
N4    H13   S    
N12   H29   S    
C25   C29   S    
C3    C67   S    
Cr2   O5    S    
C12   O22   A    
Cr3   O22   S    
C86   C88   A    
C51   C52   A    
C32   C35   S    
N1    H6    S    
Cr4   O7    S    
C84   C85   A    
Cr1   O24   S    
C47   C49   A    
C59   N13   S    
C46   N10   S    
C9    C89   T    
N10   H24   S    
C5    C7    S    
Cr1   O5    S    
C86   C87   A    
C68   C69   A    
C57   C60   A    
C6    C8    S    
C34   O26   A    
C3    C5    S    
C58   C59   A    
C40   C52   A    
Cr3   O3    S    
N16   H36   S    
C23   O23   A    
N15   H34   S    
C51   C53   A    
C64   C66   A    
C88   N18   S    
Cr1   O12   S    
C75   C76   A    
C34   C90   S    
C4    C78   S    
C29   C30   S    
C1    O12   A    
C11   C16   S    
C76   N16   S    
N18   H40   S    
C38   C54   A    
N23   H50   S    
C29   C31   S    
Cr3   O4    S    
C46   C54   A    
C50   C51   A    
C21   Br14  S    
C13   C21   S    
C18   N1    S    
C93   O6    A    
C32   C37   S    
C76   C77   A    
C89   C92   S    
C92   O9    A    
C85   C86   A    
Cr6   O10   S    
C11   N23   S    
C92   O10   A    
C81   C90   A    
C94   O15   A    
C84   N20   S    
C75   C87   A    
C40   C41   A    
N5    H15   S    
C45   C54   S    
C26   N2    S    
C82   C84   A    
C62   C94   S    
C43   C44   A    
N7    H18   S    
Cr5   O8    S    
C49   C50   A    
N3    H11   S    
C27   C93   S    
C93   O11   A    
C3    C4    S    
C2    C10   T    
N17   H39   S    
C6    C67   S    
C73   N15   S    
C43   Br6   S    
N4    H12   S    
C95   O16   A    
C3    Br13  S    
N1    H7    S    
C46   C47   A    
Cr2   O20   S    
C63   N14   S    
C30   C33   S    
C78   H1    S    
C45   O3    A    
C96   O13   A    
C31   C32   S    
C16   Br2   S    
Cr4   O6    S    
C1    O20   A    
Cr1   O25   S    
C57   C65   A    
C63   C64   A    
Cr6   O19   S    
C6    C10   S    
N2    H8    S    
C26   C30   S    
C12   O21   A    
C30   C36   S    
C27   C36   T    
C60   Br8   S    
C5    N22   S    
Cr5   O15   S    
C91   O7    A    
C13   C17   S    
C64   C65   A    
C14   C22   T    
C66   Br11  S    
C55   C57   A    
C19   C24   S    
C25   C26   S    
N23   H51   S    
C80   C88   A    
C77   N17   S    
N8    H20   S    
C15   C24   T    
C11   C13   S    
C8    Br7   S    
C38   C39   A    
N11   H27   S    
C28   C37   T    
C25   C32   S    
Cr3   O5    S    
N13   H31   S    
C63   C72   A    
N22   H49   S    
N14   H33   S    
C96   O18   A    
N21   H47   S    
C11   C19   S    
C69   C70   A    
C14   C91   S    
C56   O24   A    
C33   N4    S    
C79   C80   A    
C94   O14   A    
C53   H3    S    
C26   C35   S    
C48   C52   A    
C20   C21   S    
C16   C18   S    
C82   C83   A    
N6    H16   S    
C44   C95   S    
Cr5   O9    S    
N3    H10   S    
C39   C48   A    
N5    H14   S    
C20   Br1   S    
C4    C9    S    
C75   C79   A    
N19   H43   S    
C85   H4    S    
C81   N21   S    
C41   N6    S    
