data_mof_unit_50347.cif
_audit_creation_date              2012-12-11T14:21:22-0500
_audit_creation_method            fapswitch 2.2
_symmetry_space_group_name_H-M    P1
_symmetry_Int_Tables_number       1
_space_group_crystal_system       triclinic
_cell_length_a                    21.962456
_cell_length_b                    7.201913
_cell_length_c                    14.76403
_cell_angle_alpha                 90.057928
_cell_angle_beta                  105.602697
_cell_angle_gamma                 89.927687
_cell_volume                      2249.19510595

loop_
_atom_site_label
_atom_site_type_symbol
_atom_type_description
_atom_site_fract_x
_atom_site_fract_y
_atom_site_fract_z
_atom_type_partial_charge
O1    O     O_R   0.584770 0.505770 0.002090 -0.534270
O2    O     O_R   0.415230 0.005770 0.997910 -0.534490
O3    O     O_R   0.467060 0.173340 0.861950 -0.534118
O4    O     O_R   0.532940 0.673340 0.138050 -0.534069
C1    C     C_R   0.455447 0.344213 0.825633 0.682438
C2    C     C_R   0.544587 0.844222 0.174380 0.681789
O5    O     O_R   0.587510 0.175890 0.993210 -0.541979
O6    O     O_R   0.412490 0.675890 0.006790 -0.541772
O7    O     O_R   0.536540 0.008150 0.130100 -0.536363
O8    O     O_R   0.463460 0.508150 0.869900 -0.536558
C3    C     C_R   0.612521 0.343243 0.994506 0.732253
C4    C     C_R   0.387534 0.843781 0.005695 0.731927
O9    O     O_3   0.483140 0.340040 0.044760 -0.379299
O10   O     O_3   0.516860 0.840040 0.955240 -0.379299
V1    V     V_3+5 0.503130 0.064190 0.991700 1.451739
V2    V     V_3+5 0.496870 0.564190 0.008300 1.451764
C5    C     C_2   0.221240 0.704531 0.026100 -0.152357
C6    C     C_2   0.779394 0.206729 0.972958 -0.147935
C7    C     C_2   0.195410 0.871650 0.022025 -0.210596
C8    C     C_2   0.804445 0.374814 0.975901 -0.210298
H1    H     H_    0.198566 0.580718 0.042619 0.135404
H2    H     H_    0.801218 0.085684 0.951767 0.132815
H3    H     H_    0.173247 0.978157 0.033376 0.098183
H4    H     H_    0.825861 0.486690 0.966702 0.099800
C9    C     C_2   0.286882 0.697588 0.016002 -0.099758
C10   C     C_2   0.714007 0.196511 0.983949 -0.103641
C11   C     C_2   0.323341 0.851370 0.018952 -0.277891
C12   C     C_2   0.676550 0.349565 0.980748 -0.274175
H5    H     H_    0.304393 0.562071 0.004124 0.153046
H6    H     H_    0.696916 0.061156 0.996694 0.152151
H7    H     H_    0.306706 0.986511 0.031744 0.150468
H8    H     H_    0.692601 0.484069 0.965622 0.149010
C13   C     C_R   0.928863 0.879055 0.720410 -0.043901
C14   C     C_R   0.071037 0.379537 0.279522 -0.045221
C15   C     C_R   0.574475 0.850944 0.275918 -0.046783
C16   C     C_R   0.425668 0.351416 0.724121 -0.046324
C17   C     C_R   0.939416 0.835342 0.562357 -0.187382
C18   C     C_R   0.060971 0.335855 0.437620 -0.186199
C19   C     C_R   0.968036 0.848621 0.658681 0.086607
C20   C     C_R   0.032239 0.345027 0.341254 0.085873
C21   C     C_R   0.862529 0.881587 0.682466 -0.232439
C22   C     C_R   0.137359 0.387899 0.317432 -0.231890
C23   C     C_R   0.833683 0.854916 0.584553 0.086316
C24   C     C_R   0.166486 0.363718 0.415424 0.086033
C25   C     C_R   0.874031 0.837564 0.525615 0.066274
C26   C     C_R   0.126260 0.344381 0.474364 0.064973
C27   C     C_R   0.766671 0.847337 0.543264 0.032565
C28   C     C_R   0.233536 0.359159 0.456765 0.032483
C29   C     C_R   0.740824 0.833161 0.442224 -0.002179
C30   C     C_R   0.259372 0.345283 0.557846 -0.002915
C31   C     C_R   0.785308 0.811429 0.386544 0.245032
C32   C     C_R   0.214919 0.324989 0.613637 0.244585
C33   C     C_R   0.849899 0.817595 0.429280 -0.212027
C34   C     C_R   0.150397 0.328363 0.570775 -0.211000
C35   C     C_R   0.725109 0.847999 0.601381 -0.167690
C36   C     C_R   0.275117 0.361220 0.398678 -0.167378
C37   C     C_R   0.660451 0.851949 0.564779 -0.201926
C38   C     C_R   0.339784 0.361630 0.435322 -0.201786
C39   C     C_R   0.633699 0.852541 0.468479 0.139573
C40   C     C_R   0.366527 0.358414 0.531608 0.139582
C41   C     C_R   0.672571 0.840569 0.405187 0.094089
C42   C     C_R   0.327591 0.349843 0.594867 0.093844
C43   C     C_R   0.567539 0.865718 0.435364 -0.161103
C44   C     C_R   0.432782 0.364572 0.564742 -0.161097
C45   C     C_R   0.538076 0.864426 0.339536 -0.178218
C46   C     C_R   0.462214 0.359626 0.660535 -0.178584
C47   C     C_R   0.640391 0.844043 0.308202 -0.161948
C48   C     C_R   0.359706 0.352480 0.691843 -0.162224
H9    H     H_    0.882695 0.801538 0.386292 0.153941
H10   H     H_    0.117642 0.312546 0.613823 0.156305
H11   H     H_    0.663739 0.852045 0.254252 0.174589
H12   H     H_    0.336418 0.365503 0.745650 0.174908
H13   H     H_    0.487105 0.873881 0.314910 0.106135
H14   H     H_    0.513277 0.363423 0.685178 0.105974
H15   H     H_    0.630916 0.856023 0.613010 0.120587
H16   H     H_    0.369345 0.365046 0.387100 0.120628
H17   H     H_    0.969046 0.819374 0.514616 0.112975
H18   H     H_    0.031518 0.317925 0.485450 0.112771
H19   H     H_    0.834985 0.906416 0.731663 0.097243
H20   H     H_    0.164643 0.414829 0.268149 0.098010
H21   H     H_    0.741087 0.843128 0.676839 0.120300
H22   H     H_    0.259162 0.358924 0.323165 0.120481
H23   H     H_    0.538465 0.876604 0.483994 0.118223
H24   H     H_    0.461955 0.372468 0.516126 0.118199
O11   O     O_R   0.036450 0.233070 0.130130 -0.543165
O12   O     O_R   0.963550 0.733070 0.869870 -0.542135
O13   O     O_R   0.912470 0.560570 0.006790 -0.531408
O14   O     O_R   0.087530 0.060570 0.993210 -0.530734
C49   C     C_R   0.881634 0.391846 0.990368 0.607762
C50   C     C_R   0.118404 0.891127 0.009606 0.605828
O15   O     O_R   0.032920 0.562940 0.138050 -0.534621
O16   O     O_R   0.967080 0.062940 0.861950 -0.535018
O17   O     O_R   0.084790 0.730500 0.002090 -0.525166
O18   O     O_R   0.915210 0.230500 0.997910 -0.525677
C51   C     C_R   0.045593 0.393867 0.175510 0.677969
C52   C     C_R   0.953999 0.893845 0.824532 0.675578
O19   O     O_3   0.016820 0.396170 0.955260 -0.372602
O20   O     O_3   0.983180 0.896170 0.044740 -0.373412
V3    V     V_3+5 0.996880 0.672090 0.008300 1.426546
V4    V     V_3+5 0.003120 0.172090 0.991700 1.425792
C53   C     C_3   0.039958 0.835215 0.684930 -0.412055
C54   C     C_3   0.071883 0.772181 0.784439 -0.316411
C55   C     C_3   0.141750 0.730600 0.799439 -0.679614
H25   H     H_    0.149681 0.634975 0.745079 0.249068
H26   H     H_    0.168810 0.860875 0.800384 0.264184
H27   H     H_    0.158841 0.656867 0.866196 0.235256
H28   H     H_    0.068590 0.886853 0.832212 0.206872
H29   H     H_    0.048615 0.644133 0.800230 0.223237
H30   H     H_    0.053522 0.732645 0.637195 0.190140
H31   H     H_    0.059479 0.971652 0.671679 0.195171
C56   C     C_3   0.960488 0.323946 0.315035 -0.415577
C57   C     C_3   0.929340 0.253729 0.216369 -0.311791
C58   C     C_3   0.860794 0.197593 0.203199 -0.679135
H32   H     H_    0.856871 0.090292 0.255019 0.246187
H33   H     H_    0.831393 0.319852 0.209126 0.264230
H34   H     H_    0.842915 0.133472 0.133474 0.233940
H35   H     H_    0.929751 0.368561 0.167341 0.205136
H36   H     H_    0.955182 0.130315 0.201390 0.224341
H37   H     H_    0.948219 0.222324 0.364308 0.190834
H38   H     H_    0.939180 0.458914 0.326297 0.195518
Br1   Br    Br    0.770177 0.740608 0.255930 -0.652940
Br2   Br    Br    0.229768 0.260252 0.745001 -0.654931

loop_
_geom_bond_atom_site_label_1
_geom_bond_atom_site_label_2
_ccdc_geom_bond_type
C18   C20   A    
C43   C45   A    
C22   H20   S    
C53   C54   S    
C56   C57   S    
C14   C22   A    
O2    C4    A    
C2    O7    A    
C38   H16   S    
C27   C29   A    
O5    C3    A    
C13   C19   A    
C14   C20   A    
C56   H37   S    
C57   H35   S    
C16   C46   A    
C37   C39   A    
C15   C45   A    
C53   H30   S    
C46   H14   S    
C1    C16   S    
O16   C52   A    
C45   H13   S    
C2    C15   S    
C40   C42   A    
C49   O18   A    
C44   H24   S    
C32   Br2   S    
C8    H4    S    
C24   C26   A    
C29   C31   A    
C6    C10   S    
C30   C32   A    
C54   H29   S    
C15   C47   A    
C35   H21   S    
O17   V3    S    
C47   H11   S    
O6    C4    A    
C58   H34   S    
C28   C30   A    
C33   H9    S    
O6    V2    S    
C21   C23   A    
C22   C24   A    
C57   C58   S    
C32   C34   A    
C19   C53   S    
C20   C56   S    
O13   V3    S    
C9    H5    S    
C39   C41   A    
C29   C41   A    
C4    C11   S    
C11   H7    S    
C12   H8    S    
C14   C51   S    
O4    C2    A    
C18   H18   S    
C53   H31   S    
C17   H17   S    
C5    H1    S    
C43   H23   S    
C56   H38   S    
C31   C33   A    
C44   C46   A    
O4    V2    S    
C7    H3    S    
O2    V1    S    
C41   C47   A    
C34   H10   S    
O18   V4    S    
C48   H12   S    
C26   C34   A    
C54   H28   S    
C55   H26   S    
O1    V2    S    
O12   V3    S    
C23   C25   A    
O14   V4    S    
O12   C52   A    
O14   C50   A    
C10   H6    S    
O13   C49   A    
C30   C42   A    
C17   C25   A    
C13   C52   S    
O19   V4    S    
O3    V1    S    
O16   V4    S    
C50   O17   A    
C27   C35   A    
C58   H32   S    
C28   C36   A    
C6    H2    S    
C10   C12   D    
O3    C1    A    
C21   H19   S    
C16   C48   A    
C36   H22   S    
C9    C11   D    
C8    C49   S    
C39   C43   A    
C42   C48   A    
C40   C44   A    
C13   C21   A    
C37   H15   S    
C35   C37   A    
O7    V1    S    
C5    C9    S    
C1    O8    A    
C17   C19   A    
O11   V4    S    
O8    V2    S    
C57   H36   S    
O11   C51   A    
C23   C27   A    
C3    C12   S    
C31   Br1   S    
O5    V1    S    
C5    C7    D    
C36   C38   A    
C55   H27   S    
C6    C8    D    
C54   C55   S    
C18   C26   A    
C25   C33   A    
O15   C51   A    
O20   V3    S    
O9    V2    S    
C55   H25   S    
C7    C50   S    
O10   V1    S    
O1    C3    A    
O15   V3    S    
C38   C40   A    
C24   C28   A    
C58   H33   S    
