data_mof_unit_67305.cif
_audit_creation_date              2013-03-05T16:02:33-0500
_audit_creation_method            fapswitch 2.2
_symmetry_space_group_name_H-M    P1
_symmetry_Int_Tables_number       1
_space_group_crystal_system       triclinic
_cell_length_a                    8.621043
_cell_length_b                    14.974065
_cell_length_c                    17.086388
_cell_angle_alpha                 104.970987
_cell_angle_beta                  81.031522
_cell_angle_gamma                 94.883654
_cell_volume                      2102.46935861

loop_
_atom_site_label
_atom_site_type_symbol
_atom_site_description
_atom_site_fract_x
_atom_site_fract_y
_atom_site_fract_z
_atom_type_partial_charge
P1    P     P_3+3 0.619500 0.379780 0.307000 0.445078
O1    O     O_2   0.449810 0.404330 0.292300 -0.353119
O2    O     O_3   0.665430 0.428070 0.399450 -0.380445
O3    O     O_3   0.183150 0.584440 0.337010 -0.400282
O4    O     O_2   0.363327 0.511498 0.202224 -0.333072
O5    O     O_3   0.614400 0.262565 0.310739 -0.658991
O6    O     O_3   0.233576 0.663985 0.198210 -0.609564
C1    C     C_3   0.097324 0.771714 0.146388 0.875051
P2    P     P_3+3 0.105540 0.727570 0.557610 0.406283
P3    P     P_3+3 0.624868 0.756806 0.385373 0.381881
O7    O     O_2   0.286000 0.735700 0.531070 -0.298230
O8    O     O_3   0.580930 0.641410 0.378050 -0.374640
O9    O     O_2   0.469588 0.795849 0.430476 -0.383468
O10   O     O_3   0.104940 0.784158 0.661768 -0.708168
O11   O     O_3   0.621829 0.777639 0.290101 -0.603612
C2    C     C_3   0.584662 0.694208 0.235290 0.313811
H1    H     H_    0.462845 0.674126 0.252075 0.185451
H2    H     H_    0.652863 0.635196 0.236444 0.085304
C3    C     C_3   0.615733 0.708312 0.149981 0.105151
H3    H     H_    0.583592 0.778803 0.150518 0.117725
C4    C     C_3   0.490596 0.790282 0.701841 0.889763
H4    H     H_    0.432966 0.753357 0.648052 -0.027778
C5    C     C_3   0.367059 0.810152 0.777806 0.210464
H5    H     H_    0.277850 0.852456 0.766270 0.051925
H6    H     H_    0.308309 0.744837 0.787544 0.038932
Ba1   Ba    Ba6+2 0.356390 0.534880 0.456030 1.536085
C6    C     C_3   0.542963 0.199879 0.247997 0.853116
H7    H     H_    0.423210 0.221555 0.249145 0.066701
C7    C     C_3   0.639623 0.194966 0.162965 0.200677
H8    H     H_    0.579713 0.230919 0.127716 0.048853
H9    H     H_    0.754568 0.232412 0.171412 0.049169
C8    C     C_3   0.982939 0.748175 0.710973 0.801982
H10   H     H_    0.888834 0.714576 0.675490 0.071212
C9    C     C_3   0.911467 0.824855 0.780851 0.231284
H11   H     H_    0.010257 0.867223 0.808845 0.007397
H12   H     H_    0.841670 0.866616 0.756275 0.047855
P4    P     P_3+3 0.570190 0.620290 0.693000 0.418477
O12   O     O_2   0.739870 0.595710 0.707750 -0.331328
O13   O     O_3   0.524260 0.572010 0.600550 -0.444454
O14   O     O_3   0.006540 0.415640 0.663000 -0.353677
O15   O     O_3   0.611718 0.739718 0.712667 -0.605081
P5    P     P_3+3 0.566758 0.242347 0.619290 0.514699
O16   O     O_3   0.149240 0.378950 0.461440 -0.383351
O17   O     O_3   0.608760 0.358670 0.621950 -0.334376
O18   O     O_2   0.696882 0.188732 0.556822 -0.405079
O19   O     O_3   0.590018 0.222944 0.713073 -0.545867
Ba2   Ba    Ba6+2 0.833430 0.465200 0.543970 1.566809
P6    P     P_3+3 0.204529 0.558003 0.229822 0.428966
C10   C     C_3   0.106246 0.726701 0.220001 1.050732
O20   O     O_3   0.040450 0.621130 0.538560 -0.456305
C11   C     C_3   0.012737 0.179888 0.283640 0.459328
H13   H     H_    0.948713 0.238383 0.278742 0.040553
C12   C     C_3   0.097089 0.131475 0.195937 1.125004
P7    P     P_3+3 0.085078 0.258808 0.440419 0.442589
O21   O     O_2   0.903680 0.264350 0.468980 -0.353329
O22   O     O_3   0.133197 0.212442 0.333662 -0.623795
H14   H     H_    0.742990 0.702177 0.130697 0.105721
C13   C     C_3   0.525825 0.294355 0.777991 1.046215
H15   H     H_    0.419132 0.317876 0.763526 -0.046995
C14   C     C_3   0.484717 0.253908 0.853942 -0.100053
H16   H     H_    0.580579 0.271289 0.891339 0.108636
H17   H     H_    0.471434 0.176913 0.832754 0.132596
P8    P     P_3+3 0.010443 0.442639 0.770037 0.494737
C15   C     C_3   0.957430 0.266467 0.781564 1.042249
O23   O     O_2   0.909866 0.528514 0.805622 -0.353094
O24   O     O_3   0.907950 0.358081 0.816027 -0.541269
C16   C     C_3   0.895643 0.210857 0.847673 0.935559
H18   H     H_    0.771161 0.192265 0.841218 -0.162031
C17   C     C_2   0.334772 0.487688 0.751377 -0.408869
C18   C     C_R   0.929801 0.444785 0.247150 -0.242772
C19   C     C_2   0.419128 0.628239 0.849466 -0.400503
C20   C     C_2   0.440115 0.573478 0.773082 0.282527
C21   C     C_2   0.207658 0.474360 0.806005 0.156349
C22   C     C_3   0.224256 0.511228 0.896179 -0.001708
C23   C     C_3   0.281716 0.612351 0.911292 0.039691
C24   C     C_2   0.097736 0.487284 0.962621 -0.083285
C25   C     C_2   0.132205 0.481781 0.036925 -0.106413
C26   C     C_R   0.857058 0.441921 0.093062 -0.126448
C27   C     C_R   0.011207 0.466424 0.107369 -0.095650
C28   C     C_R   0.736990 0.420603 0.152855 0.403014
C29   C     C_R   0.774561 0.418741 0.229852 0.094488
C30   C     C_R   0.043480 0.477090 0.188922 0.188439
H19   H     H_    0.490268 0.691883 0.864808 0.218178
H20   H     H_    0.331421 0.456926 0.686723 0.134521
H21   H     H_    0.976007 0.481933 0.952262 0.177724
H22   H     H_    0.254138 0.492573 0.047061 0.163926
C31   C     C_R   0.199728 0.960008 0.541647 0.548241
C32   C     C_R   0.029122 0.805280 0.501069 0.270132
C33   C     C_R   0.899254 0.763365 0.461720 -0.442770
C34   C     C_R   0.804637 0.813012 0.430409 0.252493
C35   C     C_R   0.846350 0.905583 0.432257 -0.219771
C36   C     C_R   0.972556 0.952533 0.471329 0.046450
C37   C     C_R   0.069591 0.904493 0.506417 -0.163927
H23   H     H_    0.864816 0.691617 0.459512 0.158611
C38   C     C_R   0.124623 0.100954 0.510039 -0.103007
C39   C     C_R   0.203737 0.059449 0.557028 -0.296767
C40   C     C_R   0.175310 0.192875 0.500812 0.278600
C41   C     C_R   0.317552 0.231466 0.528925 -0.249621
C42   C     C_R   0.376242 0.196201 0.586286 0.082863
C43   C     C_R   0.303421 0.117801 0.610396 0.438825
C44   C     C_R   0.001988 0.047765 0.473251 -0.224853
H24   H     H_    0.776224 0.942234 0.404359 0.139365
H25   H     H_    0.920123 0.082780 0.452288 0.181008
O25   O     O_3   0.121322 0.802567 0.289332 -0.672075
C45   C     C_3   0.264817 0.810846 0.318772 -0.051488
H26   H     H_    0.269703 0.876248 0.366730 0.147317
H27   H     H_    0.363343 0.816795 0.270636 0.135767
H28   H     H_    0.272193 0.752374 0.346084 0.214802
O26   O     O_3   0.437472 0.858240 0.846810 -0.564693
C46   C     C_3   0.318806 0.889288 0.912807 -0.307586
H29   H     H_    0.249250 0.942296 0.900613 0.131964
H30   H     H_    0.375373 0.922462 0.967571 0.147539
H31   H     H_    0.240137 0.830862 0.926783 0.159294
O27   O     O_3   0.533364 0.109150 0.260509 -0.600174
C47   C     C_3   0.466306 0.106340 0.340409 -0.237354
H32   H     H_    0.358111 0.144489 0.359681 0.151528
H33   H     H_    0.550084 0.133676 0.384729 0.162754
H34   H     H_    0.434902 0.033205 0.341173 0.155131
O28   O     O_3   0.673866 0.102768 0.119943 -0.537156
C48   C     C_3   0.565724 0.062707 0.065167 -0.222808
H35   H     H_    0.622161 0.059398 0.001715 0.114561
H36   H     H_    0.454441 0.099213 0.076180 0.152378
H37   H     H_    0.535722 0.990694 0.070270 0.162194
O29   O     O_3   0.042696 0.688973 0.748761 -0.644327
C49   C     C_3   0.121595 0.619324 0.690172 0.028648
H38   H     H_    0.226283 0.643376 0.653602 0.095753
H39   H     H_    0.039698 0.571048 0.654749 0.210766
H40   H     H_    0.170576 0.584265 0.724668 0.089691
C50   C     C_3   0.253455 0.827162 0.129799 -1.041812
H41   H     H_    0.351876 0.780513 0.111740 0.261188
H42   H     H_    0.278168 0.881487 0.184246 0.266171
H43   H     H_    0.255000 0.859974 0.078774 0.230185
O30   O     O_3   0.811953 0.785509 0.838492 -0.526560
C51   C     C_3   0.770137 0.854812 0.910384 -0.113237
H44   H     H_    0.709122 0.910778 0.897694 0.161779
H45   H     H_    0.874836 0.883209 0.940875 0.069937
H46   H     H_    0.687054 0.824068 0.953485 0.135147
C52   C     C_3   0.948612 0.680363 0.242529 -0.986042
H47   H     H_    0.909625 0.626547 0.191558 0.176412
H48   H     H_    0.943970 0.653476 0.297510 0.237771
H49   H     H_    0.868756 0.735812 0.259893 0.285189
O31   O     O_3   0.968082 0.831794 0.169501 -0.606024
C53   C     C_3   0.920385 0.861110 0.104630 -0.206013
H50   H     H_    0.853299 0.805533 0.065570 0.125555
H51   H     H_    0.019710 0.885731 0.065373 0.133010
H52   H     H_    0.841144 0.919200 0.131316 0.214986
C54   C     C_3   0.888934 0.111122 0.313155 -0.962540
H53   H     H_    0.944161 0.051920 0.323155 0.240109
H54   H     H_    0.811117 0.145081 0.368140 0.269649
H55   H     H_    0.811867 0.081499 0.265844 0.302349
O32   O     O_3   0.982675 0.103906 0.141454 -0.635380
C55   C     C_3   0.050231 0.070451 0.059084 -0.191083
H56   H     H_    0.098231 0.128539 0.033071 0.145810
H57   H     H_    0.957028 0.033036 0.023653 0.152842
H58   H     H_    0.144200 0.021634 0.050576 0.107976
O33   O     O_3   0.220766 0.187886 0.165282 -0.679372
C56   C     C_3   0.173316 0.275408 0.166004 -0.343129
H59   H     H_    0.181561 0.321648 0.226682 0.194031
H60   H     H_    0.054619 0.273517 0.147725 0.130389
H61   H     H_    0.258600 0.304740 0.123238 0.193423
C57   C     C_3   0.174301 0.045343 0.202860 -0.981134
H62   H     H_    0.271907 0.024262 0.152878 0.240570
H63   H     H_    0.222889 0.056441 0.260659 0.251723
H64   H     H_    0.085918 0.987850 0.201199 0.285294
C58   C     C_3   0.081389 0.695948 0.068033 -1.088496
H65   H     H_    0.182473 0.652541 0.058260 0.281727
H66   H     H_    0.971805 0.652636 0.070955 0.234751
H67   H     H_    0.087775 0.725430 0.014300 0.262314
O34   O     O_3   0.636834 0.370013 0.787770 -0.556217
C59   C     C_3   0.600397 0.438983 0.860640 -0.185372
H68   H     H_    0.674365 0.433081 0.906211 0.150953
H69   H     H_    0.476223 0.437815 0.887757 0.119477
H70   H     H_    0.630956 0.507078 0.847703 0.206832
O35   O     O_3   0.349006 0.292812 0.903649 -0.638378
C60   C     C_3   0.279339 0.233474 0.952080 -0.199853
H71   H     H_    0.363581 0.217819 0.989398 0.124163
H72   H     H_    0.232600 0.168264 0.913574 0.182213
H73   H     H_    0.178727 0.268504 0.993675 0.199338
C61   C     C_3   0.135683 0.265701 0.766146 -1.068449
H74   H     H_    0.183003 0.290205 0.710894 0.218381
H75   H     H_    0.176668 0.310968 0.820968 0.277921
H76   H     H_    0.180867 0.198068 0.758670 0.277674
O36   O     O_3   0.895480 0.233062 0.706123 -0.558893
C62   C     C_3   0.880317 0.135689 0.680325 -0.168717
H77   H     H_    0.987355 0.103742 0.683170 0.106223
H78   H     H_    0.859326 0.115238 0.616563 0.207658
H79   H     H_    0.776315 0.107279 0.714457 0.154283
O37   O     O_3   0.985665 0.132177 0.835708 -0.681951
C63   C     C_3   0.891671 0.051090 0.837702 -0.472607
H80   H     H_    0.884683 0.011255 0.774344 0.176298
H81   H     H_    0.770539 0.062018 0.870927 0.164822
H82   H     H_    0.950587 0.011175 0.869586 0.175697
O38   O     O_3   0.908713 0.268969 0.926403 -0.647473
C64   C     C_3   0.836067 0.224613 0.986972 -0.205527
H83   H     H_    0.888272 0.158619 0.981799 0.181056
H84   H     H_    0.707671 0.213111 0.985354 0.113418
H85   H     H_    0.857914 0.267137 0.047305 0.152047
O39   O     O_3   0.584078 0.394338 0.136727 -0.599481
C65   C     C_3   0.557497 0.404562 0.060310 -0.133611
H86   H     H_    0.582544 0.476660 0.055913 0.186838
H87   H     H_    0.433048 0.386582 0.052933 0.168533
H88   H     H_    0.630061 0.358075 0.010279 0.126177
C66   C     C_3   0.972577 0.439913 0.328632 -0.567852
H89   H     H_    0.099316 0.432642 0.327014 0.237367
H90   H     H_    0.933277 0.502293 0.376654 0.242388
H91   H     H_    0.919900 0.377774 0.347188 0.214533
O40   O     O_3   0.364518 0.092875 0.673026 -0.632044
C67   C     C_3   0.270935 0.030810 0.712681 -0.075271
H92   H     H_    0.266404 0.058104 0.779665 0.149226
H93   H     H_    0.328321 0.964583 0.697053 0.217196
H94   H     H_    0.149701 0.016632 0.698890 0.099829
C68   C     C_3   0.414900 0.304828 0.493252 -0.585537
H95   H     H_    0.396624 0.374434 0.535122 0.229792
H96   H     H_    0.541427 0.290462 0.480789 0.244436
H97   H     H_    0.390271 0.304379 0.431791 0.230057
O41   O     O_3   0.332846 0.918897 0.550483 -0.578990
C69   C     C_3   0.473484 0.963411 0.517856 0.055865
H98   H     H_    0.464257 0.979278 0.458676 0.049279
H99   H     H_    0.571413 0.920357 0.508777 0.115734
H100  H     H_    0.524009 0.022185 0.560444 0.135642
O42   O     O_3   0.530548 0.640188 0.098518 -0.582648
C70   C     C_3   0.582354 0.642873 0.017126 -0.291421
H101  H     H_    0.553955 0.708949 0.005924 0.156370
H102  H     H_    0.518170 0.586306 0.978687 0.168402
H103  H     H_    0.709894 0.630129 0.999136 0.155877
O43   O     O_3   0.555632 0.877106 0.691733 -0.632760
C71   C     C_3   0.672513 0.864914 0.623255 -0.178524
H104  H     H_    0.711096 0.933592 0.612125 0.129576
H105  H     H_    0.627083 0.818515 0.569175 0.143264
H106  H     H_    0.778094 0.835010 0.633336 0.093200

loop_
_geom_bond_atom_site_label_1
_geom_bond_atom_site_label_2
_geom_bond_distance
_ccdc_geom_bond_type
O14   Ba2   2.971358 S    
C64   H84   1.109190 S    
C66   H89   1.102599 S    
P8    O23   1.548086 D    
C58   H65   1.097630 S    
C6    C7    1.545450 S    
C49   H38   1.104446 S    
C14   O35   1.407180 S    
C21   C22   1.521505 S    
C8    O29   1.394750 S    
C38   C39   1.413065 A    
C3    O42   1.401225 S    
Ba2   O20   2.827745 S    
O36   C62   1.410963 S    
C51   H46   1.105384 S    
C57   H62   1.104049 S    
C60   H72   1.110158 S    
C55   H57   1.107145 S    
C3    H14   1.099737 S    
C69   H100  1.093829 S    
C4    O43   1.412852 S    
C7    O28   1.418067 S    
C56   H59   1.096847 S    
O14   P8    1.773203 S    
C22   C24   1.537757 S    
Ba2   O21   3.021758 S    
O33   C56   1.402298 S    
C54   H54   1.098202 S    
P4    O12   1.610394 D    
C11   O22   1.421929 S    
P3    O11   1.739247 S    
Ba1   O20   3.087995 S    
P2    C32   1.905552 S    
P5    O19   1.744414 S    
C26   C28   1.414089 A    
Ba1   O13   2.961249 S    
C1    C10   1.587207 S    
C64   H85   1.097547 S    
C59   H68   1.104843 S    
C13   C14   1.550057 S    
C47   H32   1.096614 S    
C41   C42   1.401052 A    
C53   H51   1.101821 S    
C62   H77   1.088065 S    
C27   C30   1.429324 A    
C14   H17   1.117230 S    
C9    H11   1.111236 S    
O34   C59   1.408706 S    
C33   H23   1.082611 S    
C63   H81   1.111693 S    
C18   C29   1.416154 A    
C46   H29   1.112868 S    
C54   H53   1.103284 S    
O35   C60   1.403222 S    
C15   O36   1.425841 S    
C71   H104  1.107903 S    
C62   H78   1.092298 S    
C2    H1    1.082801 S    
C47   H33   1.105760 S    
P2    Ba1   3.649555 S    
C49   H40   1.037575 S    
C31   O41   1.393243 S    
C55   H58   1.104968 S    
P7    C40   1.884691 S    
C17   C21   1.360895 D    
O39   C65   1.408312 S    
P4    Ba2   3.614945 S    
O16   Ba2   3.087046 S    
O17   Ba2   2.799800 S    
C61   H76   1.085598 S    
C32   C33   1.412969 A    
C45   H27   1.101371 S    
C64   H83   1.097767 S    
P8    O24   1.763095 S    
C65   H86   1.102256 S    
C44   H25   1.067773 S    
C4    H4    1.109180 S    
O19   C13   1.405925 S    
O5    C6    1.413210 S    
C70   H101  1.108718 S    
P5    O17   1.738962 S    
C10   O25   1.427708 S    
C16   H18   1.100691 S    
C16   O37   1.419133 S    
O25   C45   1.390844 S    
C57   H63   1.100315 S    
C43   O40   1.406241 S    
C48   H36   1.111074 S    
Ba1   O16   2.828369 S    
C40   C41   1.409962 A    
C60   H73   1.106919 S    
C19   H19   1.083797 S    
C25   C27   1.516712 S    
C5    O26   1.409676 S    
O4    P6    1.540405 D    
P7    O22   1.772065 S    
C22   C23   1.521542 S    
O40   C67   1.414547 S    
C15   C16   1.573507 S    
C66   H91   1.099139 S    
C54   H55   1.106192 S    
C24   C25   1.372151 D    
O6    C10   1.446716 S    
C1    C58   1.531162 S    
C53   H52   1.109215 S    
C35   C36   1.406226 A    
C15   C61   1.518643 S    
C26   C27   1.390082 A    
C67   H92   1.107061 S    
C51   H45   1.110739 S    
P8    C21   1.879207 S    
C9    O30   1.415425 S    
C13   H15   1.096443 S    
C41   C68   1.520556 S    
C52   H49   1.075978 S    
C11   H13   1.101583 S    
O8    Ba1   2.799162 S    
C14   H16   1.095952 S    
P1    O2    1.652582 S    
P5    O18   1.542581 D    
C8    C9    1.518678 S    
C56   H60   1.111578 S    
C63   H82   1.103716 S    
P2    O10   1.761840 S    
C7    H8    1.109592 S    
O7    Ba1   3.021735 S    
C49   H39   1.098937 S    
C65   H88   1.098465 S    
O42   C70   1.402608 S    
C66   H90   1.109866 S    
O16   P7    1.797244 S    
C60   H71   1.113355 S    
C68   H97   1.101620 S    
C11   C54   1.538547 S    
C31   C37   1.450961 A    
O32   C55   1.414486 S    
C47   H34   1.108413 S    
C28   O39   1.391912 S    
C31   C39   1.442012 A    
C13   O34   1.412350 S    
C38   C40   1.448651 A    
O1    Ba1   3.006077 S    
C2    H2    1.108156 S    
C45   H28   1.103756 S    
O41   C69   1.438313 S    
C70   H102  1.095947 S    
P2    O7    1.554716 D    
C46   H31   1.113018 S    
C65   H87   1.102226 S    
O12   Ba2   3.006651 S    
P3    O8    1.713636 S    
Ba1   Ba2   4.871039 S    
C62   H79   1.106884 S    
C4    O15   1.401806 S    
C36   C44   1.419784 A    
C67   H93   1.097738 S    
C71   H105  1.106685 S    
C68   H96   1.106945 S    
C25   H22   1.083739 S    
O43   C71   1.403927 S    
C58   H67   1.109204 S    
C4    C5    1.526735 S    
C67   H94   1.098237 S    
P1    Ba1   3.614378 S    
C69   H99   1.073604 S    
C35   H24   1.084160 S    
C6    H7    1.104096 S    
C57   H64   1.097704 S    
C48   H35   1.107465 S    
O13   Ba2   3.117756 S    
C50   H41   1.100459 S    
O3    P6    1.754275 S    
C18   C66   1.515510 S    
P1    O1    1.610015 D    
C32   C37   1.479434 A    
P1    O5    1.769348 S    
O2    Ba1   3.116801 S    
P2    O20   1.611764 S    
O10   C8    1.401866 S    
C28   C29   1.410607 A    
P3    O9    1.518741 D    
P7    O21   1.566486 D    
O3    Ba1   2.971921 S    
O28   C48   1.411289 S    
C48   H37   1.109661 S    
O27   C47   1.406850 S    
C51   H44   1.109293 S    
C52   H48   1.107790 S    
C56   H61   1.100341 S    
C45   H26   1.105189 S    
C70   H103  1.113515 S    
C42   C43   1.409166 A    
C8    H10   1.097794 S    
C50   H43   1.103740 S    
C3    H3    1.111325 S    
C69   H98   1.112509 S    
C19   C20   1.344322 D    
C7    H9    1.106970 S    
C17   H20   1.085432 S    
C16   O38   1.416082 S    
P5    C42   1.840468 S    
O6    P6    1.790535 S    
C19   C23   1.505850 S    
C12   C57   1.539514 S    
C34   C35   1.395644 A    
O30   C51   1.408127 S    
C59   H69   1.098783 S    
C2    C3    1.506222 S    
O11   C2    1.400505 S    
C39   C43   1.427695 A    
O2    Ba2   2.961922 S    
C36   C37   1.434686 A    
P6    C30   1.860825 S    
C9    H12   1.099062 S    
C5    H6    1.101924 S    
P4    O15   1.748489 S    
C63   H80   1.100889 S    
C18   C30   1.431152 A    
C46   H30   1.105000 S    
C52   H47   1.096988 S    
C5    H5    1.107392 S    
C61   H74   1.107115 S    
C6    O27   1.422569 S    
C38   C44   1.397273 A    
P4    O13   1.652556 S    
C71   H106  1.103100 S    
C61   H75   1.093670 S    
C68   H95   1.109310 S    
P3    C34   1.875496 S    
C12   O33   1.423313 S    
C58   H66   1.101514 S    
O38   C64   1.409479 S    
P4    C20   1.872023 S    
O26   C46   1.408817 S    
C1    C50   1.547191 S    
C12   O32   1.424208 S    
O31   C53   1.419359 S    
O37   C63   1.406165 S    
C1    O31   1.434115 S    
C55   H56   1.098405 S    
C17   C20   1.507573 S    
C11   C12   1.577546 S    
C33   C34   1.396095 A    
C10   C52   1.513525 S    
P1    C29   1.892117 S    
C24   H21   1.084120 S    
C53   H50   1.106306 S    
C15   O24   1.419359 S    
O29   C49   1.386200 S    
C50   H42   1.101770 S    
C59   H70   1.100254 S    
