data_mof_unit_26810.cif
_audit_creation_date              2012-12-10T21:27:25-0500
_audit_creation_method            fapswitch 2.2
_symmetry_space_group_name_H-M    P1
_symmetry_Int_Tables_number       1
_space_group_crystal_system       triclinic
_cell_length_a                    10.303593
_cell_length_b                    16.136875
_cell_length_c                    16.836936
_cell_angle_alpha                 86.709047
_cell_angle_beta                  92.144176
_cell_angle_gamma                 103.662947
_cell_volume                      2714.91475728

loop_
_atom_site_label
_atom_site_type_symbol
_atom_type_description
_atom_site_fract_x
_atom_site_fract_y
_atom_site_fract_z
_atom_type_partial_charge
C1    C     C_R   0.497313 0.487511 0.652689 0.888850
C2    C     C_R   0.502660 0.512595 0.347263 0.842583
C3    C     C_R   0.427240 0.401612 0.779104 -0.064758
C4    C     C_R   0.578211 0.599934 0.221852 -0.061865
C5    C     C_R   0.412930 0.737663 0.464175 -0.040499
C6    C     C_R   0.585383 0.262308 0.537352 -0.072088
C7    C     C_R   0.391558 0.820348 0.455672 -0.015855
C8    C     C_R   0.607241 0.179696 0.545499 -0.015457
C9    C     C_R   0.481893 0.887458 0.492076 0.258271
C10   C     C_R   0.519681 0.113099 0.506618 0.258686
C11   C     C_R   0.589032 0.867789 0.538305 -0.324958
C12   C     C_R   0.413966 0.132976 0.459154 -0.325356
C13   C     C_R   0.602143 0.782453 0.549116 0.218731
C14   C     C_R   0.399746 0.218079 0.449353 0.219626
C15   C     C_R   0.744973 0.533798 0.493410 0.930829
C16   C     C_R   0.254299 0.466650 0.495225 0.923038
C17   C     C_2   0.883744 0.547678 0.468943 -0.455080
C18   C     C_2   0.112327 0.453672 0.479153 -0.426924
C19   C     C_2   0.922248 0.494555 0.419033 0.106344
C20   C     C_2   0.065132 0.497112 0.418196 0.130719
C21   C     C_R   0.499597 0.476905 0.738665 -0.100388
C22   C     C_R   0.505932 0.523792 0.261314 -0.094782
C23   C     C_R   0.582082 0.542045 0.780175 -0.270212
C24   C     C_R   0.433086 0.456455 0.218401 -0.281343
C25   C     C_R   0.591305 0.535333 0.861725 -0.192756
C26   C     C_R   0.434702 0.461265 0.136863 -0.195501
C27   C     C_R   0.514310 0.463965 0.903671 0.276982
C28   C     C_R   0.513627 0.532974 0.096305 0.278219
C29   C     C_R   0.434850 0.395108 0.863041 0.051132
C30   C     C_R   0.583191 0.603990 0.137998 0.046570
H1    H     H_    0.045248 0.415803 0.522987 0.130329
H2    H     H_    0.957610 0.599278 0.494948 0.140865
H3    H     H_    0.373913 0.399864 0.248315 0.175727
H4    H     H_    0.640827 0.598073 0.749104 0.172178
H5    H     H_    0.376239 0.407739 0.105327 0.160361
H6    H     H_    0.656214 0.587169 0.892466 0.160764
H7    H     H_    0.650377 0.312857 0.569256 0.156182
H8    H     H_    0.345876 0.687218 0.433867 0.150161
H9    H     H_    0.661081 0.918013 0.566809 0.164249
H10   H     H_    0.343664 0.083045 0.429209 0.163885
N1    N     N_2   0.509184 0.462282 0.987085 -0.207490
N2    N     N_2   0.524461 0.534662 0.013173 -0.206369
N3    N     N_R   0.515370 0.719110 0.509820 -0.105204
N4    N     N_R   0.484630 0.280890 0.490180 -0.106095
N5    N     N_2   0.459549 0.971998 0.481838 -0.191553
N6    N     N_2   0.542604 0.028664 0.516323 -0.191026
O1    O     O_R   0.494500 0.421750 0.612630 -0.600722
O2    O     O_R   0.505500 0.578250 0.387370 -0.611611
O3    O     O_R   0.504370 0.562470 0.618930 -0.617624
O4    O     O_R   0.495630 0.437530 0.381070 -0.629608
O5    O     O_R   0.679100 0.455920 0.498020 -0.630364
O6    O     O_R   0.320900 0.544080 0.501980 -0.618880
O7    O     O_R   0.688960 0.596630 0.504320 -0.612798
O8    O     O_R   0.311040 0.403370 0.495680 -0.607871
Zn1   Zn    Zn3+2 0.493410 0.406040 0.495790 0.917408
Zn2   Zn    Zn3+2 0.506590 0.593960 0.504210 0.926597
C31   C     C_3   0.149653 0.537390 0.347087 -0.401330
C32   C     C_3   0.089917 0.601344 0.295361 -0.367002
C33   C     C_3   0.183403 0.642822 0.228676 -0.889070
H11   H     H_    0.280192 0.678107 0.254088 0.259080
H12   H     H_    0.201405 0.593507 0.189813 0.269628
H13   H     H_    0.137721 0.688454 0.192098 0.253833
H14   H     H_    0.993137 0.568870 0.268026 0.218092
H15   H     H_    0.072807 0.651979 0.332788 0.218113
H16   H     H_    0.249790 0.571780 0.367222 0.220036
H17   H     H_    0.164090 0.485559 0.310097 0.181338
C34   C     C_3   0.824198 0.423445 0.376232 -0.337732
C35   C     C_3   0.885403 0.378209 0.314440 -0.398898
C36   C     C_3   0.779038 0.307123 0.277881 -0.882317
H18   H     H_    0.734013 0.258533 0.324661 0.261714
H19   H     H_    0.699144 0.333808 0.247516 0.268210
H20   H     H_    0.825353 0.275482 0.233474 0.251823
H21   H     H_    0.929652 0.424128 0.265747 0.228454
H22   H     H_    0.964583 0.349502 0.343069 0.231498
H23   H     H_    0.777814 0.373097 0.421059 0.226968
H24   H     H_    0.745822 0.451053 0.345452 0.202746
C37   C     C_3   0.713187 0.763550 0.602783 -0.400856
C38   C     C_3   0.699583 0.786497 0.688930 -0.376173
C39   C     C_3   0.820334 0.775884 0.740437 -0.902523
H25   H     H_    0.835902 0.710358 0.737738 0.256195
H26   H     H_    0.911671 0.822511 0.719665 0.263857
H27   H     H_    0.804099 0.787637 0.803238 0.251634
H28   H     H_    0.691560 0.853742 0.691257 0.225863
H29   H     H_    0.607427 0.744489 0.714243 0.231526
H30   H     H_    0.712781 0.695113 0.603961 0.244864
H31   H     H_    0.810337 0.800286 0.578977 0.182367
C40   C     C_3   0.288802 0.237404 0.395808 -0.397122
C41   C     C_3   0.302114 0.215356 0.309401 -0.378066
C42   C     C_3   0.183315 0.229495 0.257805 -0.906765
H32   H     H_    0.090118 0.184082 0.277634 0.265860
H33   H     H_    0.170925 0.295649 0.261621 0.252902
H34   H     H_    0.199494 0.218559 0.194796 0.251567
H35   H     H_    0.396086 0.255908 0.284884 0.230378
H36   H     H_    0.306424 0.147509 0.306287 0.225489
H37   H     H_    0.191581 0.200466 0.419350 0.183264
H38   H     H_    0.289179 0.305805 0.395313 0.245787
C43   C     C_3   0.353012 0.318591 0.910460 -0.420525
C44   C     C_3   0.441925 0.261308 0.946346 -0.332803
C45   C     C_3   0.360782 0.186140 0.996085 -0.889415
H39   H     H_    0.314111 0.209485 0.046099 0.258293
H40   H     H_    0.281513 0.146529 0.958647 0.262916
H41   H     H_    0.427496 0.145739 0.021056 0.249144
H42   H     H_    0.489885 0.236383 0.897842 0.214653
H43   H     H_    0.522049 0.298450 0.984962 0.232781
H44   H     H_    0.301142 0.341369 0.958575 0.204254
H45   H     H_    0.272465 0.279699 0.873457 0.208059
C46   C     C_3   0.672052 0.679551 0.093132 -0.422659
C47   C     C_3   0.814553 0.666895 0.089198 -0.326129
C48   C     C_3   0.906373 0.743134 0.046430 -0.892065
H46   H     H_    0.868924 0.752003 0.984517 0.259279
H47   H     H_    0.912073 0.802115 0.078676 0.265014
H48   H     H_    0.008383 0.731844 0.044328 0.249604
H49   H     H_    0.855820 0.658609 0.150295 0.223339
H50   H     H_    0.813030 0.608423 0.056953 0.227517
H51   H     H_    0.631663 0.687720 0.031804 0.206633
H52   H     H_    0.673714 0.740167 0.121427 0.205094
C49   C     C_R   0.342734 0.331576 0.733718 0.139260
C50   C     C_R   0.387352 0.257415 0.722516 -0.118015
C51   C     C_R   0.311613 0.193548 0.675849 -0.136288
C52   C     C_R   0.190972 0.203300 0.640267 -0.098880
C53   C     C_R   0.145813 0.276875 0.651408 -0.125868
C54   C     C_R   0.221442 0.341006 0.697870 -0.159057
H53   H     H_    0.481735 0.249989 0.748678 0.105380
H54   H     H_    0.347030 0.136859 0.666702 0.127532
H55   H     H_    0.132732 0.154017 0.603846 0.115705
H56   H     H_    0.052711 0.284487 0.623561 0.111440
H57   H     H_    0.186533 0.398301 0.705203 0.111288
C55   C     C_R   0.651016 0.673478 0.267747 0.161054
C56   C     C_R   0.768004 0.669067 0.311399 -0.134088
C57   C     C_R   0.832880 0.736674 0.357609 -0.114370
C58   C     C_R   0.781025 0.808958 0.360681 -0.102332
C59   C     C_R   0.664516 0.813867 0.317326 -0.134985
C60   C     C_R   0.599552 0.746379 0.271028 -0.160666
H58   H     H_    0.807154 0.612739 0.310331 0.096122
H59   H     H_    0.922624 0.732795 0.391617 0.111738
H60   H     H_    0.830819 0.861000 0.396867 0.116301
H61   H     H_    0.624186 0.869771 0.319930 0.127422
H62   H     H_    0.509368 0.750766 0.237770 0.107262
C61   C     C_3   0.726132 0.164328 0.594553 -0.422904
C62   C     C_3   0.683694 0.120256 0.675705 -0.327321
C63   C     C_3   0.803914 0.103279 0.723972 -0.896495
H63   H     H_    0.852299 0.060685 0.692029 0.259567
H64   H     H_    0.877889 0.164223 0.734367 0.265214
H65   H     H_    0.770598 0.071662 0.782461 0.249379
H66   H     H_    0.635635 0.161611 0.709473 0.210955
H67   H     H_    0.610355 0.058471 0.667878 0.230579
H68   H     H_    0.778761 0.125029 0.561245 0.208889
H69   H     H_    0.799107 0.225964 0.604256 0.182150
C64   C     C_3   0.269779 0.834999 0.409179 -0.422403
C65   C     C_3   0.305900 0.873314 0.325277 -0.328211
C66   C     C_3   0.181700 0.884775 0.277770 -0.891018
H70   H     H_    0.109324 0.822229 0.271995 0.268892
H71   H     H_    0.133084 0.928736 0.307618 0.259224
H72   H     H_    0.210530 0.912367 0.217254 0.249708
H73   H     H_    0.377671 0.936423 0.328658 0.226874
H74   H     H_    0.353773 0.830384 0.293507 0.214679
H75   H     H_    0.193962 0.773638 0.404587 0.186019
H76   H     H_    0.222310 0.877742 0.441647 0.207799

loop_
_geom_bond_atom_site_label_1
_geom_bond_atom_site_label_2
_ccdc_geom_bond_type
C40   C41   S    
C1    C21   S    
C30   C46   S    
C27   C29   A    
C49   C50   A    
N1    N2    D    
C19   C20   S    
C31   H17   S    
C55   C56   A    
C43   C44   S    
C37   C38   S    
C9    N5    S    
C61   H68   S    
C8    C61   S    
C15   O7    A    
C14   N4    A    
C24   C26   A    
C14   C40   S    
C48   H47   S    
C35   H22   S    
C44   H42   S    
C47   C48   S    
C20   C31   S    
C3    C29   A    
C66   H72   S    
C47   H50   S    
C54   H57   S    
C36   H19   S    
C50   C51   A    
C3    C49   S    
C7    C64   S    
C63   H63   S    
C38   H28   S    
C57   H59   S    
C35   C36   S    
C40   H37   S    
C2    C22   S    
C66   H70   S    
C19   C34   S    
C15   O5    A    
C42   H33   S    
C2    O4    A    
C64   H76   S    
C18   C20   D    
C43   H44   S    
C23   C25   A    
C5    N3    A    
C37   H30   S    
C60   H62   S    
C65   H74   S    
C5    H8    S    
C41   H36   S    
C32   H15   S    
C13   C37   S    
C61   H69   S    
C33   H12   S    
C4    C55   S    
C34   C35   S    
C62   C63   S    
C58   H60   S    
C63   H65   S    
C62   H67   S    
C26   H5    S    
C5    C7    A    
C41   H35   S    
C52   H55   S    
C1    O1    A    
C6    C8    A    
C2    O2    A    
C35   H21   S    
C51   H54   S    
C39   H25   S    
C47   H49   S    
C12   H10   S    
C36   H20   S    
C49   C54   A    
C10   N6    S    
C24   H3    S    
C38   H29   S    
C4    C22   A    
C27   N1    S    
C45   H39   S    
C46   C47   S    
C23   H4    S    
C40   H38   S    
C6    H7    S    
C42   H34   S    
C11   H9    S    
C9    C11   A    
C46   H51   S    
C53   C54   A    
C10   C12   A    
C43   H45   S    
C16   C18   S    
C45   H40   S    
C12   C14   A    
C37   H31   S    
C44   C45   S    
C65   H73   S    
C21   C23   A    
C22   C24   A    
C48   H48   S    
C34   H23   S    
C58   C59   A    
C13   N3    A    
C52   C53   A    
O1    Zn1   S    
C56   C57   A    
O7    Zn2   S    
C32   H14   S    
O2    Zn2   S    
C7    C9    A    
O8    Zn1   S    
C33   H13   S    
C28   N2    S    
C38   C39   S    
C26   C28   A    
C16   O6    A    
C31   H16   S    
C62   H66   S    
C39   H27   S    
C61   C62   S    
C15   C17   S    
C34   H24   S    
C25   C27   A    
O3    Zn2   S    
C39   H26   S    
O4    Zn1   S    
C29   C43   S    
C16   O8    A    
C63   H64   S    
C57   C58   A    
C59   H61   S    
C53   H56   S    
C64   C65   S    
C11   C13   A    
N4    Zn1   S    
C31   C32   S    
C64   H75   S    
C44   H43   S    
C28   C30   A    
C17   C19   D    
C59   C60   A    
O5    Zn1   S    
C50   H53   S    
C66   H71   S    
C36   H18   S    
C32   C33   S    
C46   H52   S    
C3    C21   A    
C25   H6    S    
C56   H58   S    
N5    N6    D    
N3    Zn2   S    
C33   H11   S    
C45   H41   S    
C41   C42   S    
C8    C10   A    
C51   C52   A    
C48   H46   S    
C17   H2    S    
C65   C66   S    
C6    N4    A    
C18   H1    S    
C42   H32   S    
C55   C60   A    
C1    O3    A    
C4    C30   A    
O6    Zn2   S    
