data_mof_unit_39613.cif
_audit_creation_date              2013-03-05T15:43:30-0500
_audit_creation_method            fapswitch 2.2
_symmetry_space_group_name_H-M    P1
_symmetry_Int_Tables_number       1
_space_group_crystal_system       triclinic
_cell_length_a                    10.906359
_cell_length_b                    10.959599
_cell_length_c                    9.699001
_cell_angle_alpha                 90.549697
_cell_angle_beta                  89.244741
_cell_angle_gamma                 91.073463
_cell_volume                      1158.96018408

loop_
_atom_site_label
_atom_site_type_symbol
_atom_site_description
_atom_site_fract_x
_atom_site_fract_y
_atom_site_fract_z
_atom_type_partial_charge
O1    O     O_R   0.500020 0.321960 0.617040 -0.538179
O2    O     O_R   0.499980 0.321920 0.382900 -0.583887
C1    C     C_R   0.498680 0.265475 0.498580 0.912250
O3    O     O_R   0.317710 0.500000 0.617070 -0.542441
O4    O     O_R   0.317670 0.499960 0.382930 -0.526832
C2    C     C_R   0.260483 0.504616 0.500755 0.930733
Cu1   Cu    Cu3+1 0.500030 0.500020 0.638630 1.154222
Cu2   Cu    Cu3+1 0.499970 0.499980 0.361370 1.174627
O5    O     O_R   0.500020 0.678080 0.617100 -0.531282
O6    O     O_R   0.499980 0.678040 0.382960 -0.549228
O7    O     O_R   0.682330 0.500040 0.617070 -0.555773
O8    O     O_R   0.682290 0.500000 0.382930 -0.521678
C3    C     C_R   0.500706 0.734806 0.501390 0.828143
C4    C     C_R   0.740091 0.504417 0.498907 0.957147
C5    C     C_3   0.069991 0.508250 0.654171 -0.031405
H1    H     H_    0.093270 0.423101 0.705439 0.263110
C6    C     C_3   0.927434 0.517137 0.653515 0.341655
H2    H     H_    0.085038 0.691822 0.524617 0.190452
C7    C     C_3   0.075719 0.627946 0.435822 0.007465
C8    C     C_3   0.073275 0.379959 0.427917 0.364521
C9    C     C_3   0.123077 0.504586 0.501033 -0.415316
C10   C     C_3   0.878411 0.508722 0.495871 -0.436679
C11   C     C_3   0.932046 0.626630 0.410377 0.360868
C12   C     C_3   0.926013 0.385041 0.423608 0.257042
C13   C     C_2   0.504546 0.931893 0.392468 -0.196396
C14   C     C_2   0.519836 0.866424 0.507116 0.166815
H3    H     H_    0.479313 0.887044 0.296333 0.225883
C15   C     C_2   0.522941 0.063971 0.388095 0.315106
C16   C     C_2   0.484843 0.134079 0.494778 -0.216361
H4    H     H_    0.437996 0.093409 0.582915 0.198391
C17   C     C_2   0.439186 0.420391 0.923948 0.414702
N1    N     N_2   0.498630 0.498660 0.846910 -0.305838
H5    H     H_    0.577098 0.536630 0.888285 0.246058
C18   C     C_2   0.462756 0.408930 0.075418 0.067763
N2    N     N_2   0.498590 0.498630 0.153040 -0.074579
H6    H     H_    0.442547 0.321605 0.122644 0.183313
Br1   Br    Br    0.149766 0.629863 0.780106 -0.200689
Br2   Br    Br    0.861601 0.355096 0.236185 -0.159920
N3    N     N_R   0.154438 0.692574 0.332754 0.184690
O9    O     O_R   0.185882 0.806222 0.355314 -0.269797
O10   O     O_R   0.202640 0.638912 0.225740 -0.188398
N4    N     N_R   0.897943 0.623081 0.261989 0.183585
O11   O     O_R   0.787150 0.651396 0.227688 -0.231948
O12   O     O_R   0.979014 0.626444 0.163108 -0.162270
N5    N     N_R   0.570303 0.919714 0.631175 0.139098
O13   O     O_R   0.521358 0.894592 0.750895 -0.234328
O14   O     O_R   0.672433 0.982971 0.625794 -0.206567
Br3   Br    Br    0.603849 0.123613 0.223898 -0.252256
N6    N     N_R   0.350440 0.338316 0.865648 0.164539
O15   O     O_R   0.235367 0.358389 0.891812 -0.235251
O16   O     O_R   0.382720 0.226824 0.839018 -0.268987
Br4   Br    Br    0.478474 0.660808 0.089595 -0.185419
Br5   Br    Br    0.866545 0.392330 0.784866 -0.219657
Br6   Br    Br    0.866410 0.663712 0.751953 -0.164188
N7    N     N_R   0.882402 0.743079 0.464398 0.151513
O17   O     O_R   0.946399 0.843938 0.451317 -0.180930
O18   O     O_R   0.764982 0.753735 0.482767 -0.327373
N8    N     N_R   0.129446 0.365282 0.287814 0.176336
O19   O     O_R   0.103712 0.435318 0.185821 -0.196955
O20   O     O_R   0.212849 0.283510 0.265257 -0.265601
N9    N     N_R   0.110216 0.269469 0.505704 0.135213
O21   O     O_R   0.082703 0.161897 0.455141 -0.163287
O22   O     O_R   0.199619 0.273727 0.593358 -0.334098
Br7   Br    Br    0.840905 0.241671 0.505959 -0.221443

loop_
_geom_bond_atom_site_label_1
_geom_bond_atom_site_label_2
_geom_bond_distance
_ccdc_geom_bond_type
O4    Cu2   1.996447 S    
C12   Br2   1.979707 S    
N7    O17   1.302519 A    
N6    O15   1.299518 A    
C11   N7    1.483931 S    
C16   H4    1.085243 S    
C13   H3    1.086111 S    
C8    N9    1.497225 S    
C7    C11   1.589244 S    
C6    C10   1.627629 S    
Cu2   N2    2.020757 S    
Cu2   O8    2.002149 S    
N1    H5    1.029132 S    
C4    C10   1.508335 S    
N5    O14   1.301638 A    
O2    C1    1.286193 A    
C13   C14   1.343050 D    
C17   C18   1.501609 S    
Cu1   Cu2   2.689150 S    
N3    O10   1.298085 A    
C5    Br1   1.994665 S    
N5    O13   1.301288 A    
C13   C15   1.458572 S    
Cu1   O7    1.996447 S    
C15   Br3   1.924421 S    
O4    C2    1.295706 A    
C11   N4    1.491198 S    
N4    O12   1.296155 A    
C17   N6    1.427490 S    
O3    Cu1   2.002147 S    
C7    N3    1.485348 S    
Cu2   O6    1.960669 S    
C15   C16   1.348715 D    
C7    C9    1.595570 S    
O8    C4    1.296753 A    
C12   Br7   1.979479 S    
C18   H6    1.082667 S    
N7    O18   1.297910 A    
N9    O21   1.303838 A    
O7    C4    1.301343 A    
C10   C12   1.611417 S    
C3    C14   1.454259 S    
O3    C2    1.298328 A    
N4    O11   1.301432 A    
C8    N8    1.491718 S    
C5    H1    1.097123 S    
N3    O9    1.302922 A    
C6    Br5   1.977895 S    
C5    C9    1.587436 S    
C8    C9    1.620882 S    
C1    C16   1.445294 S    
C18   N2    1.290398 D    
N2    Br4   1.903975 S    
C5    C6    1.559743 S    
Cu1   O5    1.964601 S    
C10   C11   1.636786 S    
H2    C7    1.109135 S    
O5    C3    1.288035 A    
Cu1   N1    2.020161 S    
C14   N5    1.443536 S    
N6    O16   1.300538 A    
N8    O19   1.294786 A    
O1    Cu1   1.960669 S    
C2    C9    1.498560 S    
N8    O20   1.303826 A    
C6    Br6   1.982145 S    
C8    C12   1.609207 S    
N9    O22   1.301949 A    
O2    Cu2   1.964601 S    
C17   N1    1.301199 D    
O1    C1    1.299985 A    
O6    C3    1.301098 A    
