data_mof_unit_65732.cif
_audit_creation_date              2012-10-26T19:13:28-0400
_audit_creation_method            fapswitch 2.2
_symmetry_space_group_name_H-M    P1
_symmetry_Int_Tables_number       1
_space_group_crystal_system       triclinic
_cell_length_a                    13.466828
_cell_length_b                    13.939927
_cell_length_c                    15.093894
_cell_angle_alpha                 89.160047
_cell_angle_beta                  91.627427
_cell_angle_gamma                 71.94082
_cell_volume                      2692.02945967

loop_
_atom_site_label
_atom_site_type_symbol
_atom_type_description
_atom_site_fract_x
_atom_site_fract_y
_atom_site_fract_z
_atom_type_partial_charge
Br1   Br    Br    0.170155 0.796359 0.537834 -0.280417
Br2   Br    Br    0.820910 0.198197 0.487869 -0.323000
Br3   Br    Br    0.726819 0.570198 0.320064 -0.341684
Br4   Br    Br    0.310175 0.445044 0.752159 -0.405833
Br5   Br    Br    0.699652 0.544163 0.749628 -0.358786
Br6   Br    Br    0.703269 0.543103 0.971098 -0.282107
Br7   Br    Br    0.806906 0.767490 0.341813 -0.279863
Br8   Br    Br    0.713526 0.877783 0.592449 -0.429578
Br9   Br    Br    0.634747 0.223546 0.660466 -0.305453
Br10  Br    Br    0.356503 0.309267 0.347220 -0.378106
Br11  Br    Br    0.442945 0.062229 0.314140 -0.286588
C1    C     C_R   0.501026 0.499087 0.669728 0.608424
C2    C     C_R   0.816477 0.410443 0.485720 -0.002656
C3    C     C_R   0.429179 0.471050 0.904001 -0.064187
C4    C     C_R   0.700416 0.445297 0.493534 0.591135
C5    C     C_R   0.426171 0.472217 0.812010 0.132069
C6    C     C_R   0.504836 0.496495 0.766030 0.013747
C7    C     C_R   0.587490 0.517917 0.812616 0.152259
C8    C     C_R   0.589794 0.516675 0.905588 0.202688
C9    C     C_R   0.509710 0.493812 0.950723 0.007223
C10   C     C_R   0.481793 0.587779 0.089291 -0.108059
C11   C     C_R   0.477881 0.592092 0.181834 0.263968
C12   C     C_R   0.976128 0.459091 0.497659 -0.028578
C13   C     C_R   0.500232 0.501242 0.232191 0.048168
C14   C     C_R   0.525307 0.408432 0.189108 -0.124756
C15   C     C_R   0.528866 0.404653 0.096614 0.269471
C16   C     C_R   0.498918 0.500945 0.329577 0.594382
C17   C     C_R   0.507510 0.495043 0.047301 0.052948
C18   C     C_R   0.413183 0.920897 0.475883 0.300196
C19   C     C_R   0.417963 0.818909 0.463920 0.408133
C20   C     C_R   0.582271 0.762996 0.539937 0.061022
C21   C     C_R   0.587632 0.862228 0.541551 0.095603
C22   C     C_R   0.502741 0.943917 0.506941 0.050957
C23   C     C_R   0.870814 0.481157 0.467686 -0.028351
C24   C     C_R   0.540581 0.095101 0.574782 -0.097198
C25   C     C_R   0.547877 0.193216 0.569186 0.306121
C26   C     C_R   0.453289 0.221364 0.431926 0.289918
C27   C     C_R   0.466380 0.116608 0.427106 0.219176
C28   C     C_R   0.299346 0.554531 0.502582 0.574103
C29   C     C_R   0.504333 0.052508 0.502412 0.025423
C30   C     C_R   0.013643 0.712428 0.475354 0.293056
C31   C     C_R   0.183575 0.586645 0.501794 -0.024666
C32   C     C_R   0.875561 0.309244 0.508709 0.159308
C33   C     C_R   0.980523 0.287454 0.538431 0.285819
C34   C     C_R   0.026478 0.534242 0.489115 -0.025536
C35   C     C_R   0.027377 0.363264 0.536816 -0.034461
C36   C     C_R   0.967896 0.634004 0.462063 -0.013481
C37   C     C_R   0.870269 0.649198 0.417122 0.180667
C38   C     C_R   0.826066 0.569959 0.415075 0.189249
C39   C     C_R   0.134993 0.511347 0.501704 -0.126571
C40   C     C_R   0.120166 0.688251 0.498866 0.233769
Cu1   Cu    Cu3+1 0.500000 0.403570 0.500010 1.124652
Cu2   Cu    Cu3+1 0.500000 0.596430 0.499990 1.089491
H1    H     H_    0.464494 0.656762 0.049537 0.144123
H2    H     H_    0.264030 0.972217 0.443499 0.407352
H3    H     H_    0.368353 0.733326 0.387358 0.392656
H4    H     H_    0.886115 0.819206 0.491741 0.383823
H5    H     H_    0.994757 0.152754 0.585883 0.388318
H6    H     H_    0.543282 0.338453 0.227401 0.167610
H7    H     H_    0.646117 0.702517 0.569548 0.193631
H8    H     H_    0.567148 0.051356 0.635407 0.198081
H9    H     H_    0.183752 0.433791 0.506885 0.174211
H10   H     H_    0.105044 0.344295 0.566582 0.171621
H11   H     H_    0.367648 0.453819 0.939412 0.188955
H12   H     H_    0.438718 0.739029 0.178506 0.357473
H13   H     H_    0.566572 0.258083 0.097488 0.358261
N1    N     N_R   0.500000 0.741310 0.499980 -0.280248
N2    N     N_R   0.500060 0.258650 0.499980 -0.244068
O1    O     O_R   0.499990 0.418570 0.628550 -0.444086
O2    O     O_3   0.554034 0.314135 0.053144 -0.627219
O3    O     O_3   0.322473 0.999377 0.456641 -0.618278
O4    O     O_3   0.340324 0.800660 0.412336 -0.631631
O5    O     O_3   0.956460 0.813171 0.470981 -0.561865
O6    O     O_3   0.040519 0.193525 0.570736 -0.614736
O7    O     O_R   0.499990 0.581440 0.628540 -0.484639
O8    O     O_R   0.650980 0.378820 0.499990 -0.443816
O9    O     O_R   0.650980 0.541690 0.499970 -0.502519
O10   O     O_R   0.500010 0.418560 0.371460 -0.495858
O11   O     O_R   0.500010 0.581430 0.371450 -0.453071
O12   O     O_R   0.349020 0.458310 0.500030 -0.482275
O13   O     O_R   0.349020 0.621180 0.500010 -0.481019
O14   O     O_3   0.451489 0.683697 0.223599 -0.634022

loop_
_geom_bond_atom_site_label_1
_geom_bond_atom_site_label_2
_ccdc_geom_bond_type
C1    O1    A    
C12   C34   A    
C24   C25   A    
C13   C16   S    
C16   O10   A    
Br3   C38   S    
H13   O2    S    
C20   N1    A    
Br6   C8    S    
C26   C27   A    
Br10  C26   S    
C11   O14   S    
Cu2   O11   S    
C16   O11   A    
C10   H1    S    
C26   N2    A    
C18   C22   A    
Cu2   O13   S    
C7    C8    A    
H4    O5    S    
Cu1   O1    S    
C20   C21   A    
C5    C6    A    
H3    O4    S    
C1    C6    S    
Br9   C25   S    
C19   N1    A    
Cu1   N2    S    
C31   C40   A    
C4    O8    A    
C12   C35   A    
C10   C11   A    
Cu2   O7    S    
Cu1   O10   S    
C33   C35   A    
C28   C31   S    
C34   C36   A    
C22   C29   S    
Br8   C21   S    
C3    C9    A    
C28   O12   A    
C13   C14   A    
C28   O13   A    
Br5   C7    S    
C9    C17   S    
C14   C15   A    
C20   H7    S    
Br4   C5    S    
Br11  C27   S    
Cu2   O9    S    
C32   C33   A    
C18   C19   A    
C36   C37   A    
Br2   C32   S    
C12   C23   A    
C3    H11   S    
C6    C7    A    
C30   C36   A    
C24   H8    S    
C33   O6    S    
Br1   C40   S    
C31   C39   A    
C37   C38   A    
C10   C17   A    
C2    C4    S    
C39   H9    S    
C11   C13   A    
C2    C32   A    
Cu1   Cu2   S    
H5    O6    S    
C23   C38   A    
Cu1   O8    S    
C19   O4    S    
C25   N2    A    
C15   C17   A    
C35   H10   S    
C21   C22   A    
C8    C9    A    
C24   C29   A    
C2    C23   A    
Br7   C37   S    
C27   C29   A    
H12   O14   S    
C4    O9    A    
C34   C39   A    
C15   O2    S    
C3    C5    A    
Cu2   N1    S    
C30   O5    S    
C1    O7    A    
C14   H6    S    
Cu1   O12   S    
C30   C40   A    
H2    O3    S    
C18   O3    S    
