data_mof_unit_26221.cif
_audit_creation_date              2012-10-26T19:48:10-0400
_audit_creation_method            fapswitch 2.2
_symmetry_space_group_name_H-M    P1
_symmetry_Int_Tables_number       1
_space_group_crystal_system       triclinic
_cell_length_a                    11.713876
_cell_length_b                    9.82431
_cell_length_c                    10.622894
_cell_angle_alpha                 90.199837
_cell_angle_beta                  89.479719
_cell_angle_gamma                 88.051647
_cell_volume                      1221.72466474

loop_
_atom_site_label
_atom_site_type_symbol
_atom_type_description
_atom_site_fract_x
_atom_site_fract_y
_atom_site_fract_z
_atom_type_partial_charge
C1    C     C_R   0.260648 0.501833 0.510022 0.642726
C2    C     C_3   0.943840 0.470891 0.373621 0.121686
C3    C     C_3   0.609367 0.072817 0.463466 -0.107660
C4    C     C_3   0.606062 0.911690 0.453353 -0.083571
C5    C     C_3   0.470475 0.082638 0.627165 -0.102027
C6    C     C_3   0.484150 0.920399 0.630189 -0.104829
C7    C     C_3   0.424619 0.085513 0.406375 -0.116435
C8    C     C_3   0.415785 0.924316 0.415400 -0.108022
C9    C     C_R   0.499180 0.499796 0.261090 0.542624
C10   C     C_R   0.740104 0.498847 0.501363 0.623471
C11   C     C_R   0.497660 0.500194 0.739372 0.656101
C12   C     C_3   0.498355 0.499333 0.124249 0.070649
C13   C     C_3   0.434862 0.603583 0.042502 0.063663
C14   C     C_3   0.454261 0.386315 0.040955 0.060573
C15   C     C_3   0.387572 0.490186 0.959939 -0.095438
C16   C     C_3   0.495849 0.499992 0.876897 0.040583
C17   C     C_3   0.541025 0.616754 0.958040 -0.062691
C18   C     C_3   0.560887 0.392124 0.956591 -0.076136
C19   C     C_3   0.605550 0.508887 0.040065 -0.127980
C20   C     C_3   0.067096 0.644965 0.590706 0.287724
C21   C     C_3   0.072570 0.362770 0.589947 0.352475
C22   C     C_3   0.924012 0.656844 0.557088 0.302375
C23   C     C_3   0.929776 0.380935 0.609661 0.278138
C24   C     C_3   0.072817 0.508688 0.388038 -0.220767
C25   C     C_3   0.122166 0.504321 0.525837 -0.119013
C26   C     C_3   0.879351 0.500431 0.511895 -0.059217
Cu1   Cu    Cu3+1 0.499860 0.642410 0.500060 1.067561
Cu2   Cu    Cu3+1 0.499860 0.357590 0.500060 1.032673
H1    H     H_    0.296893 0.480780 0.934593 0.229595
H2    H     H_    0.453785 0.111935 0.309565 0.134620
H3    H     H_    0.422705 0.878337 0.319623 0.145044
H4    H     H_    0.382580 0.114517 0.655365 0.205113
H5    H     H_    0.412242 0.877118 0.681847 0.188456
H6    H     H_    0.574957 0.713785 0.922782 0.159885
H7    H     H_    0.609999 0.300987 0.921288 0.164926
H8    H     H_    0.694691 0.516356 0.072749 0.137874
H9    H     H_    0.083981 0.606956 0.349622 0.230995
H10   H     H_    0.128125 0.462448 0.314527 0.161654
H11   H     H_    0.811473 0.520541 0.251313 0.233431
H12   H     H_    0.670525 0.085974 0.534122 0.241903
H13   H     H_    0.942759 0.532455 0.185979 0.264473
H14   H     H_    0.004754 0.314175 0.258580 0.263819
H15   H     H_    0.869215 0.315482 0.274043 0.205845
H16   H     H_    0.332429 0.771103 0.013926 0.238103
H17   H     H_    0.298332 0.680639 0.141731 0.263464
H18   H     H_    0.383142 0.204178 0.008353 0.234438
H19   H     H_    0.332919 0.285753 0.137385 0.262038
H20   H     H_    0.166711 0.891822 0.345941 0.362856
H21   H     H_    0.061366 0.087316 0.328207 0.352929
H22   H     H_    0.177788 0.851619 0.855525 0.338746
H23   H     H_    0.675982 0.864092 0.505159 0.262945
H24   H     H_    0.195563 0.119942 0.829941 0.335834
H25   H     H_    0.755394 0.932955 0.748558 0.355855
H26   H     H_    0.840445 0.268894 0.930645 0.340551
H27   H     H_    0.777606 0.794412 0.254779 0.364477
H28   H     H_    0.779774 0.219537 0.410662 0.329743
H29   H     H_    0.637348 0.112205 0.370735 0.115392
H30   H     H_    0.615444 0.884940 0.352187 0.153623
H31   H     H_    0.526424 0.124223 0.700871 0.141297
H32   H     H_    0.558735 0.891981 0.689782 0.121950
H33   H     H_    0.342920 0.135021 0.410607 0.241213
H34   H     H_    0.331168 0.908874 0.444042 0.232088
N1    N     N_3   0.500250 0.143650 0.502780 -0.278567
N2    N     N_3   0.500250 0.856350 0.502780 -0.277756
N3    N     N_3   0.895013 0.549568 0.268760 -0.519452
N4    N     N_3   0.941905 0.330788 0.328048 -0.520199
N5    N     N_3   0.366947 0.719318 0.091230 -0.611366
N6    N     N_3   0.407628 0.260077 0.086925 -0.620092
O1    O     O_R   0.317570 0.620260 0.500070 -0.423050
O2    O     O_2   0.238782 0.831109 0.600943 -0.254681
O3    O     O_3   0.175917 0.796766 0.375389 -0.573772
O4    O     O_2   0.188414 0.260914 0.367076 -0.422974
O5    O     O_2   0.201972 0.120829 0.550880 -0.221567
O6    O     O_3   0.032221 0.109571 0.413918 -0.345132
O7    O     O_2   0.080924 0.609444 0.873466 -0.179791
O8    O     O_2   0.249710 0.629451 0.751999 -0.319786
O9    O     O_3   0.115959 0.837612 0.794258 -0.373019
O10   O     O_2   0.268894 0.338968 0.734156 -0.333120
O11   O     O_2   0.099047 0.371452 0.860465 -0.203747
O12   O     O_R   0.317570 0.379740 0.500070 -0.424148
O13   O     O_3   0.134377 0.142741 0.768965 -0.373504
O14   O     O_2   0.733658 0.671240 0.724907 -0.284498
O15   O     O_2   0.904994 0.757854 0.812273 -0.150073
O16   O     O_3   0.796096 0.904572 0.670073 -0.453297
O17   O     O_2   0.904062 0.516782 0.855892 -0.178082
O18   O     O_2   0.742872 0.422983 0.765280 -0.283239
O19   O     O_3   0.895765 0.263080 0.859554 -0.407304
O20   O     O_2   0.866898 0.919139 0.460538 -0.123885
O21   O     O_2   0.976618 0.789425 0.316532 -0.267800
O22   O     O_3   0.771223 0.743294 0.334786 -0.560411
O23   O     O_R   0.499850 0.620240 0.316900 -0.504506
O24   O     O_2   0.946749 0.110757 0.650873 -0.018772
O25   O     O_2   0.758604 0.200166 0.668825 -0.280442
O26   O     O_3   0.837625 0.159747 0.447163 -0.459439
O27   O     O_R   0.499850 0.379760 0.316900 -0.523818
O28   O     O_R   0.682190 0.620260 0.500030 -0.423968
O29   O     O_R   0.682190 0.379740 0.500030 -0.512518
O30   O     O_R   0.499910 0.620280 0.683200 -0.489994
O31   O     O_R   0.499910 0.379720 0.683200 -0.481093
O32   O     O_2   0.055470 0.914066 0.556901 -0.054204
S1    S     S_3+6 0.134808 0.798003 0.528117 0.123233
S2    S     S_3+6 0.123165 0.214815 0.480129 0.089099
S3    S     S_3+6 0.125074 0.670140 0.756253 0.133895
S4    S     S_3+6 0.144262 0.310571 0.741130 0.116668
S5    S     S_3+6 0.840429 0.742954 0.692964 0.129689
S6    S     S_3+6 0.870118 0.405145 0.773651 0.114983
S7    S     S_3+6 0.888079 0.777802 0.417579 0.076233
S8    S     S_3+6 0.866414 0.212677 0.592593 0.174856

loop_
_geom_bond_atom_site_label_1
_geom_bond_atom_site_label_2
_ccdc_geom_bond_type
Cu2   O29   S    
O7    S3    D    
Cu1   O30   S    
C14   C18   S    
C2    N3    S    
C9    O23   A    
O2    S1    D    
C7    C8    S    
C20   S3    S    
H28   O26   S    
O26   S8    S    
C11   O30   A    
O22   S7    S    
H27   O22   S    
C19   H8    S    
O25   S8    D    
H26   O19   S    
C23   C26   S    
C20   C25   S    
C22   S7    S    
C5    N1    S    
C11   O31   A    
C18   C19   S    
O14   S5    D    
C6    N2    S    
C7    H33   S    
C21   S4    S    
O24   S8    D    
C16   C17   S    
H17   N5    S    
C24   H10   S    
Cu1   O23   S    
Cu2   O27   S    
C18   H7    S    
C9    O27   A    
Cu1   O1    S    
O6    S2    S    
C5    H4    S    
C10   C26   S    
O8    S3    D    
O3    S1    S    
C7    H2    S    
C1    C25   S    
H11   N3    S    
Cu1   O28   S    
O18   S6    D    
C15   H1    S    
C5    H31   S    
C4    H23   S    
O10   S4    D    
C6    H32   S    
C24   C25   S    
C24   H9    S    
O20   S7    D    
H13   N3    S    
C20   S1    S    
C23   S6    S    
C1    O1    A    
C3    C4    S    
O15   S5    D    
C10   O29   A    
H18   N6    S    
C11   C16   S    
C10   O28   A    
O21   S7    D    
O16   S5    S    
C2    C26   S    
C7    N1    S    
C8    N2    S    
C21   S2    S    
C3    H29   S    
Cu2   O31   S    
O5    S2    D    
C20   C22   S    
C3    H12   S    
C21   C23   S    
C2    C24   S    
O11   S4    D    
O9    S3    S    
C17   H6    S    
H20   O3    S    
O17   S6    D    
H22   O9    S    
H19   N6    S    
C13   N5    S    
C21   C25   S    
H25   O16   S    
C14   C15   S    
C8    H3    S    
C12   C14   S    
C2    N4    S    
C3    N1    S    
C22   S5    S    
C4    N2    S    
C6    H5    S    
C13   C17   S    
C13   C15   S    
C5    C6    S    
O19   S6    S    
O4    S2    D    
H15   N4    S    
C23   S8    S    
C12   C19   S    
O32   S1    D    
C17   C19   S    
H24   O13   S    
Cu2   O12   S    
C9    C12   S    
Cu1   N2    S    
Cu2   N1    S    
C12   C13   S    
C16   C18   S    
C22   C26   S    
C4    H30   S    
Cu1   Cu2   S    
H14   N4    S    
C1    O12   A    
C14   N6    S    
H21   O6    S    
H16   N5    S    
C15   C16   S    
C8    H34   S    
O13   S4    S    
