data_mof_unit_65864.cif
_audit_creation_date              2012-12-10T19:19:26-0500
_audit_creation_method            fapswitch 2.2
_symmetry_space_group_name_H-M    P1
_symmetry_Int_Tables_number       1
_space_group_crystal_system       triclinic
_cell_length_a                    16.0293
_cell_length_b                    14.763929
_cell_length_c                    23.526483
_cell_angle_alpha                 89.929706
_cell_angle_beta                  90.199745
_cell_angle_gamma                 89.926361
_cell_volume                      5567.62770047

loop_
_atom_site_label
_atom_site_type_symbol
_atom_type_description
_atom_site_fract_x
_atom_site_fract_y
_atom_site_fract_z
_atom_type_partial_charge
C1    C     C_R   0.340982 0.500082 0.500019 0.852982
C2    C     C_R   0.659019 0.499918 0.499980 0.852970
C3    C     C_R   0.566796 0.463400 0.238945 0.181850
C4    C     C_R   0.433183 0.536613 0.761049 0.181827
C5    C     C_R   0.567544 0.463071 0.298694 0.057943
C6    C     C_R   0.432441 0.536933 0.701300 0.057955
C7    C     C_R   0.499538 0.500342 0.328589 -0.198933
C8    C     C_R   0.500452 0.499659 0.671410 -0.198936
C9    C     C_R   0.431184 0.538208 0.298974 0.060424
C10   C     C_R   0.568803 0.461798 0.701031 0.060413
C11   C     C_R   0.430976 0.538638 0.239253 0.174076
C12   C     C_R   0.569005 0.461379 0.760752 0.174095
C13   C     C_R   0.498627 0.501223 0.209541 0.171594
C14   C     C_R   0.501352 0.498800 0.790459 0.171602
C15   C     C_R   0.955561 0.543911 0.455488 -0.025326
C16   C     C_R   0.044438 0.456110 0.544517 -0.025359
C17   C     C_R   0.043853 0.544976 0.455940 -0.033539
C18   C     C_R   0.956146 0.455017 0.544054 -0.033553
C19   C     C_R   0.912614 0.497564 0.499021 -0.047193
C20   C     C_R   0.087386 0.502440 0.500978 -0.047194
C21   C     C_1   0.822636 0.498616 0.499425 -0.081531
C22   C     C_1   0.177365 0.501387 0.500573 -0.081542
C23   C     C_1   0.252193 0.500510 0.500269 -0.112245
C24   C     C_1   0.747808 0.499491 0.499729 -0.112257
C25   C     C_R   0.499969 0.500071 0.390863 0.881817
C26   C     C_R   0.500029 0.499929 0.609137 0.881821
C27   C     C_R   0.555267 0.951954 0.534938 -0.125372
C28   C     C_R   0.444729 0.048046 0.465063 -0.125372
C29   C     C_R   0.444716 0.952243 0.465068 -0.123348
C30   C     C_R   0.555280 0.047757 0.534932 -0.123350
C31   C     C_R   0.499986 0.902864 0.500006 0.031361
C32   C     C_R   0.500011 0.097136 0.499994 0.031362
C33   C     C_1   0.499988 0.802723 0.500003 0.174068
C34   C     C_1   0.500011 0.197277 0.499997 0.174065
C35   C     C_R   0.537166 0.569112 0.879593 0.616316
C36   C     C_R   0.462793 0.430932 0.120405 0.616342
C37   C     C_R   0.466395 0.427423 0.879473 0.591286
C38   C     C_R   0.533570 0.572617 0.120529 0.591264
C39   C     C_R   0.463364 0.426094 0.939738 -0.068440
C40   C     C_R   0.536575 0.573966 0.060263 -0.068488
C41   C     C_R   0.501477 0.498758 0.969874 -0.009003
C42   C     C_R   0.498462 0.501303 0.030126 -0.009003
C43   C     C_R   0.542953 0.568726 0.939617 -0.059629
C44   C     C_R   0.456987 0.431335 0.060382 -0.059594
C45   C     C_R   0.420662 0.357154 0.970357 -0.083997
C46   C     C_R   0.579248 0.642926 0.029643 -0.083963
C47   C     C_R   0.413817 0.362534 0.030037 -0.083691
C48   C     C_R   0.586100 0.637544 0.969963 -0.083685
Cu1   Cu    Cu3+1 0.500000 0.589220 0.500000 1.039621
Cu2   Cu    Cu3+1 0.500000 0.410780 0.500000 1.039621
H1    H     H_    0.598639 0.083334 0.562331 0.153826
H2    H     H_    0.401357 0.916666 0.437669 0.153828
H3    H     H_    0.401375 0.083849 0.437661 0.151855
H4    H     H_    0.598621 0.916151 0.562340 0.151856
N1    N     N_R   0.501962 0.498236 0.851529 -0.443553
N2    N     N_R   0.498008 0.501799 0.148471 -0.443557
N3    N     N_1   0.500000 0.276710 0.500000 -0.139259
N4    N     N_1   0.500000 0.723290 0.500000 -0.139257
O1    O     O_R   0.380310 0.575320 0.500010 -0.557445
O2    O     O_R   0.619690 0.424680 0.499990 -0.557449
O3    O     O_R   0.619690 0.575320 0.499990 -0.572932
O4    O     O_R   0.380310 0.424680 0.500010 -0.572931
O5    O     O_R   0.499980 0.575360 0.417880 -0.560325
O6    O     O_R   0.500020 0.424640 0.582120 -0.560325
O7    O     O_R   0.500020 0.575360 0.582120 -0.557705
O8    O     O_R   0.499980 0.424640 0.417880 -0.557704
O9    O     O_2   0.563713 0.640685 0.848940 -0.490506
O10   O     O_2   0.436255 0.359351 0.151054 -0.490498
O11   O     O_2   0.432662 0.360187 0.848249 -0.515706
O12   O     O_2   0.567331 0.639835 0.151754 -0.515677
C49   C     C_2   0.381688 0.278836 0.940786 0.444435
H5    H     H_    0.420117 0.232687 0.916309 0.116627
O13   O     O_2   0.306502 0.266254 0.943168 -0.472847
C50   C     C_2   0.618163 0.721281 0.059212 0.444438
H6    H     H_    0.579704 0.767374 0.083709 0.116625
O14   O     O_2   0.693335 0.733954 0.056812 -0.472879
C51   C     C_2   0.358094 0.296923 0.059294 0.591881
H7    H     H_    0.365146 0.224764 0.051939 0.053413
O15   O     O_2   0.301205 0.323686 0.089342 -0.441479
C52   C     C_2   0.641799 0.703179 0.940707 0.591942
H8    H     H_    0.634699 0.775337 0.948043 0.053436
O16   O     O_2   0.698720 0.676439 0.910679 -0.441464
I1    I     I_    0.667649 0.407589 0.191203 -0.140598
I2    I     I_    0.332321 0.592424 0.808783 -0.140631
I3    I     I_    0.673093 0.410555 0.344097 -0.255741
I4    I     I_    0.326895 0.589438 0.655890 -0.255775
I5    I     I_    0.326754 0.591212 0.344695 -0.250556
I6    I     I_    0.673237 0.408785 0.655318 -0.250471
I7    I     I_    0.329386 0.595070 0.191927 -0.126504
I8    I     I_    0.670589 0.404953 0.808087 -0.126462
C53   C     C_2   0.092150 0.586475 0.408578 0.506108
H9    H     H_    0.150432 0.621113 0.417358 0.082631
O17   O     O_2   0.069394 0.578751 0.359240 -0.457216
C54   C     C_2   0.907840 0.413476 0.591399 0.506139
H10   H     H_    0.849590 0.378793 0.582596 0.082589
O18   O     O_2   0.930549 0.421221 0.640746 -0.457178
C55   C     C_2   0.906657 0.594240 0.411571 0.493839
H11   H     H_    0.847648 0.567483 0.396349 0.085454
O19   O     O_2   0.929716 0.667898 0.394016 -0.478869
C56   C     C_2   0.093345 0.405838 0.588458 0.493804
H12   H     H_    0.152338 0.432636 0.603681 0.085479
O20   O     O_2   0.070306 0.332186 0.606036 -0.478843

loop_
_geom_bond_atom_site_label_1
_geom_bond_atom_site_label_2
_ccdc_geom_bond_type
C38   C40   A    
C30   H1    S    
C38   O12   S    
C33   N4    T    
Cu1   O5    S    
C37   O11   S    
C45   C49   S    
Cu2   O6    S    
C41   C42   A    
C17   C53   S    
C1    O4    A    
C55   H11   S    
C27   H4    S    
C39   C41   A    
C51   H7    S    
C40   C46   A    
C10   I6    S    
C50   O14   D    
C12   I8    S    
C28   C29   A    
C19   C21   S    
C1    O1    A    
C2    O2    A    
C17   C20   A    
C8    C26   S    
C15   C17   A    
C18   C19   A    
C25   O5    A    
C3    I1    S    
C26   O6    A    
Cu1   O7    S    
C34   N3    T    
C31   C33   S    
C35   C43   A    
C43   C48   A    
C3    C13   A    
C44   C47   A    
Cu1   O1    S    
C39   C45   A    
C13   N2    S    
C5    I3    S    
C26   O7    A    
C51   O15   D    
C14   N1    S    
C27   C30   A    
C29   C31   A    
C41   C43   A    
C42   C44   A    
C15   C55   S    
C55   O19   D    
C45   C47   A    
C46   C48   A    
Cu1   O3    S    
C50   H6    S    
C27   C31   A    
C28   C32   A    
C4    C6    A    
C53   H9    S    
C49   O13   D    
C16   C56   S    
C6    C8    A    
C35   N1    A    
Cu1   N4    S    
C32   C34   S    
C15   C19   A    
C36   N2    A    
C53   O17   D    
C9    C11   A    
C11   I7    S    
C4    I2    S    
C35   O9    S    
C16   C20   A    
C36   O10   S    
C56   O20   D    
C54   O18   D    
Cu2   O8    S    
C10   C12   A    
C52   O16   D    
C12   C14   A    
C1    C23   S    
C2    C24   S    
C18   C54   S    
C36   C44   A    
C47   C51   S    
C46   C50   S    
C5    C7    A    
C7    C9    A    
Cu2   N3    S    
C8    C10   A    
C25   O8    A    
C20   C22   S    
C52   H8    S    
C3    C5    A    
C6    I4    S    
C28   H3    S    
C2    O3    A    
C7    C25   S    
Cu2   O2    S    
C48   C52   S    
C49   H5    S    
C37   C39   A    
C9    I5    S    
C30   C32   A    
C11   C13   A    
Cu2   O4    S    
C40   C42   A    
C56   H12   S    
C4    C14   A    
C54   H10   S    
C37   N1    A    
C38   N2    A    
C16   C18   A    
Cu1   Cu2   S    
C21   C24   T    
C22   C23   T    
C29   H2    S    
