data_mof_unit_32943.cif
_audit_creation_date              2012-12-10T16:37:23-0500
_audit_creation_method            fapswitch 2.2
_symmetry_space_group_name_H-M    P1
_symmetry_Int_Tables_number       1
_space_group_crystal_system       triclinic
_cell_length_a                    16.911548
_cell_length_b                    16.841177
_cell_length_c                    16.79965
_cell_angle_alpha                 66.690311
_cell_angle_beta                  65.915648
_cell_angle_gamma                 65.674776
_cell_volume                      3828.50980958

loop_
_atom_site_label
_atom_site_type_symbol
_atom_type_description
_atom_site_fract_x
_atom_site_fract_y
_atom_site_fract_z
_atom_type_partial_charge
C1    C     C_R   0.407853 0.103716 0.627656 0.447029
C2    C     C_R   0.403192 0.664326 0.047903 0.424045
C3    C     C_R   0.949569 0.596728 0.339006 0.440100
C4    C     C_R   0.050261 0.403323 0.661001 0.440073
C5    C     C_R   0.970184 0.178373 0.435061 0.932778
C6    C     C_R   0.029787 0.821631 0.564950 0.932749
C7    C     C_R   0.179606 0.437370 0.962408 0.927373
C8    C     C_R   0.820394 0.562629 0.037593 0.927303
C9    C     C_R   0.438723 0.960925 0.179102 0.912850
C10   C     C_R   0.561275 0.039080 0.820898 0.912840
C11   C     C_R   0.562184 0.820844 0.037664 0.916879
C12   C     C_R   0.592140 0.896347 0.372317 0.446944
C13   C     C_R   0.437815 0.179156 0.962337 0.916878
C14   C     C_R   0.029599 0.564912 0.821816 0.930325
C15   C     C_R   0.970381 0.435095 0.178186 0.930345
C16   C     C_R   0.823278 0.021761 0.569179 0.943941
C17   C     C_R   0.176720 0.978241 0.430820 0.944006
C18   C     C_R   0.450270 0.097590 0.686879 -0.152552
C19   C     C_R   0.549719 0.902461 0.313105 -0.152517
C20   C     C_R   0.067356 0.702897 0.448895 -0.172623
C21   C     C_R   0.932420 0.297163 0.551169 -0.172694
C22   C     C_R   0.705717 0.447599 0.065386 -0.170941
C23   C     C_R   0.054549 0.657913 0.402874 0.426411
C24   C     C_R   0.294279 0.552399 0.934629 -0.170925
C25   C     C_R   0.264666 0.051088 0.497784 -0.190209
C26   C     C_R   0.735317 0.948938 0.502205 -0.190263
C27   C     C_R   0.552439 0.292290 0.935802 -0.162923
C28   C     C_R   0.447555 0.707708 0.064216 -0.162929
C29   C     C_R   0.934068 0.551153 0.295693 -0.164338
C30   C     C_R   0.065781 0.448885 0.704314 -0.164351
C31   C     C_R   0.545950 0.007251 0.549781 -0.039957
C32   C     C_R   0.454029 0.992789 0.450215 -0.039949
C33   C     C_R   0.022681 0.541450 0.541786 -0.044750
C34   C     C_R   0.945215 0.342141 0.597189 0.426307
C35   C     C_R   0.977056 0.458626 0.458282 -0.044733
C36   C     C_R   0.542303 0.542590 0.022048 -0.051476
C37   C     C_R   0.457688 0.457406 0.977974 -0.051471
C38   C     C_R   0.596339 0.966705 0.476710 -0.009413
C39   C     C_R   0.403637 0.033348 0.523279 -0.009413
C40   C     C_R   0.014667 0.452938 0.586287 -0.015834
C41   C     C_R   0.985091 0.547130 0.413769 -0.015835
C42   C     C_R   0.453158 0.587556 0.013745 -0.012368
C43   C     C_R   0.546832 0.412439 0.986279 -0.012371
C44   C     C_R   0.549475 0.954065 0.430692 -0.017736
C45   C     C_R   0.660396 0.402411 0.052555 0.426515
C46   C     C_R   0.450505 0.045987 0.569296 -0.017734
C47   C     C_R   0.414203 0.547897 0.983485 -0.003311
C48   C     C_R   0.585787 0.452099 0.016539 -0.003321
C49   C     C_R   0.982711 0.415136 0.547777 -0.011017
C50   C     C_R   0.017025 0.584939 0.452291 -0.011046
C51   C     C_R   0.543138 0.053745 0.673105 -0.040971
C52   C     C_R   0.456848 0.946284 0.326892 -0.040981
C53   C     C_R   0.046647 0.674091 0.544123 -0.040210
C54   C     C_R   0.953146 0.325967 0.455930 -0.040108
C55   C     C_R   0.673844 0.542239 0.051754 -0.028850
C56   C     C_R   0.339595 0.597585 0.947467 0.426505
C57   C     C_R   0.326152 0.457760 0.948258 -0.028845
C58   C     C_R   0.312881 0.006444 0.428853 -0.039662
C59   C     C_R   0.687108 0.993572 0.571147 -0.039639
C60   C     C_R   0.458134 0.325407 0.948097 -0.036354
C61   C     C_R   0.541861 0.674591 0.051917 -0.036353
C62   C     C_R   0.953405 0.456062 0.325465 -0.041288
C63   C     C_R   0.046426 0.543980 0.674568 -0.041225
C64   C     C_R   0.591154 0.059472 0.722038 -0.175926
C65   C     C_R   0.408838 0.940545 0.277961 -0.175920
C66   C     C_R   0.034639 0.727024 0.599325 -0.180481
C67   C     C_R   0.307944 0.053453 0.551195 0.427240
C68   C     C_R   0.965260 0.273002 0.400705 -0.180478
C69   C     C_R   0.720924 0.591491 0.060078 -0.185974
C70   C     C_R   0.279075 0.408509 0.939927 -0.185976
C71   C     C_R   0.271060 0.974874 0.392657 -0.177290
C72   C     C_R   0.728935 0.025134 0.607343 -0.177286
C73   C     C_R   0.409415 0.278289 0.939426 -0.175123
C74   C     C_R   0.590584 0.721711 0.060581 -0.175129
C75   C     C_R   0.965331 0.400784 0.272771 -0.174687
C76   C     C_R   0.034583 0.599239 0.727247 -0.174693
C77   C     C_R   0.677723 0.064797 0.678532 0.316097
C78   C     C_R   0.692031 0.946614 0.448782 0.427251
C79   C     C_R   0.322274 0.935211 0.321469 0.316090
C80   C     C_R   0.010757 0.692259 0.692318 0.292373
C81   C     C_R   0.989179 0.307765 0.307708 0.292401
C82   C     C_R   0.673935 0.675234 0.077355 0.310796
C83   C     C_R   0.326065 0.324768 0.922648 0.310789
C84   C     C_R   0.592050 0.017379 0.598253 0.065380
C85   C     C_R   0.407935 0.982647 0.401747 0.065385
C86   C     C_R   0.037860 0.586616 0.586937 0.070251
C87   C     C_R   0.961907 0.413450 0.413123 0.070272
C88   C     C_R   0.586296 0.586731 0.041176 0.061892
C89   C     C_R   0.596799 0.335670 0.952121 0.424038
C90   C     C_R   0.413698 0.413267 0.958840 0.061894
Cl1   Cl    Cl    0.321505 0.206162 0.604792 -0.472579
Cl2   Cl    Cl    0.284045 0.695090 0.094110 -0.425221
Cl3   Cl    Cl    0.905505 0.715952 0.308551 -0.397977
Cl4   Cl    Cl    0.094454 0.284104 0.691327 -0.397979
Cl5   Cl    Cl    0.715069 0.129592 0.710208 -0.536571
Cl6   Cl    Cl    0.284935 0.870408 0.289796 -0.536555
Cl7   Cl    Cl    0.931480 0.764196 0.763831 -0.533216
Cl8   Cl    Cl    0.068538 0.235836 0.236209 -0.533256
Cl9   Cl    Cl    0.715175 0.717739 0.129430 -0.537805
Cl10  Cl    Cl    0.284828 0.282264 0.870568 -0.537798
Cl11  Cl    Cl    0.678572 0.793943 0.395101 -0.472651
Cl12  Cl    Cl    0.106738 0.681205 0.284844 -0.429811
Cl13  Cl    Cl    0.893186 0.318706 0.715251 -0.429767
Cl14  Cl    Cl    0.683766 0.284831 0.106526 -0.491237
Cl15  Cl    Cl    0.316223 0.715167 0.893502 -0.491311
Cl16  Cl    Cl    0.239994 0.053014 0.664020 -0.435090
Cl17  Cl    Cl    0.759949 0.947194 0.335909 -0.435066
Cl18  Cl    Cl    0.715946 0.304904 0.905920 -0.425252
H1    H     H_    0.414689 0.139626 0.733330 0.213774
H2    H     H_    0.405427 0.762658 0.095090 0.222221
H3    H     H_    0.903842 0.591891 0.241230 0.222596
H4    H     H_    0.096060 0.408134 0.758735 0.222592
H5    H     H_    0.585312 0.860436 0.266642 0.213782
H6    H     H_    0.097706 0.757012 0.408609 0.225360
H7    H     H_    0.902261 0.242917 0.591474 0.225402
H8    H     H_    0.760214 0.406273 0.095735 0.202783
H9    H     H_    0.239784 0.593727 0.904276 0.202786
H10   H     H_    0.191979 0.080022 0.516385 0.207601
H11   H     H_    0.808005 0.920006 0.483585 0.207591
H12   H     H_    0.594570 0.237343 0.904924 0.222225
O1    O     O_R   0.982940 0.138950 0.510160 -0.652453
O2    O     O_R   0.982940 0.510160 0.138950 -0.640413
O3    O     O_R   0.861050 0.017060 0.489840 -0.647881
O4    O     O_R   0.138950 0.982940 0.510160 -0.647881
O5    O     O_R   0.867700 0.025880 0.612340 -0.551490
O6    O     O_R   0.132300 0.974120 0.387660 -0.551471
O7    O     O_R   0.025880 0.612340 0.867700 -0.570441
O8    O     O_R   0.974120 0.387660 0.132300 -0.570461
O9    O     O_R   0.612340 0.867700 0.025880 -0.558474
O10   O     O_R   0.387660 0.132300 0.974120 -0.558484
O11   O     O_R   0.387660 0.974120 0.132300 -0.564295
O12   O     O_R   0.017060 0.861050 0.489840 -0.652441
O13   O     O_R   0.612340 0.025880 0.867700 -0.564288
O14   O     O_R   0.132300 0.387660 0.974120 -0.544574
O15   O     O_R   0.867700 0.612340 0.025880 -0.544585
O16   O     O_R   0.974120 0.132300 0.387660 -0.561362
O17   O     O_R   0.025880 0.867700 0.612340 -0.561350
O18   O     O_R   0.138950 0.510160 0.982940 -0.646484
O19   O     O_R   0.861050 0.489840 0.017060 -0.646500
O20   O     O_R   0.510160 0.982940 0.138950 -0.623334
O21   O     O_R   0.489840 0.017060 0.861050 -0.623324
O22   O     O_R   0.489840 0.861050 0.017060 -0.641825
O23   O     O_R   0.510160 0.138950 0.982940 -0.641823
O24   O     O_R   0.017060 0.489840 0.861050 -0.640434
Zn1   Zn    Zn3+2 0.004880 0.004880 0.583590 1.137130
Zn2   Zn    Zn3+2 0.995120 0.995120 0.416410 1.137136
Zn3   Zn    Zn3+2 0.004880 0.583590 0.004880 1.135036
Zn4   Zn    Zn3+2 0.995120 0.416410 0.995120 1.134995
Zn5   Zn    Zn3+2 0.583590 0.004880 0.004880 1.140164
Zn6   Zn    Zn3+2 0.416410 0.995120 0.995120 1.140135

loop_
_geom_bond_atom_site_label_1
_geom_bond_atom_site_label_2
_ccdc_geom_bond_type
C5    O16   A    
C15   C75   S    
C65   C79   A    
C15   O2    A    
C80   Cl7   S    
C64   C77   A    
C36   C42   A    
C16   C72   S    
C10   O13   A    
O24   Zn4   S    
C25   H10   S    
C7    C70   S    
C71   C79   A    
O6    Zn2   S    
C27   H12   S    
C36   C88   A    
C38   C44   A    
C24   H9    S    
C43   C89   A    
C37   C90   A    
C8    O19   A    
C68   C81   A    
O17   Zn1   S    
C52   C85   A    
C45   Cl14  S    
C16   O3    A    
C35   C49   A    
C27   C60   A    
C54   C87   A    
C9    O20   A    
C17   O6    A    
C23   Cl12  S    
C54   C68   A    
C81   Cl8   S    
C19   H5    S    
C40   C49   A    
C5    O1    A    
C60   C73   A    
C12   C19   A    
C82   Cl9   S    
C32   C39   A    
C55   C88   A    
C3    C29   A    
C1    C18   A    
C69   C82   A    
C35   C87   A    
C19   C52   A    
C4    C40   A    
C24   C57   A    
C31   C46   A    
C25   C67   A    
O10   Zn6   S    
C13   O10   A    
C18   H1    S    
C27   C89   A    
C53   C86   A    
C57   C70   A    
C37   C47   A    
C43   C48   A    
C21   H7    S    
C59   C72   A    
C28   C61   A    
C22   H8    S    
C1    Cl1   S    
C30   C63   A    
C8    O15   A    
C74   C82   A    
C5    C68   S    
C11   O9    A    
O21   Zn6   S    
C9    O11   A    
C79   Cl6   S    
C14   O24   A    
O19   Zn4   S    
C33   C40   A    
C57   C90   A    
C62   C87   A    
O13   Zn5   S    
C59   C84   A    
C7    O14   A    
C6    O12   A    
C8    C69   S    
O8    Zn4   S    
C23   C50   A    
C21   C34   A    
C38   C78   A    
C28   H2    S    
C33   C50   A    
C77   Cl5   S    
C14   O7    A    
C30   H4    S    
C78   Cl17  S    
C10   O21   A    
C14   C76   S    
C37   C43   A    
C33   C86   A    
O9    Zn5   S    
C72   C77   A    
C53   C66   A    
C61   C88   A    
C17   O4    A    
C20   C23   A    
C6    C66   S    
O18   Zn3   S    
C32   C44   A    
C3    Cl3   S    
C26   C78   A    
O2    Zn3   S    
C26   H11   S    
C2    Cl2   S    
C70   C83   A    
O16   Zn2   S    
C55   C69   A    
C39   C46   A    
C4    Cl4   S    
C13   C73   S    
C17   C71   S    
O3    Zn2   S    
O15   Zn3   S    
C83   Cl10  S    
C63   C86   A    
O1    Zn1   S    
C62   C75   A    
C25   C58   A    
C58   C85   A    
C41   C50   A    
O14   Zn4   S    
C16   O5    A    
C45   C48   A    
C18   C51   A    
C29   C62   A    
C3    C41   A    
C34   C49   A    
C39   C67   A    
C29   H3    S    
C75   C81   A    
C51   C64   A    
C76   C80   A    
C20   C53   A    
O11   Zn6   S    
C11   C74   S    
C7    O18   A    
C67   Cl16  S    
C22   C55   A    
C60   C90   A    
C61   C74   A    
C24   C56   A    
C66   C80   A    
O4    Zn1   S    
C10   C64   S    
C34   Cl13  S    
C31   C38   A    
C15   O8    A    
O12   Zn2   S    
O22   Zn6   S    
C6    O17   A    
C12   Cl11  S    
C12   C44   A    
O5    Zn1   S    
C20   H6    S    
C21   C54   A    
C2    C42   A    
C32   C85   A    
C51   C84   A    
C89   Cl18  S    
C1    C46   A    
C36   C48   A    
C42   C47   A    
C13   O23   A    
C35   C41   A    
C11   O22   A    
C9    C65   S    
C56   Cl15  S    
C58   C71   A    
C31   C84   A    
O23   Zn5   S    
C22   C45   A    
C63   C76   A    
C26   C59   A    
C2    C28   A    
O20   Zn5   S    
C73   C83   A    
C4    C30   A    
C52   C65   A    
O7    Zn3   S    
C47   C56   A    
