data_mof_unit_46270.cif
_audit_creation_date              2012-12-10T16:59:13-0500
_audit_creation_method            fapswitch 2.2
_symmetry_space_group_name_H-M    P1
_symmetry_Int_Tables_number       1
_space_group_crystal_system       triclinic
_cell_length_a                    7.72751
_cell_length_b                    8.569979
_cell_length_c                    27.643307
_cell_angle_alpha                 90.910035
_cell_angle_beta                  86.164243
_cell_angle_gamma                 93.74745
_cell_volume                      1822.53874694

loop_
_atom_site_label
_atom_site_type_symbol
_atom_type_description
_atom_site_fract_x
_atom_site_fract_y
_atom_site_fract_z
_atom_type_partial_charge
C1    C     C_R   0.545989 0.794919 0.498730 0.965367
C2    C     C_R   0.618845 0.609132 0.125373 -0.204354
C3    C     C_R   0.508532 0.491925 0.646240 -0.295723
C4    C     C_R   0.491455 0.507969 0.353758 -0.295730
C5    C     C_R   0.637159 0.583675 0.023201 -0.043866
C6    C     C_R   0.362899 0.415758 0.976788 -0.043862
C7    C     C_R   0.346716 0.443754 0.027517 -0.062147
C8    C     C_R   0.653344 0.555672 0.972473 -0.062136
C9    C     C_R   0.488900 0.518453 0.050679 -0.044188
C10   C     C_R   0.511153 0.480989 0.949311 -0.044208
C11   C     C_R   0.757214 0.684134 0.047404 0.625942
C12   C     C_R   0.454011 0.205081 0.501270 0.965380
C13   C     C_R   0.242841 0.315312 0.952582 0.625984
C14   C     C_R   0.753090 0.690270 0.097680 0.631291
C15   C     C_R   0.246944 0.309217 0.902306 0.631281
C16   C     C_R   0.502640 0.498371 0.593856 0.970731
C17   C     C_R   0.497359 0.501618 0.406143 0.970722
C18   C     C_R   0.810746 0.589228 0.944090 0.636486
C19   C     C_R   0.189314 0.410192 0.055900 0.636479
C20   C     C_2   0.570289 0.958363 0.498001 -0.333912
C21   C     C_2   0.429711 0.041637 0.501999 -0.333929
C22   C     C_R   0.662466 0.533379 0.819872 0.712181
C23   C     C_R   0.519312 0.467812 0.898122 -0.226462
C24   C     C_R   0.337544 0.466169 0.180120 0.712205
C25   C     C_R   0.385409 0.391861 0.823871 0.663810
C26   C     C_R   0.614585 0.607715 0.176118 0.663780
C27   C     C_R   0.624812 0.387636 0.716973 0.607194
C28   C     C_R   0.375110 0.612058 0.283004 0.607182
C29   C     C_R   0.622456 0.395189 0.666913 0.517798
C30   C     C_R   0.377479 0.604613 0.333066 0.517779
C31   C     C_R   0.398816 0.582126 0.675840 -0.260216
C32   C     C_R   0.601200 0.417743 0.324175 -0.260204
C33   C     C_R   0.403792 0.578915 0.726165 0.099959
C34   C     C_R   0.480726 0.531666 0.101867 -0.226438
C35   C     C_R   0.596211 0.420843 0.273850 0.099969
C36   C     C_R   0.516476 0.478872 0.746716 0.033305
C37   C     C_R   0.483484 0.520803 0.253278 0.033286
C38   C     C_3   0.289896 0.684454 0.756345 -0.581514
C39   C     C_3   0.710148 0.315282 0.243690 -0.581524
C40   C     C_R   0.666355 0.530997 0.870412 -0.212305
C41   C     C_R   0.333679 0.468492 0.129578 -0.212311
C42   C     C_R   0.814484 0.584602 0.893822 0.612647
C43   C     C_R   0.185565 0.414848 0.106168 0.612634
C44   C     C_R   0.381177 0.390380 0.874615 -0.204340
F1    F     F_    0.967047 0.624934 0.868396 -0.570897
F2    F     F_    0.133107 0.208569 0.976647 -0.525890
F3    F     F_    0.966311 0.610400 0.964069 -0.554085
F4    F     F_    0.033752 0.388992 0.035921 -0.554054
F5    F     F_    0.033001 0.374516 0.131593 -0.570868
F6    F     F_    0.272711 0.695411 0.361209 -0.605117
F7    F     F_    0.727186 0.304407 0.638753 -0.605129
F8    F     F_    0.268076 0.709053 0.263095 -0.570539
F9    F     F_    0.731803 0.290563 0.736862 -0.570575
F10   F     F_    0.877205 0.782258 0.118863 -0.534413
F11   F     F_    0.122821 0.217249 0.881119 -0.534448
F12   F     F_    0.866962 0.790855 0.023335 -0.525899
H1    H     H_    0.312030 0.657841 0.659689 0.203904
H2    H     H_    0.848769 0.351483 0.248193 0.286378
H3    H     H_    0.684051 0.192764 0.256001 0.233837
H4    H     H_    0.687121 0.317117 0.204568 0.244035
H5    H     H_    0.688021 0.342091 0.340340 0.203901
H6    H     H_    0.014189 0.383072 0.463481 0.200315
H7    H     H_    0.985811 0.616928 0.536519 0.200316
H8    H     H_    0.702972 0.009622 0.494191 0.187164
H9    H     H_    0.297028 0.990378 0.505809 0.187160
H10   H     H_    0.151268 0.648323 0.751831 0.286373
H11   H     H_    0.312897 0.682515 0.795467 0.244039
H12   H     H_    0.316056 0.806992 0.744062 0.233857
N1    N     N_R   0.521361 0.468100 0.798064 -0.351197
N2    N     N_R   0.478627 0.531496 0.201928 -0.351195
N3    N     N_2   0.950320 0.457960 0.486880 -0.151484
N4    N     N_2   0.049680 0.542040 0.513120 -0.151489
O1    O     O_R   0.389250 0.738570 0.503220 -0.611247
O2    O     O_2   0.203593 0.396947 0.207395 -0.459362
O3    O     O_2   0.745722 0.679125 0.199713 -0.412917
O4    O     O_2   0.254249 0.320498 0.800274 -0.412925
O5    O     O_R   0.610750 0.261430 0.496780 -0.611235
O6    O     O_R   0.678390 0.711630 0.494810 -0.631967
O7    O     O_R   0.321610 0.288370 0.505190 -0.631972
O8    O     O_R   0.355440 0.513440 0.575450 -0.618192
O9    O     O_R   0.644560 0.486560 0.424550 -0.618200
O10   O     O_R   0.644590 0.486500 0.567040 -0.579516
O11   O     O_R   0.355410 0.513500 0.432960 -0.579523
O12   O     O_2   0.796415 0.602613 0.792599 -0.459371
Zn1   Zn    Zn3+2 0.306940 0.517990 0.505620 1.009200
Zn2   Zn    Zn3+2 0.693060 0.482010 0.494380 1.009208

loop_
_geom_bond_atom_site_label_1
_geom_bond_atom_site_label_2
_ccdc_geom_bond_type
C24   C41   A    
C27   C29   A    
C18   F3    S    
N4    Zn1   S    
C24   N2    A    
C35   C37   A    
C32   H5    S    
C5    C11   A    
C18   C42   A    
C13   F2    S    
C11   C14   A    
C23   C40   A    
C12   O7    A    
C33   C36   A    
C3    C29   A    
C38   H10   S    
C31   C33   A    
C22   N1    A    
O9    Zn2   S    
C21   H9    S    
C2    C34   A    
C40   C42   A    
C30   F6    S    
C22   C40   A    
C37   N2    S    
C1    O6    A    
C41   C43   A    
C34   C41   A    
C25   C44   A    
C19   C43   A    
C32   C35   A    
C38   H11   S    
C19   F4    S    
C43   F5    S    
O10   Zn2   S    
C39   H2    S    
C12   C21   S    
C8    C18   A    
C23   C44   A    
C16   O8    A    
C42   F1    S    
C22   O12   S    
C20   H8    S    
C35   C39   S    
C5    C9    A    
O8    Zn1   S    
N3    Zn2   S    
C39   H3    S    
C12   O5    A    
C16   O10   A    
C26   O3    S    
C2    C26   A    
C20   C21   D    
C3    C31   A    
O1    Zn1   S    
C4    C32   A    
C4    C17   S    
O11   Zn1   S    
C38   H12   S    
O5    Zn2   S    
C7    C19   A    
C13   C15   A    
C9    C34   A    
C10   C23   A    
C25   N1    A    
O7    Zn1   S    
C36   N1    S    
C29   F7    S    
C7    C9    A    
C15   C44   A    
C1    C20   S    
C14   F10   S    
C6    C10   A    
C5    C8    A    
C27   F9    S    
C6    C7    A    
C27   C36   A    
C33   C38   S    
C25   O4    S    
C1    O1    A    
C31   H1    S    
C28   C30   A    
N3    N4    D    
C6    C13   A    
C28   F8    S    
C24   O2    S    
C28   C37   A    
C26   N2    A    
C39   H4    S    
H6    N3    S    
C17   O9    A    
C2    C14   A    
C11   F12   S    
H7    N4    S    
C8    C10   A    
O6    Zn2   S    
C17   O11   A    
C4    C30   A    
C3    C16   S    
C15   F11   S    
