data_mof_unit_23055.cif
_audit_creation_date              2013-03-05T15:47:35-0500
_audit_creation_method            fapswitch 2.2
_symmetry_space_group_name_H-M    P1
_symmetry_Int_Tables_number       1
_space_group_crystal_system       triclinic
_cell_length_a                    7.217958
_cell_length_b                    15.229112
_cell_length_c                    22.316239
_cell_angle_alpha                 90.000252
_cell_angle_beta                  89.99967
_cell_angle_gamma                 90.000642
_cell_volume                      2453.06996554

loop_
_atom_site_label
_atom_site_type_symbol
_atom_site_description
_atom_site_fract_x
_atom_site_fract_y
_atom_site_fract_z
_atom_type_partial_charge
O1    O     O_R   0.390810 0.844810 0.447340 -0.595051
O2    O     O_R   0.109190 0.155190 0.947340 -0.595023
O3    O     O_R   0.890810 0.655190 0.552660 -0.595023
O4    O     O_R   0.609190 0.344810 0.052660 -0.595043
O5    O     O_R   0.720550 0.655820 0.440420 -0.583824
O6    O     O_R   0.779450 0.344180 0.940420 -0.583849
O7    O     O_R   0.220550 0.844180 0.559580 -0.583831
O8    O     O_R   0.279450 0.155820 0.059580 -0.583863
C1    C     C_R   0.553326 0.626264 0.426673 0.925654
C2    C     C_R   0.946674 0.373736 0.926674 0.925851
C3    C     C_R   0.053327 0.873737 0.573326 0.925819
C4    C     C_R   0.446672 0.126269 0.073329 0.925727
O9    O     O_R   0.720530 0.844130 0.440420 -0.605486
O10   O     O_R   0.779470 0.155870 0.940420 -0.605576
O11   O     O_R   0.220530 0.655870 0.559580 -0.605572
O12   O     O_R   0.279470 0.344130 0.059580 -0.605444
O13   O     O_R   0.890830 0.844810 0.552660 -0.542173
O14   O     O_R   0.609170 0.155190 0.052660 -0.542229
O15   O     O_R   0.390830 0.655190 0.447340 -0.542242
O16   O     O_R   0.109170 0.344810 0.947340 -0.542153
C5    C     C_R   0.552780 0.874751 0.427154 0.991680
C6    C     C_R   0.947221 0.125248 0.927153 0.991650
C7    C     C_R   0.052777 0.625247 0.572846 0.991645
C8    C     C_R   0.447220 0.374749 0.072848 0.991877
O17   O     O_3   0.557310 0.749980 0.536820 -0.275379
O18   O     O_3   0.942690 0.250020 0.036820 -0.275384
O19   O     O_3   0.057310 0.750020 0.463180 -0.275364
O20   O     O_3   0.442690 0.249980 0.963180 -0.275399
V1    V     V_3+5 0.832160 0.749980 0.493170 1.240953
V2    V     V_3+5 0.667840 0.250020 0.993170 1.240928
V3    V     V_3+5 0.332160 0.750020 0.506830 1.240913
V4    V     V_3+5 0.167840 0.249980 0.006830 1.240974
C9    C     C_R   0.795703 0.578793 0.849045 -0.123546
C10   C     C_R   0.704605 0.421253 0.349050 -0.123407
C11   C     C_R   0.295541 0.921245 0.150959 -0.123430
C12   C     C_R   0.204324 0.078793 0.650955 -0.123479
H1    H     H_    0.806269 0.534471 0.939887 0.143010
H2    H     H_    0.694171 0.465617 0.439884 0.143206
H3    H     H_    0.306075 0.965576 0.060120 0.143142
H4    H     H_    0.193770 0.034467 0.560113 0.143054
H5    H     H_    0.671302 0.665583 0.753918 0.179487
H6    H     H_    0.829019 0.334505 0.253901 0.179106
H7    H     H_    0.171170 0.834452 0.246088 0.178821
H8    H     H_    0.328727 0.165579 0.746084 0.179518
H9    H     H_    0.709916 0.634731 0.860532 0.159081
H10   H     H_    0.790593 0.365380 0.360524 0.159340
H11   H     H_    0.209665 0.865335 0.139477 0.159688
H12   H     H_    0.290126 0.134727 0.639469 0.159062
C13   C     C_R   0.945808 0.444026 0.880643 -0.178973
C14   C     C_R   0.554201 0.555945 0.380662 -0.179209
C15   C     C_R   0.445796 0.055973 0.119354 -0.179078
C16   C     C_R   0.054196 0.944030 0.619355 -0.179027
C17   C     C_R   0.182154 0.477458 0.596651 -0.119814
C18   C     C_R   0.317613 0.522449 0.096723 -0.119781
C19   C     C_R   0.682228 0.022513 0.403325 -0.119769
C20   C     C_R   0.817815 0.977467 0.903341 -0.119839
C21   C     C_R   0.251121 0.421500 0.642017 -0.098597
C22   C     C_R   0.248198 0.578152 0.142152 -0.097600
C23   C     C_R   0.751363 0.078377 0.357935 -0.098185
C24   C     C_R   0.748817 0.921527 0.857969 -0.098540
C25   C     C_R   0.189392 0.432236 0.700890 -0.190569
C26   C     C_R   0.310003 0.567432 0.201009 -0.190971
C27   C     C_R   0.689605 0.067650 0.299069 -0.190684
C28   C     C_R   0.810557 0.932262 0.799098 -0.190593
C29   C     C_R   0.039345 0.487456 0.715274 0.123197
C30   C     C_R   0.460382 0.512385 0.215336 0.123653
C31   C     C_R   0.539434 0.012492 0.284706 0.123459
C32   C     C_R   0.960633 0.987469 0.784720 0.123222
C33   C     C_R   0.972655 0.545435 0.670011 0.064760
C34   C     C_R   0.527262 0.454500 0.170043 0.064770
C35   C     C_R   0.472694 0.954535 0.329978 0.064834
C36   C     C_R   0.027339 0.045440 0.829986 0.064750
C37   C     C_R   0.964090 0.491760 0.774906 0.041902
C38   C     C_R   0.535760 0.508136 0.274948 0.042250
C39   C     C_R   0.464123 0.008215 0.225083 0.042128
C40   C     C_R   0.035901 0.991770 0.725090 0.041918
C41   C     C_R   0.845992 0.562888 0.789397 0.124122
C42   C     C_R   0.654122 0.437100 0.289413 0.123980
C43   C     C_R   0.345914 0.937124 0.210602 0.124088
C44   C     C_R   0.154018 0.062892 0.710602 0.124072
C45   C     C_R   0.773050 0.615346 0.743813 -0.206440
C46   C     C_R   0.727121 0.384681 0.243814 -0.206128
C47   C     C_R   0.272968 0.884669 0.256189 -0.206409
C48   C     C_R   0.226965 0.115347 0.756188 -0.206393
C49   C     C_R   0.829813 0.604108 0.684697 -0.172840
C50   C     C_R   0.670255 0.395896 0.184705 -0.172186
C51   C     C_R   0.329823 0.895871 0.315298 -0.172813
C52   C     C_R   0.170197 0.104107 0.815303 -0.172790
C53   C     C_R   0.994863 0.426825 0.820164 -0.109154
C54   C     C_R   0.504888 0.573072 0.320197 -0.108914
C55   C     C_R   0.494944 0.073150 0.179828 -0.109081
C56   C     C_R   0.005123 0.926834 0.679833 -0.109128
C57   C     C_R   0.851418 0.521774 0.894381 -0.097866
C58   C     C_R   0.648849 0.478261 0.394389 -0.097665
C59   C     C_R   0.351291 0.978254 0.105621 -0.097692
C60   C     C_R   0.148607 0.021774 0.605618 -0.097785
C61   C     C_R   0.055593 0.545490 0.612015 -0.217803
C62   C     C_R   0.444367 0.454479 0.112039 -0.217629
C63   C     C_R   0.555611 0.954497 0.387976 -0.217700
C64   C     C_R   0.944398 0.045493 0.887982 -0.217790
H13   H     H_    0.261758 0.396585 0.735398 0.171300
H14   H     H_    0.237453 0.602970 0.235539 0.170626
H15   H     H_    0.762039 0.103266 0.264554 0.170978
H16   H     H_    0.738179 0.896620 0.764586 0.171268
H17   H     H_    0.762655 0.643171 0.650847 0.202815
H18   H     H_    0.737461 0.356872 0.150842 0.202618
H19   H     H_    0.262701 0.856790 0.349148 0.202732
H20   H     H_    0.237362 0.143165 0.849155 0.202802
C65   C     C_2   0.030041 0.335072 0.802804 0.928740
O21   O     O_2   0.157755 0.294874 0.825733 -0.663642
O22   O     O_R   0.917903 0.295802 0.759299 -0.770899
H21   H     H_    0.951343 0.232444 0.751273 0.323620
C66   C     C_2   0.469447 0.664791 0.302804 0.928725
O23   O     O_2   0.341659 0.704947 0.325729 -0.663691
O24   O     O_R   0.581457 0.704073 0.259270 -0.771228
H22   H     H_    0.547870 0.767402 0.251210 0.323533
C67   C     C_2   0.530236 0.164893 0.197198 0.928696
O25   O     O_2   0.657951 0.205081 0.174257 -0.663661
O26   O     O_R   0.418187 0.204165 0.240726 -0.771030
H23   H     H_    0.451691 0.267515 0.248761 0.323541
C68   C     C_2   0.969930 0.835083 0.697196 0.928755
O27   O     O_2   0.842221 0.794884 0.674265 -0.663641
O28   O     O_R   0.082051 0.795819 0.740708 -0.770927
H24   H     H_    0.048609 0.732460 0.748735 0.323614
C69   C     C_2   0.252912 0.469556 0.534113 0.603722
H25   H     H_    0.393445 0.447710 0.525571 0.013422
O29   O     O_2   0.153659 0.486879 0.491391 -0.581002
C70   C     C_2   0.247060 0.530547 0.034167 0.602695
H26   H     H_    0.106765 0.552714 0.025596 0.013248
O30   O     O_2   0.346252 0.513077 0.991456 -0.580966
C71   C     C_2   0.752894 0.030501 0.465872 0.603166
H27   H     H_    0.893300 0.052529 0.474429 0.013362
O31   O     O_2   0.653687 0.013064 0.508590 -0.580959
C72   C     C_2   0.747060 0.969555 0.965879 0.603706
H28   H     H_    0.606530 0.947704 0.974421 0.013380
O32   O     O_2   0.846314 0.986875 0.008601 -0.580946
C73   C     C_2   0.389545 0.351066 0.630305 0.958463
O33   O     O_2   0.384580 0.308871 0.583711 -0.639072
O34   O     O_R   0.521545 0.330472 0.674019 -0.770746
H29   H     H_    0.606106 0.280599 0.661449 0.346607
C74   C     C_2   0.108985 0.648205 0.130516 0.957165
O35   O     O_2   0.115082 0.691324 0.084322 -0.638952
O36   O     O_R   0.974772 0.667323 0.173852 -0.769927
H30   H     H_    0.889686 0.717037 0.161369 0.347284
C75   C     C_2   0.890090 0.148666 0.369619 0.957938
O37   O     O_2   0.884577 0.191266 0.416038 -0.638987
O38   O     O_R   0.023078 0.168636 0.326071 -0.770379
H31   H     H_    0.107827 0.218459 0.338603 0.346870
C76   C     C_2   0.610334 0.851116 0.869674 0.958380
O39   O     O_2   0.615330 0.808878 0.916249 -0.639142
O40   O     O_R   0.478235 0.830599 0.825975 -0.770694
H32   H     H_    0.393632 0.780737 0.838540 0.346633

loop_
_geom_bond_atom_site_label_1
_geom_bond_atom_site_label_2
_geom_bond_distance
_ccdc_geom_bond_type
O17   V3    1.757541 S    
C47   C51   1.391953 A    
C22   C26   1.396728 A    
C19   C23   1.413795 A    
O19   V1    1.757534 S    
C67   O25   1.219201 D    
O13   V1    2.006855 S    
O3    C7    1.333270 A    
O22   H21   1.010628 S    
H6    C46   1.084226 S    
C44   C48   1.396528 A    
C11   H11   1.083899 S    
C70   H26   1.084436 S    
C36   C64   1.425988 A    
C75   O37   1.222927 D    
C31   C39   1.438793 A    
C29   C37   1.438842 A    
O28   H24   1.010625 S    
O1    C5    1.333273 A    
C73   O34   1.399224 S    
C8    C62   1.496542 S    
C28   C32   1.408268 A    
O9    V1    2.022590 S    
O10   V2    2.022577 S    
C65   O22   1.398345 S    
C18   C22   1.413678 A    
O4    C8    1.333282 A    
C29   C33   1.425378 A    
O36   H30   1.013902 S    
C30   C38   1.438716 A    
C53   C65   1.472095 S    
O1    V3    2.006391 S    
H7    C47   1.084235 S    
O2    V4    2.006386 S    
C54   C66   1.472128 S    
C11   C43   1.400796 A    
O3    V1    2.006401 S    
C12   C60   1.392618 A    
C3    C16   1.483623 S    
C36   C52   1.403154 A    
C74   O35   1.223039 D    
C1    O15   1.335080 A    
O38   H31   1.013964 S    
C2    O16   1.335077 A    
O2    C6    1.333273 A    
O40   H32   1.013970 S    
C55   C67   1.472143 S    
C16   C60   1.400043 A    
C10   H10   1.083895 S    
C65   O21   1.219172 D    
C39   C55   1.430866 A    
C15   C55   1.419713 A    
O11   C7    1.330877 A    
O15   V3    2.006859 S    
O12   C8    1.330855 A    
C76   O40   1.399216 S    
C50   H18   1.076843 S    
H4    C60   1.083921 S    
C49   H17   1.076823 S    
C75   O38   1.399413 S    
C14   C54   1.419693 A    
O5    V1    2.022619 S    
O34   H29   1.013956 S    
C27   C31   1.408276 A    
C6    C64   1.496601 S    
C26   C30   1.408251 A    
C21   C73   1.489027 S    
O8    V4    2.022639 S    
C48   C52   1.391961 A    
O9    C5    1.330860 A    
O7    V3    2.022626 S    
C27   H15   1.077411 S    
C12   C44   1.400812 A    
C17   C21   1.413869 A    
O18   V4    1.757534 S    
C14   C58   1.400069 A    
C72   O32   1.221389 D    
C17   C61   1.423198 A    
C46   C50   1.391996 A    
C35   C63   1.425988 A    
C25   H13   1.077345 S    
C20   C24   1.413857 A    
C70   O30   1.221423 D    
C32   C36   1.425375 A    
C74   O36   1.399477 S    
O7    C3    1.324227 A    
O5    C1    1.324233 A    
C9    H9    1.083902 S    
C42   C46   1.396574 A    
C41   C45   1.396526 A    
O8    C4    1.324218 A    
H5    C45   1.084226 S    
H2    C58   1.083920 S    
H1    C57   1.083922 S    
O11   V3    2.022571 S    
H3    C59   1.083919 S    
C68   O27   1.219179 D    
C17   C69   1.490993 S    
C40   C56   1.430848 A    
C35   C51   1.403177 A    
C23   C75   1.488779 S    
O6    V2    2.022621 S    
C10   C58   1.392635 A    
C19   C71   1.491062 S    
C69   H25   1.084418 S    
C16   C56   1.419712 A    
C32   C40   1.438829 A    
C20   C64   1.423200 A    
C4    O14   1.335075 A    
C71   H27   1.084465 S    
C34   C50   1.403170 A    
C4    C15   1.483590 S    
C33   C49   1.403151 A    
C66   O23   1.219209 D    
O16   V4    2.006871 S    
C28   H16   1.077356 S    
C3    O13   1.335078 A    
C7    C61   1.496606 S    
C1    C14   1.483622 S    
C40   C44   1.415820 A    
C13   C53   1.419714 A    
C71   O31   1.221497 D    
C9    C57   1.392616 A    
O6    C2    1.324225 A    
C20   C72   1.490996 S    
O26   H23   1.010632 S    
C21   C25   1.396917 A    
C72   H28   1.084414 S    
C11   C59   1.392609 A    
O12   V4    2.022569 S    
C73   O33   1.222858 D    
C23   C27   1.396829 A    
H8    C48   1.084227 S    
C24   C28   1.396908 A    
O10   C6    1.330876 A    
C67   O26   1.398349 S    
C37   C53   1.430858 A    
C76   O39   1.222860 D    
C10   C42   1.400794 A    
C43   C47   1.396542 A    
C22   C74   1.488399 S    
C9    C41   1.400811 A    
O24   H22   1.010589 S    
C30   C34   1.425422 A    
C66   O24   1.398348 S    
C18   C70   1.491099 S    
C5    C63   1.496564 S    
C38   C54   1.430833 A    
O20   V2    1.757541 S    
C12   H12   1.083903 S    
C31   C35   1.425415 A    
C24   C76   1.489005 S    
O4    V2    2.006389 S    
C68   O28   1.398353 S    
O14   V2    2.006861 S    
C52   H20   1.076823 S    
C25   C29   1.408269 A    
C51   H19   1.076826 S    
C38   C42   1.415789 A    
C19   C63   1.423191 A    
C69   O29   1.221393 D    
C37   C41   1.415824 A    
C18   C62   1.423165 A    
C13   C57   1.400034 A    
C56   C68   1.472091 S    
C2    C13   1.483624 S    
C39   C43   1.415821 A    
C45   C49   1.391955 A    
C34   C62   1.426016 A    
C15   C59   1.400040 A    
C26   H14   1.077476 S    
C33   C61   1.425987 A    
