data_mof_unit_52639.cif
_audit_creation_date              2012-12-11T16:05:07-0500
_audit_creation_method            fapswitch 2.2
_symmetry_space_group_name_H-M    P1
_symmetry_Int_Tables_number       1
_space_group_crystal_system       triclinic
_cell_length_a                    10.609876
_cell_length_b                    10.680607
_cell_length_c                    16.888992
_cell_angle_alpha                 98.565814
_cell_angle_beta                  98.558633
_cell_angle_gamma                 61.620666
_cell_volume                      1658.359085

loop_
_atom_site_label
_atom_site_type_symbol
_atom_type_description
_atom_site_fract_x
_atom_site_fract_y
_atom_site_fract_z
_atom_type_partial_charge
C1    C     C_R   0.351211 0.782166 0.401474 0.539838
C2    C     C_3   0.404509 0.708825 0.257932 -0.087446
C3    C     C_3   0.335412 0.830738 0.323360 0.058915
C4    C     C_R   0.368852 0.345808 0.359436 0.531500
C5    C     C_3   0.392036 0.920173 0.292018 -0.115598
C6    C     C_3   0.250042 0.985476 0.236999 -0.117652
C7    C     C_3   0.194164 0.895115 0.269746 -0.120440
C8    C     C_3   0.263342 0.773439 0.203969 -0.126330
C9    C     C_3   0.319905 0.862091 0.172181 0.041345
C10   C     C_3   0.434765 0.236547 0.768408 -0.097541
C11   C     C_3   0.371521 0.383790 0.735781 -0.126769
C12   C     C_3   0.677195 0.348466 0.234639 -0.176988
C13   C     C_3   0.324840 0.321298 0.655650 0.055490
C14   C     C_3   0.387136 0.175746 0.688330 0.005106
C15   C     C_3   0.240134 0.220166 0.717352 -0.019641
C16   C     C_R   0.711608 0.412924 0.390541 0.570801
C17   C     C_3   0.176770 0.367575 0.683773 -0.123348
C18   C     C_3   0.223761 0.428683 0.765462 -0.117097
C19   C     C_3   0.287194 0.280930 0.797436 0.052801
C20   C     C_1   0.809008 0.346525 0.711182 -0.051003
C21   C     C_1   0.835803 0.318912 0.779636 -0.046938
C22   C     C_1   0.360595 0.758740 0.715255 -0.068684
C23   C     C_3   0.759047 0.380937 0.310859 0.069231
C24   C     C_1   0.329387 0.806027 0.783047 -0.054438
C25   C     C_R   0.895388 0.308957 0.091515 0.551091
C26   C     C_R   0.318261 0.298199 0.120712 0.551702
C27   C     C_R   0.294372 0.891686 0.089089 0.541994
C28   C     C_R   0.380484 0.713360 0.631577 0.550354
C29   C     C_R   0.881493 0.300914 0.861926 0.537450
C30   C     C_R   0.277130 0.252543 0.877395 0.562630
C31   C     C_R   0.283562 0.878439 0.860194 0.539249
C32   C     C_R   0.365174 0.344171 0.583354 0.541720
C33   C     C_R   0.770024 0.381951 0.630593 0.537581
C34   C     C_3   0.901862 0.255345 0.286774 -0.148416
C35   C     C_1   0.340031 0.333958 0.275858 -0.073694
C36   C     C_1   0.328620 0.323585 0.204555 -0.071556
C37   C     C_3   0.820686 0.222784 0.208979 -0.122715
C38   C     C_3   0.482157 0.030237 0.646875 -0.359732
C39   C     C_3   0.163414 0.128636 0.703345 -0.387438
C40   C     C_3   0.849416 0.662604 0.274448 -0.016400
C41   C     C_3   0.807439 0.817654 0.304743 -0.355562
C42   C     C_3   0.927834 0.358223 0.244222 -0.120850
C43   C     C_3   0.784724 0.482293 0.268463 0.286564
C44   C     C_3   0.701016 0.453430 0.191882 -0.136448
C45   C     C_3   0.843060 0.328520 0.167951 0.021894
C46   C     C_3   0.460707 0.798813 0.225172 -0.095195
Cr1   Cr    Cr6+3 0.608340 0.611040 0.520430 1.024441
Cr2   Cr    Cr6+3 0.287650 0.601120 0.489350 1.010438
Cr3   Cr    Cr6+3 0.604040 0.287870 0.490280 1.002163
Cr4   Cr    Cr6+3 0.054020 0.052700 0.970850 1.018394
Cr5   Cr    Cr6+3 0.059230 0.375120 0.993390 1.011972
Cr6   Cr    Cr6+3 0.374950 0.061200 0.992340 1.015911
H1    H     H_    0.575565 0.342978 0.232855 0.118083
H2    H     H_    0.980952 0.178905 0.329214 0.120359
H3    H     H_    0.032244 0.358982 0.244970 0.094229
H4    H     H_    0.623035 0.528300 0.148376 0.103353
H5    H     H_    0.461488 0.596081 0.271263 0.107756
H6    H     H_    0.564732 0.764216 0.201034 0.142025
H7    H     H_    0.442440 0.981294 0.330199 0.129850
H8    H     H_    0.505528 0.946032 0.686264 0.148831
H9    H     H_    0.426361 0.012327 0.588669 0.151345
H10   H     H_    0.585573 0.024397 0.636252 0.151553
H11   H     H_    0.070640 0.173075 0.657796 0.136778
H12   H     H_    0.188040 0.099330 0.224836 0.113693
H13   H     H_    0.236526 0.020473 0.678648 0.156319
H14   H     H_    0.127008 0.123110 0.760286 0.133372
H15   H     H_    0.837786 0.653825 0.207448 0.133634
H16   H     H_    0.963887 0.597115 0.296387 0.148546
H17   H     H_    0.816644 0.829976 0.371510 0.167579
H18   H     H_    0.880083 0.850907 0.283256 0.096894
H19   H     H_    0.695213 0.888246 0.281959 0.150997
H20   H     H_    0.085639 0.933025 0.289361 0.114000
H21   H     H_    0.213120 0.711458 0.166479 0.123589
H22   H     H_    0.426203 0.451725 0.741975 0.107624
H23   H     H_    0.541705 0.183318 0.802602 0.138627
H24   H     H_    0.072193 0.420707 0.647430 0.136210
H25   H     H_    0.157156 0.532686 0.798571 0.141442
H26   H     H_    0.836883 0.115428 0.181977 0.134593
O1    O     O_R   0.751220 0.499230 0.435170 -0.466214
O2    O     O_R   0.412990 0.180750 0.091610 -0.505591
O3    O     O_R   0.366620 0.943130 0.065760 -0.505465
O4    O     O_R   0.477220 0.727600 0.436870 -0.496621
O5    O     O_R   0.160510 0.906330 0.879210 -0.506590
O6    O     O_R   0.930190 0.179050 0.889450 -0.499215
O7    O     O_R   0.909140 0.398170 0.896710 -0.513484
O8    O     O_R   0.186190 0.363460 0.918830 -0.499556
O9    O     O_R   0.401670 0.173200 0.913310 -0.518010
O10   O     O_R   0.356120 0.936130 0.900470 -0.510035
O11   O     O_3   0.162740 0.163010 0.985530 -0.277257
O12   O     O_R   0.297880 0.469080 0.560050 -0.511002
O13   O     O_R   0.258650 0.745120 0.411470 -0.519900
O14   O     O_R   0.297070 0.467240 0.395960 -0.500288
O15   O     O_R   0.488830 0.252610 0.387790 -0.524135
O16   O     O_R   0.724400 0.302390 0.420980 -0.509718
O17   O     O_R   0.752100 0.501210 0.612190 -0.516820
O18   O     O_R   0.478040 0.729440 0.600970 -0.512185
O19   O     O_R   0.259530 0.747110 0.588490 -0.504734
O20   O     O_3   0.760952 0.618985 0.304871 -0.544945
O21   O     O_R   0.489720 0.254590 0.564810 -0.521446
O22   O     O_R   0.725220 0.304230 0.585080 -0.493142
O23   O     O_3   0.500010 0.500010 0.500020 -0.292758
O24   O     O_R   0.171830 0.913880 0.057510 -0.515784
O25   O     O_R   0.940690 0.186050 0.054730 -0.499418
O26   O     O_R   0.920470 0.405720 0.075010 -0.529648
O27   O     O_R   0.196690 0.370460 0.084120 -0.499973

loop_
_geom_bond_atom_site_label_1
_geom_bond_atom_site_label_2
_ccdc_geom_bond_type
C28   O19   A    
C11   C18   S    
Cr1   O23   S    
C34   C37   S    
C13   C32   S    
C35   C36   T    
C34   C42   S    
C43   O20   S    
Cr1   O1    S    
Cr5   O7    S    
C6    C9    S    
C2    H5    S    
Cr4   O6    S    
C7    C8    S    
C2    C46   S    
C15   C19   S    
Cr2   O19   S    
C12   C23   S    
C3    C7    S    
C40   O20   S    
C5    C6    S    
Cr3   O21   S    
C31   O5    A    
C26   O27   A    
C18   C19   S    
Cr1   O4    S    
C6    H12   S    
C12   C37   S    
C32   O12   A    
C8    C9    S    
Cr2   O13   S    
C17   H24   S    
Cr1   O18   S    
Cr3   O16   S    
C30   O8    A    
C29   O7    A    
C12   H1    S    
C41   H19   S    
C38   H9    S    
C4    O14   A    
C4    C35   S    
C9    C46   S    
C1    O13   A    
Cr2   O12   S    
C13   C14   S    
C46   H6    S    
C39   H13   S    
Cr6   O11   S    
C33   O17   A    
Cr5   O8    S    
Cr4   O5    S    
C5    H7    S    
Cr6   O10   S    
C29   O6    A    
C10   C14   S    
C7    H20   S    
C25   O25   A    
Cr5   O26   S    
C21   C29   S    
C40   H15   S    
C26   O2    A    
C1    C3    S    
C42   C45   S    
C43   C44   S    
C42   H3    S    
C14   C38   S    
C10   H23   S    
C44   H4    S    
Cr4   O11   S    
C27   O3    A    
C10   C19   S    
Cr5   O27   S    
C23   C34   S    
C17   C18   S    
C15   C39   S    
C38   H8    S    
C20   C33   S    
C26   C36   S    
C40   C41   S    
Cr4   O24   S    
C16   C23   S    
Cr2   O14   S    
C39   H14   S    
C22   C24   T    
C42   C43   S    
C37   C45   S    
C25   C45   S    
C44   C45   S    
C9    C27   S    
C41   H17   S    
C5    C46   S    
C15   C17   S    
C31   O10   A    
C23   C43   S    
Cr6   O9    S    
C2    C8    S    
C3    C5    S    
C11   H22   S    
C25   O26   A    
C34   H2    S    
C6    C7    S    
C39   H11   S    
C37   H26   S    
C27   O24   A    
C16   O16   A    
C32   O21   A    
C13   C17   S    
C28   O18   A    
C16   O1    A    
C33   O22   A    
C2    C3    S    
C1    O4    A    
C24   C31   S    
C12   C44   S    
Cr5   O11   S    
Cr3   O22   S    
Cr3   O23   S    
C11   C13   S    
C18   H25   S    
Cr2   O23   S    
C8    H21   S    
Cr6   O3    S    
C10   C11   S    
C4    O15   A    
Cr4   O25   S    
C20   C21   T    
C40   H16   S    
Cr1   O17   S    
C14   C15   S    
C22   C28   S    
Cr3   O15   S    
C30   O9    A    
Cr6   O2    S    
C19   C30   S    
C41   H18   S    
C38   H10   S    
