data_mof_unit_6420.cif
_audit_creation_date              2012-12-10T17:08:40-0500
_audit_creation_method            fapswitch 2.2
_symmetry_space_group_name_H-M    P1
_symmetry_Int_Tables_number       1
_space_group_crystal_system       triclinic
_cell_length_a                    15.74846
_cell_length_b                    10.586155
_cell_length_c                    10.011324
_cell_angle_alpha                 88.514441
_cell_angle_beta                  90.005031
_cell_angle_gamma                 90.063145
_cell_volume                      1668.4822765

loop_
_atom_site_label
_atom_site_type_symbol
_atom_type_description
_atom_site_fract_x
_atom_site_fract_y
_atom_site_fract_z
_atom_type_partial_charge
C1    C     C_R   0.491990 0.262715 0.501816 0.945143
C2    C     C_2   0.493956 0.871290 0.489172 -0.430852
C3    C     C_2   0.428541 0.068317 0.416432 0.172497
C4    C     C_R   0.338412 0.500145 0.500015 0.873486
C5    C     C_2   0.471928 0.131202 0.509980 -0.449068
C6    C     C_2   0.554507 0.564236 0.922988 0.248528
C7    C     C_2   0.559558 0.551628 0.073557 -0.213510
C8    C     C_R   0.499021 0.737919 0.497844 0.947248
C9    C     C_R   0.661610 0.500264 0.500010 0.914033
C10   C     C_3   0.051027 0.460856 0.645504 0.057604
C11   C     C_3   0.047725 0.408906 0.398269 -0.037130
C12   C     C_3   0.949962 0.452583 0.650972 0.274403
C13   C     C_3   0.949291 0.419040 0.394543 -0.498016
C14   C     C_1   0.750260 0.502814 0.500590 -0.209787
C15   C     C_3   0.083124 0.505119 0.502549 0.121547
C16   C     C_3   0.924577 0.306674 0.664579 -0.419168
C17   C     C_3   0.942306 0.240557 0.799898 -0.891866
C18   C     C_3   0.122873 0.645150 0.767863 -0.790030
C19   C     C_3   0.900875 0.518633 0.770175 -0.277690
C20   C     C_3   0.942146 0.526875 0.908828 -0.863642
C21   C     C_3   0.963680 0.737113 0.219530 -0.841545
C22   C     C_3   0.349357 0.818660 0.257666 -0.732800
C23   C     C_3   0.917226 0.507940 0.507075 0.073082
C24   C     C_3   0.378486 0.133789 0.304553 -0.332466
C25   C     C_3   0.427075 0.134965 0.172445 -0.835762
C26   C     C_3   0.596697 0.777840 0.869179 -0.772104
C27   C     C_3   0.087712 0.420212 0.255207 -0.339123
C28   C     C_3   0.155608 0.319778 0.231781 -0.928433
C29   C     C_3   0.920308 0.754937 0.554210 -0.441325
C30   C     C_3   0.937517 0.889328 0.499951 -0.890251
C31   C     C_3   0.951019 0.646504 0.462080 0.411442
C32   C     C_3   0.050769 0.639820 0.464139 -0.397483
C33   C     C_1   0.825411 0.505384 0.502890 -0.130566
C34   C     C_1   0.174657 0.503138 0.500548 -0.037458
C35   C     C_1   0.249817 0.501683 0.499997 -0.211259
C36   C     C_2   0.426651 0.929723 0.431420 0.220743
H1    H     H_    0.551013 0.920913 0.518702 0.121076
H2    H     H_    0.077588 0.710301 0.531307 0.170377
H3    H     H_    0.080060 0.669250 0.368402 0.172624
H4    H     H_    0.008994 0.254912 0.831784 0.253126
H5    H     H_    0.897834 0.273094 0.877661 0.270588
H6    H     H_    0.932009 0.137302 0.790744 0.243349
H7    H     H_    0.855974 0.293852 0.642647 0.212659
H8    H     H_    0.959236 0.249304 0.591535 0.187191
H9    H     H_    0.129848 0.453587 0.817045 0.218806
H10   H     H_    0.147677 0.661720 0.869798 0.225143
H11   H     H_    0.070747 0.712974 0.751957 0.235227
H12   H     H_    0.491582 0.084023 0.602631 0.140944
H13   H     H_    0.175863 0.663165 0.697220 0.244219
H14   H     H_    0.983364 0.445459 0.934477 0.270998
H15   H     H_    0.978929 0.615631 0.916246 0.266362
H16   H     H_    0.891757 0.530668 0.986309 0.228523
H17   H     H_    0.876343 0.612482 0.744555 0.158288
H18   H     H_    0.839743 0.467640 0.786288 0.194842
H19   H     H_    0.851732 0.692400 0.323481 0.232435
H20   H     H_    0.999111 0.820407 0.254690 0.252268
H21   H     H_    0.919307 0.769733 0.139585 0.234280
H22   H     H_    0.007735 0.668835 0.174131 0.238783
H23   H     H_    0.462871 0.435703 0.900181 0.126416
H24   H     H_    0.332654 0.793931 0.463563 0.209146
H25   H     H_    0.330651 0.717504 0.256340 0.242045
H26   H     H_    0.411919 0.828309 0.207035 0.248610
H27   H     H_    0.301218 0.874047 0.200438 0.223501
H28   H     H_    0.489207 0.183287 0.182292 0.276134
H29   H     H_    0.438500 0.037430 0.139226 0.248474
H30   H     H_    0.389339 0.186027 0.094499 0.228959
H31   H     H_    0.316621 0.085495 0.291190 0.203088
H32   H     H_    0.361534 0.231940 0.330193 0.202298
H33   H     H_    0.675893 0.622757 0.880668 0.200266
H34   H     H_    0.614350 0.592115 0.122367 0.171196
H35   H     H_    0.640857 0.833441 0.804180 0.227411
H36   H     H_    0.605970 0.806095 0.974359 0.214969
H37   H     H_    0.530591 0.800166 0.837841 0.258252
H38   H     H_    0.207487 0.325799 0.306133 0.266256
H39   H     H_    0.127013 0.223855 0.238535 0.253842
H40   H     H_    0.183231 0.334018 0.130426 0.250858
H41   H     H_    0.038882 0.407940 0.176542 0.205791
H42   H     H_    0.116799 0.514271 0.236228 0.210415
H43   H     H_    0.005756 0.902964 0.476036 0.254412
H44   H     H_    0.898289 0.910670 0.410105 0.272707
H45   H     H_    0.074206 0.361423 0.650929 0.091586
H46   H     H_    0.919942 0.958289 0.576999 0.245225
H47   H     H_    0.850714 0.747323 0.570812 0.199513
H48   H     H_    0.952554 0.749027 0.651648 0.202238
H49   H     H_    0.445911 0.472534 0.102666 0.160407
H50   H     H_    0.062189 0.311649 0.436672 0.156975
H51   H     H_    0.919955 0.323697 0.401073 0.162567
H52   H     H_    0.926763 0.453751 0.295171 0.214815
N1    N     N_2   0.500900 0.501330 0.852150 -0.199781
N2    N     N_2   0.500920 0.501360 0.147810 -0.200892
N3    N     N_2   0.092767 0.516103 0.761753 -0.279927
N4    N     N_2   0.916257 0.675586 0.327334 -0.277011
N5    N     N_2   0.352179 0.861550 0.394050 -0.312171
N6    N     N_2   0.613926 0.644569 0.856033 -0.242478
O1    O     O_R   0.499990 0.319060 0.613040 -0.619428
O2    O     O_R   0.500010 0.319100 0.386900 -0.597225
O3    O     O_R   0.377130 0.499990 0.613120 -0.612108
O4    O     O_R   0.377160 0.500030 0.386980 -0.626790
O5    O     O_R   0.499990 0.680900 0.613100 -0.592010
O6    O     O_R   0.500010 0.680940 0.386960 -0.593651
O7    O     O_R   0.622840 0.499970 0.613020 -0.596475
O8    O     O_R   0.622870 0.500010 0.386880 -0.611819
Zn1   Zn    Zn3+2 0.499980 0.499970 0.650990 0.947416
Zn2   Zn    Zn3+2 0.500020 0.500030 0.349010 0.925444

loop_
_geom_bond_atom_site_label_1
_geom_bond_atom_site_label_2
_ccdc_geom_bond_type
C26   N6    S    
O5    Zn1   S    
C4    O4    A    
C26   H36   S    
C19   C20   S    
C27   H42   S    
C28   H38   S    
C18   H11   S    
C7    H34   S    
C15   C32   S    
C12   C23   S    
C29   C30   S    
C1    C5    S    
C18   N3    S    
C8    O5    A    
C29   H47   S    
C20   H15   S    
C10   C15   S    
C11   H50   S    
O6    Zn2   S    
C26   H37   S    
C13   C23   S    
C34   C35   T    
H23   N1    S    
C32   H3    S    
C17   H6    S    
C20   H14   S    
C24   H31   S    
C22   H27   S    
C11   C15   S    
C36   N5    S    
C12   C16   S    
C9    O8    A    
C23   C33   S    
C32   H2    S    
C16   H8    S    
C15   C34   S    
C30   H44   S    
H24   N5    S    
C19   H17   S    
C4    C35   S    
O7    Zn1   S    
C4    O3    A    
N1    Zn1   S    
C26   H35   S    
C3    C24   S    
C14   C33   T    
C18   H10   S    
O1    Zn1   S    
C5    H12   S    
C25   H29   S    
C24   C25   S    
C29   H48   S    
H33   N6    S    
C16   C17   S    
C27   H41   S    
C7    N2    D    
C17   H4    S    
C23   C31   S    
C30   H46   S    
C9    C14   S    
C21   H21   S    
H19   N4    S    
C22   H26   S    
C31   C32   S    
C11   C27   S    
C1    O1    A    
C13   H51   S    
O8    Zn2   S    
C16   H7    S    
N2    Zn2   S    
O3    Zn1   S    
C10   C12   S    
C30   H43   S    
C19   H18   S    
C9    O7    A    
C10   N3    S    
O2    Zn2   S    
C22   N5    S    
C28   H40   S    
C2    C36   D    
C2    C8    S    
C25   H30   S    
C3    C5    D    
C21   H20   S    
C12   C19   S    
H49   N2    S    
C6    C7    S    
C6    N1    D    
C10   H45   S    
C8    O6    A    
C21   H22   S    
C29   C31   S    
C22   H25   S    
C11   C13   S    
C2    H1    S    
C6    N6    S    
C3    C36   S    
C1    O2    A    
O4    Zn2   S    
C13   H52   S    
H9    N3    S    
C17   H5    S    
C24   H32   S    
C20   H16   S    
C31   N4    S    
C27   C28   S    
C28   H39   S    
C25   H28   S    
C18   H13   S    
C21   N4    S    
