data_mof_unit_17091.cif
_audit_creation_date              2012-12-11T16:33:28-0500
_audit_creation_method            fapswitch 2.2
_symmetry_space_group_name_H-M    P1
_symmetry_Int_Tables_number       1
_space_group_crystal_system       triclinic
_cell_length_a                    6.946311
_cell_length_b                    18.339138
_cell_length_c                    20.116743
_cell_angle_alpha                 68.56913
_cell_angle_beta                  91.431679
_cell_angle_gamma                 90.780825
_cell_volume                      2384.70182527

loop_
_atom_site_label
_atom_site_type_symbol
_atom_type_description
_atom_site_fract_x
_atom_site_fract_y
_atom_site_fract_z
_atom_type_partial_charge
O1    O     O_R   0.488960 0.443750 0.941980 -0.536853
O2    O     O_R   0.823890 0.406510 0.087590 -0.544549
O3    O     O_R   0.999680 0.556250 0.058020 -0.544253
C1    C     C_R   0.655388 0.383335 0.115241 0.695543
O4    O     O_R   0.818360 0.434410 0.944340 -0.532678
O5    O     O_R   0.994110 0.584350 0.913750 -0.534875
C2    C     C_R   0.648193 0.420365 0.923823 0.736996
O6    O     O_R   0.494530 0.415650 0.086250 -0.541242
O7    O     O_3   0.662590 0.549160 0.990130 -0.369621
V1    V     V_3+5 0.935320 0.490880 0.001830 1.393575
O8    O     O_R   0.324180 0.593490 0.912410 -0.543306
C3    C     C_R   0.151989 0.622160 0.889396 0.685112
O9    O     O_R   0.329720 0.565590 0.055660 -0.536803
C4    C     C_R   0.164021 0.577422 0.078051 0.703543
V2    V     V_3+5 0.435990 0.509120 0.998170 1.384931
O10   O     O_3   0.158850 0.450840 0.009870 -0.368305
C5    C     C_3   0.055594 0.692468 0.319537 0.153218
C6    C     C_3   0.250456 0.670203 0.296383 -0.197394
C7    C     C_1   0.165379 0.618176 0.127775 -0.207661
C8    C     C_1   0.105611 0.868496 0.383251 -0.222373
C9    C     C_3   0.975292 0.717276 0.241757 -0.180356
C10   C     C_3   0.170988 0.696093 0.218568 0.094362
C11   C     C_3   0.051716 0.801794 0.226312 0.103178
C12   C     C_3   0.126866 0.777153 0.304243 0.044824
C13   C     C_3   0.246430 0.780251 0.203239 0.145383
C14   C     C_3   0.321014 0.755281 0.281629 0.086283
C15   C     C_1   0.170741 0.652099 0.169604 -0.026067
C16   C     C_1   0.109778 0.826818 0.348110 -0.060739
C17   C     C_R   0.003264 0.789465 0.871046 0.037531
C18   C     C_R   0.008375 0.869506 0.866309 0.152006
C19   C     C_R   0.060861 0.928901 0.801538 0.151718
C20   C     C_R   0.096861 0.909149 0.742819 -0.215626
C21   C     C_R   0.101592 0.831078 0.747000 0.014073
C22   C     C_R   0.081195 0.768854 0.814284 0.012221
C23   C     C_R   0.126720 0.815849 0.683848 -0.136210
C24   C     C_R   0.167361 0.739026 0.688355 0.043658
C25   C     C_R   0.174155 0.676714 0.755984 0.075095
C26   C     C_R   0.132851 0.690432 0.819639 -0.157691
C27   C     C_R   0.206579 0.723501 0.626174 -0.209180
C28   C     C_R   0.253466 0.648238 0.629457 0.200831
C29   C     C_R   0.257423 0.586816 0.696151 -0.122345
C30   C     C_R   0.217758 0.600652 0.758055 -0.195636
C31   C     C_R   0.500952 0.106916 0.242510 0.078334
C32   C     C_R   0.375508 0.108468 0.184080 0.134461
C33   C     C_R   0.303738 0.181365 0.137080 0.127084
C34   C     C_R   0.395298 0.249378 0.136504 -0.229070
C35   C     C_R   0.526724 0.249266 0.190850 0.011643
C36   C     C_R   0.545921 0.179616 0.251897 0.030758
C37   C     C_R   0.643841 0.315529 0.184734 -0.155748
C38   C     C_R   0.746559 0.316899 0.246108 0.051385
C39   C     C_R   0.709978 0.257906 0.314265 0.025070
C40   C     C_R   0.619659 0.185932 0.316846 -0.166899
C41   C     C_R   0.876714 0.378481 0.242001 -0.154767
C42   C     C_R   0.970214 0.381554 0.302584 -0.174276
C43   C     C_R   0.917462 0.330284 0.369248 -0.101466
C44   C     C_R   0.772410 0.274059 0.376117 0.143671
O11   O     O_R   0.770540 0.084530 0.414050 -0.533266
O12   O     O_R   0.445710 0.065660 0.555720 -0.536905
O13   O     O_R   0.270420 0.915650 0.586190 -0.538369
C45   C     C_R   0.615529 0.077176 0.578630 0.721010
O14   O     O_R   0.441140 0.093540 0.412470 -0.543647
O15   O     O_R   0.265820 0.943740 0.441930 -0.538806
C46   C     C_R   0.609639 0.117407 0.385384 0.690594
O16   O     O_R   0.775150 0.056440 0.558310 -0.539655
O17   O     O_3   0.602370 0.950960 0.510050 -0.368571
V3    V     V_3+5 0.329450 0.009140 0.498150 1.406401
O18   O     O_R   0.935790 0.934280 0.444060 -0.535431
C47   C     C_R   0.102648 0.918558 0.425056 0.724164
O19   O     O_R   0.940370 0.906390 0.587310 -0.535559
C48   C     C_R   0.111305 0.881597 0.613281 0.694785
V4    V     V_3+5 0.828810 0.990710 0.501460 1.411741
O20   O     O_3   0.105780 0.049100 0.489960 -0.366518
C49   C     C_3   0.611222 0.324889 0.710895 -0.134933
C50   C     C_3   0.467642 0.257771 0.715811 -0.143017
C51   C     C_1   0.627140 0.122244 0.624860 -0.196100
C52   C     C_1   0.638040 0.374856 0.878174 -0.198434
C53   C     C_3   0.780080 0.273531 0.704394 -0.135440
C54   C     C_3   0.636412 0.207002 0.709929 0.174187
C55   C     C_3   0.806694 0.240207 0.786880 -0.134999
C56   C     C_3   0.637670 0.290882 0.792713 0.175800
C57   C     C_3   0.663069 0.173104 0.791764 -0.145987
C58   C     C_3   0.494370 0.224485 0.798226 -0.148481
C59   C     C_1   0.633105 0.160253 0.663313 -0.071386
C60   C     C_1   0.636322 0.337065 0.839628 -0.067400
H1    H     H_    0.946694 0.233143 0.816380 0.106514
H2    H     H_    0.898124 0.293467 0.665517 0.105209
H3    H     H_    0.334106 0.616232 0.325162 0.119047
C61   C     C_3   0.072247 0.015361 0.790368 -0.366137
C62   C     C_3   0.279653 0.039345 0.798106 -0.779838
H4    H     H_    0.283938 0.103059 0.786711 0.227742
H5    H     H_    0.335391 0.007862 0.853342 0.223245
H6    H     H_    0.372894 0.026598 0.759648 0.235250
H7    H     H_    0.016311 0.051166 0.736035 0.181839
H8    H     H_    0.982332 0.031738 0.827213 0.188169
H9    H     H_    0.127217 0.956802 0.693193 0.127937
H10   H     H_    0.203984 0.770185 0.574142 0.091710
C63   C     C_3   0.301187 0.637918 0.560262 -0.364924
C64   C     C_3   0.343506 0.554071 0.566343 -0.794950
H11   H     H_    0.471891 0.531083 0.601468 0.225611
H12   H     H_    0.216991 0.515548 0.587399 0.227379
H13   H     H_    0.374591 0.553602 0.512613 0.217337
H14   H     H_    0.178903 0.660273 0.521713 0.174541
H15   H     H_    0.429490 0.674579 0.537729 0.185067
H16   H     H_    0.221058 0.550362 0.807484 0.129797
H17   H     H_    0.979556 0.338626 0.415906 0.115608
C65   C     C_3   0.619077 0.033333 0.282884 -0.319760
C66   C     C_3   0.832826 0.047675 0.265566 -0.742321
H18   H     H_    0.851681 0.073067 0.206908 0.215233
H19   H     H_    0.897627 0.088204 0.289527 0.231734
H20   H     H_    0.911529 0.991502 0.286519 0.204755
H21   H     H_    0.596859 0.010910 0.340936 0.181382
H22   H     H_    0.576630 0.982252 0.269589 0.168729
C67   C     C_3   0.351304 0.038040 0.161602 -0.351323
C68   C     C_3   0.524367 0.032586 0.117833 -0.775194
H23   H     H_    0.482518 0.003868 0.079796 0.204323
H24   H     H_    0.581160 0.091606 0.085653 0.237111
H25   H     H_    0.641640 0.998716 0.153405 0.231414
H26   H     H_    0.327943 0.982892 0.207773 0.151610
H27   H     H_    0.220708 0.042087 0.128073 0.180906
C69   C     C_3   0.142808 0.190385 0.082006 -0.345137
C70   C     C_3   0.219596 0.199344 0.008872 -0.749432
H28   H     H_    0.098014 0.211415 0.969489 0.211737
H29   H     H_    0.323507 0.248902 0.990259 0.224567
H30   H     H_    0.291220 0.144928 0.010900 0.233563
H31   H     H_    0.037052 0.141681 0.100072 0.160241
H32   H     H_    0.057866 0.243545 0.075912 0.181280
H33   H     H_    0.357644 0.301946 0.092546 0.167589
C71   C     C_3   0.964938 0.637560 0.388373 -0.350831
C72   C     C_3   0.839503 0.574793 0.375642 -0.763918
H34   H     H_    0.715744 0.602078 0.339506 0.225681
H35   H     H_    0.925330 0.540371 0.351638 0.230720
H36   H     H_    0.782683 0.534451 0.427275 0.215739
H37   H     H_    0.081518 0.608584 0.427491 0.183745
H38   H     H_    0.879647 0.671431 0.412319 0.184144
H39   H     H_    0.910339 0.425075 0.192563 0.135681
H40   H     H_    0.074297 0.427542 0.298088 0.121231
C73   C     C_3   0.672941 0.243286 0.447322 -0.362034
C74   C     C_3   0.591735 0.309362 0.467777 -0.773653
H41   H     H_    0.708766 0.344737 0.479843 0.221253
H42   H     H_    0.498008 0.348113 0.423839 0.231582
H43   H     H_    0.504015 0.283974 0.516390 0.222107
H44   H     H_    0.547125 0.206423 0.446794 0.182727
H45   H     H_    0.778946 0.209540 0.488875 0.181332
H46   H     H_    0.327500 0.264647 0.686439 0.108086
H47   H     H_    0.589758 0.387711 0.677805 0.106535
H48   H     H_    0.376745 0.204852 0.837332 0.110271
H49   H     H_    0.683706 0.110371 0.825128 0.109703
C75   C     C_3   0.514164 0.778598 0.306290 -0.358060
C76   C     C_3   0.539171 0.746756 0.387415 -0.747463
H50   H     H_    0.424784 0.767370 0.413310 0.229500
H51   H     H_    0.537612 0.681734 0.408580 0.229273
H52   H     H_    0.677359 0.768628 0.402020 0.214173
H53   H     H_    0.631111 0.755792 0.283330 0.186331
H54   H     H_    0.523758 0.843461 0.286290 0.169451
C77   C     C_3   0.367657 0.833393 0.141373 -0.378770
C78   C     C_3   0.364807 0.809303 0.076514 -0.779356
H55   H     H_    0.215654 0.797933 0.062198 0.229427
H56   H     H_    0.426866 0.857127 0.030441 0.216038
H57   H     H_    0.452815 0.755867 0.087682 0.233287
H58   H     H_    0.313772 0.893798 0.125614 0.196107
H59   H     H_    0.518766 0.833368 0.159847 0.191277
C79   C     C_3   0.935845 0.875811 0.186421 -0.369728
C80   C     C_3   0.885401 0.883172 0.109895 -0.777353
H60   H     H_    0.013307 0.900637 0.075887 0.236156
H61   H     H_    0.827119 0.827192 0.108186 0.236764
H62   H     H_    0.775937 0.929268 0.086605 0.220278
H63   H     H_    0.802064 0.874095 0.215589 0.172415
H64   H     H_    0.019241 0.927977 0.185717 0.172282
H65   H     H_    0.833353 0.701310 0.224236 0.118742
H66   H     H_    0.291479 0.527585 0.701415 0.127173
C81   C     C_3   0.866308 0.733931 0.924122 -0.355894
C82   C     C_3   0.685667 0.719816 0.885332 -0.625932
H67   H     H_    0.626641 0.776421 0.848038 0.201463
H68   H     H_    0.717128 0.682131 0.854610 0.228529
H69   H     H_    0.573154 0.691713 0.924774 0.217771
H70   H     H_    0.938287 0.680318 0.958066 0.187598
H71   H     H_    0.813026 0.755977 0.964249 0.170594
C83   C     C_3   0.950863 0.892903 0.928317 -0.359223
C84   C     C_3   0.739972 0.918870 0.921052 -0.783969
H72   H     H_    0.707441 0.963185 0.867378 0.221495
H73   H     H_    0.641120 0.868535 0.929214 0.231794
H74   H     H_    0.709458 0.944880 0.961504 0.217500
H75   H     H_    0.975970 0.845061 0.980308 0.163462
H76   H     H_    0.046142 0.940287 0.932227 0.181327

loop_
_geom_bond_atom_site_label_1
_geom_bond_atom_site_label_2
_ccdc_geom_bond_type
C53   C54   S    
C73   H44   S    
C13   C77   S    
C49   C50   S    
C42   C43   A    
C23   C24   A    
C41   H39   S    
C1    O6    A    
C71   C72   S    
C52   C60   T    
C83   C84   S    
C76   H50   S    
C35   C37   A    
C65   H22   S    
C41   C42   A    
C77   H59   S    
C17   C18   A    
C43   H17   S    
C78   H55   S    
C80   H61   S    
C12   C14   S    
C72   H34   S    
C76   H51   S    
O13   V3    S    
O5    C3    A    
C18   C19   A    
C69   H32   S    
C65   C66   S    
O12   C45   A    
V2    O10   S    
C63   C64   S    
C79   H63   S    
O14   C46   A    
C39   C44   A    
C29   C30   A    
O16   V4    S    
C25   C30   A    
O19   V4    S    
C70   H30   S    
C67   C68   S    
C67   H27   S    
C80   H60   S    
O8    V2    S    
C54   C59   S    
O12   V3    S    
V3    O20   S    
C35   C36   A    
C23   C48   S    
C57   H49   S    
C10   C13   S    
C6    C14   S    
C66   H18   S    
C77   H58   S    
O1    V2    S    
C62   H5    S    
C7    C15   T    
C31   C36   A    
C63   H14   S    
C82   H69   S    
C56   C60   S    
C84   H74   S    
C73   H45   S    
C73   C74   S    
O1    C2    A    
O9    C4    A    
C66   H19   S    
C75   H54   S    
C50   C58   S    
O14   V3    S    
C58   H48   S    
C82   H68   S    
O11   C46   A    
C65   H21   S    
C53   C55   S    
C61   H8    S    
C38   C41   A    
O15   V3    S    
O18   C47   A    
C5    C12   S    
C12   C16   S    
C34   H33   S    
C80   H62   S    
C75   C76   S    
C56   C58   S    
C76   H52   S    
C28   C63   S    
O4    C2    A    
C61   H7    S    
C69   H31   S    
C8    C16   T    
C38   C39   A    
C13   C14   S    
O17   V4    S    
C17   C22   A    
C74   H43   S    
C57   C58   S    
C39   C40   A    
C49   H47   S    
C31   C65   S    
C22   C26   A    
C81   H70   S    
O2    C1    A    
C31   C32   A    
C25   C26   A    
C71   H38   S    
C19   C20   A    
C11   C12   S    
C42   H40   S    
C43   C44   A    
C5    C6    S    
C18   C83   S    
O11   V4    S    
C62   H6    S    
C14   C75   S    
C81   C82   S    
C70   H28   S    
C63   H15   S    
O3    C4    A    
C74   H42   S    
C79   H64   S    
C33   C69   S    
C28   C29   A    
C53   H2    S    
C64   H11   S    
O6    V2    S    
C64   H12   S    
C10   C15   S    
O9    V2    S    
C66   H20   S    
C55   C56   S    
C75   H53   S    
O2    V1    S    
C55   H1    S    
C82   H67   S    
C55   C57   S    
C79   C80   S    
O7    V1    S    
C50   H46   S    
C34   C35   A    
C24   C25   A    
C19   C61   S    
C17   C81   S    
C6    C10   S    
C4    C7    S    
C8    C47   S    
C24   C27   A    
C32   C33   A    
C83   H75   S    
C40   C46   S    
C30   H16   S    
O5    V1    S    
C68   H24   S    
O8    C3    A    
C5    C71   S    
C68   H23   S    
C2    C52   S    
C78   H57   S    
C84   H72   S    
C64   H13   S    
C29   H66   S    
C45   C51   S    
C6    H3    S    
O15   C47   A    
C1    C37   S    
C45   O16   A    
C20   C21   A    
C72   H36   S    
C9    C11   S    
O7    V2    S    
O4    V1    S    
O17   V3    S    
O3    V1    S    
V1    O10   S    
C71   H37   S    
C44   C73   S    
C54   C57   S    
C51   C59   T    
C32   C67   S    
C9    H65   S    
C78   H56   S    
C21   C23   A    
C49   C56   S    
C21   C22   A    
O18   V4    S    
C11   C13   S    
C3    C26   S    
O19   C48   A    
C5    C9    S    
C27   H10   S    
C70   H29   S    
C68   H25   S    
C74   H41   S    
O13   C48   A    
C67   H26   S    
C27   C28   A    
C33   C34   A    
C36   C40   A    
C20   H9    S    
V4    O20   S    
C61   C62   S    
C37   C38   A    
C50   C54   S    
C77   C78   S    
C49   C53   S    
C69   C70   S    
C81   H71   S    
C84   H73   S    
C62   H4    S    
C9    C10   S    
C11   C79   S    
C83   H76   S    
C72   H35   S    
