data_mof_unit_58002.cif
_audit_creation_date              2012-10-26T18:27:07-0400
_audit_creation_method            fapswitch 2.2
_symmetry_space_group_name_H-M    P1
_symmetry_Int_Tables_number       1
_space_group_crystal_system       triclinic
_cell_length_a                    15.012339
_cell_length_b                    10.921199
_cell_length_c                    9.707854
_cell_angle_alpha                 90.101105
_cell_angle_beta                  90.127789
_cell_angle_gamma                 90.172691
_cell_volume                      1591.61559393

loop_
_atom_site_label
_atom_site_type_symbol
_atom_type_description
_atom_site_fract_x
_atom_site_fract_y
_atom_site_fract_z
_atom_type_partial_charge
C1    C     C_R   0.501657 0.265591 0.499695 0.546533
C2    C     C_R   0.185256 0.390431 0.475886 0.196330
C3    C     C_R   0.232323 0.500455 0.497850 0.009529
C4    C     C_R   0.328995 0.499451 0.499594 0.618136
C5    C     C_R   0.187583 0.612198 0.514632 0.210871
C6    C     C_2   0.501304 0.934837 0.385218 0.238571
C7    C     C_2   0.481796 0.868343 0.499456 0.264890
C8    C     C_2   0.485710 0.068438 0.389143 -0.114247
C9    C     C_2   0.510992 0.134372 0.498654 -0.098855
C10   C     C_2   0.440706 0.442887 0.921547 -0.017494
C11   C     C_2   0.433959 0.461057 0.074714 0.033293
C12   C     C_R   0.906835 0.613506 0.531600 0.037678
C13   C     C_R   0.496940 0.735291 0.500101 0.587323
C14   C     C_R   0.670799 0.502869 0.500097 0.553644
C15   C     C_R   0.813548 0.616436 0.520863 0.250073
C16   C     C_R   0.766988 0.505799 0.500108 -0.020124
C17   C     C_R   0.811951 0.395408 0.483289 -0.179192
C18   C     C_R   0.904796 0.392273 0.487194 0.011871
C19   C     C_R   0.952661 0.502280 0.508859 -0.023813
C20   C     C_3   0.738614 0.774221 0.413931 0.009084
C21   C     C_3   0.814107 0.835119 0.332058 -0.282303
C22   C     C_3   0.777985 0.904324 0.207591 -0.450371
C23   C     C_R   0.950604 0.280784 0.473127 0.262897
C24   C     C_3   0.469323 0.906192 0.734611 -0.114566
C25   C     C_3   0.622191 0.391108 0.101874 0.061319
C26   C     C_3   0.722961 0.407064 0.087735 -0.269141
C27   C     C_3   0.771220 0.284758 0.101031 -0.488460
C28   C     C_3   0.900301 0.116149 0.591135 -0.148681
C29   C     C_3   0.257912 0.279483 0.309244 0.020113
C30   C     C_3   0.217962 0.168120 0.236188 -0.278608
C31   C     C_3   0.254641 0.155792 0.090204 -0.490660
C32   C     C_3   0.225436 0.790749 0.401014 -0.002555
C33   C     C_3   0.276435 0.737568 0.277923 -0.263777
C34   C     C_R   0.043596 0.280782 0.468854 -0.088651
C35   C     C_3   0.273486 0.822894 0.153996 -0.485007
C36   C     C_3   0.537014 0.944878 0.150026 -0.140258
C37   C     C_R   0.092033 0.390257 0.483497 -0.029388
C38   C     C_R   0.046438 0.501265 0.507476 -0.040513
C39   C     C_R   0.094248 0.611659 0.528120 0.012054
C40   C     C_R   0.047842 0.718564 0.563545 -0.140129
C41   C     C_R   0.955297 0.719629 0.564562 -0.133746
Cu1   Cu    Cu3+1 0.500020 0.500020 0.638630 0.966673
Cu2   Cu    Cu3+1 0.499980 0.499980 0.361370 0.969708
H1    H     H_    0.457088 0.113390 0.299766 0.101907
H2    H     H_    0.688126 0.845007 0.438304 0.175756
H3    H     H_    0.704675 0.704811 0.348377 0.178635
H4    H     H_    0.850747 0.900617 0.398696 0.184690
H5    H     H_    0.861465 0.764259 0.295416 0.151725
H6    H     H_    0.740187 0.841314 0.138928 0.166100
H7    H     H_    0.834183 0.944505 0.148615 0.148026
H8    H     H_    0.733776 0.979825 0.241758 0.166227
H9    H     H_    0.543348 0.898103 0.731897 0.093266
H10   H     H_    0.439293 0.825912 0.787168 0.166453
H11   H     H_    0.453533 0.987855 0.798072 0.121602
H12   H     H_    0.542335 0.092116 0.587276 0.109631
H13   H     H_    0.597616 0.333198 0.015418 0.115577
H14   H     H_    0.608318 0.342280 0.199529 0.175977
H15   H     H_    0.738306 0.448036 0.985723 0.172304
H16   H     H_    0.747788 0.470313 0.169143 0.182908
H17   H     H_    0.758015 0.243231 0.203402 0.162164
H18   H     H_    0.844102 0.299552 0.090632 0.162185
H19   H     H_    0.748813 0.220573 0.018998 0.136594
H20   H     H_    0.854446 0.036594 0.585773 0.137638
H21   H     H_    0.873060 0.179554 0.670573 0.119817
H22   H     H_    0.966916 0.081973 0.623215 0.116512
H23   H     H_    0.392947 0.382509 0.871819 0.130892
H24   H     H_    0.331515 0.270979 0.307917 0.175876
H25   H     H_    0.240317 0.363088 0.248698 0.109210
H26   H     H_    0.233706 0.084072 0.295555 0.168063
H27   H     H_    0.144442 0.177884 0.230373 0.161444
H28   H     H_    0.240064 0.239562 0.029529 0.149152
H29   H     H_    0.222831 0.076362 0.038015 0.157460
H30   H     H_    0.327834 0.141138 0.093135 0.128868
H31   H     H_    0.252074 0.883748 0.423088 0.179374
H32   H     H_    0.154308 0.802926 0.372180 0.116345
H33   H     H_    0.346834 0.724202 0.307070 0.221929
H34   H     H_    0.532081 0.571829 0.889922 0.268505
H35   H     H_    0.247205 0.647861 0.247672 0.148197
H36   H     H_    0.203466 0.841892 0.123860 0.148098
H37   H     H_    0.308168 0.779478 0.065654 0.159176
H38   H     H_    0.307983 0.910104 0.179017 0.147412
H39   H     H_    0.576402 0.031131 0.155750 0.100280
H40   H     H_    0.466316 0.963247 0.122854 0.103583
H41   H     H_    0.565517 0.888849 0.065604 0.142841
H42   H     H_    0.371671 0.435382 0.122684 0.064913
H43   H     H_    0.773817 0.311948 0.467926 0.150122
H44   H     H_    0.077364 0.194112 0.455672 0.160389
H45   H     H_    0.082855 0.802437 0.589150 0.145929
H46   H     H_    0.921975 0.804347 0.590296 0.144801
N1    N     N_2   0.499020 0.498660 0.846910 -0.344101
N2    N     N_2   0.499000 0.498630 0.153040 -0.041891
O1    O     O_R   0.500020 0.321960 0.617040 -0.491883
O2    O     O_3   0.430327 0.921576 0.603088 -0.583434
O3    O     O_3   0.581045 0.507526 0.096541 -0.485975
O4    O     O_3   0.904547 0.171520 0.460065 -0.590095
O5    O     O_3   0.230226 0.282249 0.448904 -0.576937
O6    O     O_3   0.236902 0.719931 0.522517 -0.558117
O7    O     O_3   0.543684 0.878022 0.273776 -0.578621
O8    O     O_R   0.499980 0.321920 0.382900 -0.549049
O9    O     O_R   0.370270 0.499990 0.617090 -0.476880
O10   O     O_R   0.370240 0.499950 0.382940 -0.555057
O11   O     O_R   0.500020 0.678080 0.617100 -0.510559
O12   O     O_R   0.499980 0.678040 0.382960 -0.462553
O13   O     O_R   0.629760 0.500050 0.617060 -0.481977
O14   O     O_R   0.629730 0.500010 0.382910 -0.504676
O15   O     O_3   0.768559 0.725834 0.541359 -0.596801

loop_
_geom_bond_atom_site_label_1
_geom_bond_atom_site_label_2
_ccdc_geom_bond_type
C24   H9    S    
C41   H46   S    
C34   C37   A    
C25   H13   S    
C1    O8    A    
C32   H32   S    
C35   H38   S    
C11   H42   S    
C26   C27   S    
C37   C38   A    
C28   O4    S    
C6    O7    S    
C15   O15   S    
C19   C38   A    
Cu2   O8    S    
C27   H17   S    
C32   H31   S    
C30   C31   S    
C33   H35   S    
C31   H30   S    
C36   H40   S    
C24   H11   S    
C15   C16   A    
C35   H37   S    
C32   O6    S    
C18   C19   A    
Cu2   O14   S    
C27   H18   S    
C29   H24   S    
C14   O14   A    
C36   H39   S    
C8    C9    D    
C9    H12   S    
C13   O12   A    
C26   H16   S    
C20   H2    S    
C22   H7    S    
C21   H5    S    
C31   H28   S    
C25   O3    S    
C21   C22   S    
C25   H14   S    
Cu1   O11   S    
C30   H27   S    
C20   O15   S    
C10   H23   S    
C7    O2    S    
H34   N1    S    
C18   C23   A    
C1    C9    S    
C39   C40   A    
C16   C17   A    
C6    C8    S    
C25   C26   S    
C2    O5    S    
Cu2   N2    S    
C17   H43   S    
Cu1   N1    S    
Cu2   O10   S    
C29   C30   S    
C27   H19   S    
Cu1   O9    S    
C29   H25   S    
C33   H33   S    
C14   O13   A    
C12   C15   A    
C23   C34   A    
C4    O10   A    
C17   C18   A    
C26   H15   S    
C22   H6    S    
C28   H21   S    
C40   C41   A    
C5    O6    S    
C1    O1    A    
C4    O9    A    
C14   C16   S    
Cu1   Cu2   S    
C3    C4    S    
C30   H26   S    
C12   C41   A    
C31   H29   S    
C8    H1    S    
C3    C5    A    
Cu1   O13   S    
C29   O5    S    
C6    C7    D    
C32   C33   S    
C40   H45   S    
C5    C39   A    
C2    C3    A    
C24   H10   S    
C24   O2    S    
N2    O3    S    
C2    C37   A    
C38   C39   A    
C36   H41   S    
C12   C19   A    
C35   H36   S    
C33   C35   S    
C23   O4    S    
C28   H22   S    
Cu1   O1    S    
C34   H44   S    
Cu2   O12   S    
C10   C11   S    
C28   H20   S    
C11   N2    D    
C7    C13   S    
C20   C21   S    
C10   N1    D    
C36   O7    S    
C13   O11   A    
C20   H3    S    
C22   H8    S    
C21   H4    S    
