data_mof_unit_67336.cif
_audit_creation_date              2012-12-11T18:55:34-0500
_audit_creation_method            fapswitch 2.2
_symmetry_space_group_name_H-M    P1
_symmetry_Int_Tables_number       1
_space_group_crystal_system       triclinic
_cell_length_a                    8.693413
_cell_length_b                    15.267066
_cell_length_c                    16.841995
_cell_angle_alpha                 111.569377
_cell_angle_beta                  98.836624
_cell_angle_gamma                 79.796487
_cell_volume                      2036.32426145

loop_
_atom_site_label
_atom_site_type_symbol
_atom_type_description
_atom_site_fract_x
_atom_site_fract_y
_atom_site_fract_z
_atom_type_partial_charge
Ba1   Ba    Ba6+2 0.364200 0.465260 0.540910 1.798950
Ba2   Ba    Ba6+2 0.825640 0.534660 0.459080 1.847228
C1    C     C_3   0.315500 0.155703 0.711824 0.312763
C2    C     C_R   0.887689 0.517880 0.749721 -0.164674
C3    C     C_2   0.486217 0.410166 0.143804 -0.041993
C4    C     C_3   0.719436 0.295243 0.764991 0.619473
C5    C     C_2   0.457826 0.437265 0.226242 0.023463
C6    C     C_2   0.179534 0.501210 0.192754 -0.027878
C7    C     C_3   0.196418 0.451595 0.096121 -0.025196
C8    C     C_3   0.368590 0.433230 0.076060 0.276976
C9    C     C_2   0.078875 0.490815 0.034287 0.047027
C10   C     C_2   0.113574 0.495659 0.959637 0.091165
C11   C     C_R   0.853955 0.583464 0.923497 -0.047501
C12   C     C_3   0.308857 0.256732 0.708528 0.359024
C13   C     C_R   0.993120 0.525468 0.895963 -0.058658
C14   C     C_R   0.736300 0.612592 0.867609 0.317119
C15   C     C_R   0.747424 0.576999 0.778943 0.034427
C16   C     C_3   0.638235 0.306387 0.845556 0.279416
C17   C     C_R   0.015281 0.498854 0.807831 0.115922
C18   C     C_R   0.845031 0.183077 0.533634 0.043880
C19   C     C_R   0.073467 0.203576 0.475608 0.101235
C20   C     C_R   0.237765 0.769463 0.482820 -0.268333
C21   C     C_R   0.331341 0.822293 0.464337 -0.066740
C22   C     C_R   0.286885 0.920092 0.481920 -0.126927
C23   C     C_3   0.124800 0.767167 0.742633 0.622355
C24   C     C_R   0.139424 0.965068 0.512117 0.036472
C25   C     C_R   0.051437 0.912747 0.541733 -0.043764
C26   C     C_R   0.070526 0.056465 0.506561 0.036194
C27   C     C_R   0.913341 0.089894 0.527046 -0.023756
C28   C     C_3   0.587550 0.199097 0.273660 0.645796
C29   C     C_R   0.828501 0.032471 0.546789 0.018744
C30   C     C_R   0.902656 0.958091 0.572121 0.375202
C31   C     C_R   0.145597 0.112699 0.475685 -0.154769
C32   C     C_R   0.928231 0.239740 0.510527 -0.135633
C33   C     C_R   0.104713 0.813266 0.525793 0.066812
C34   C     C_3   0.210614 0.836237 0.820568 -0.175594
C35   C     C_3   0.495773 0.117381 0.214780 0.331292
C36   C     C_3   0.491275 0.762282 0.652310 0.372342
C37   C     C_3   0.440476 0.869390 0.676341 -0.281306
C38   C     C_3   0.154155 0.299656 0.277748 0.337894
C39   C     C_3   0.101285 0.264180 0.182142 -0.253973
C40   C     C_3   0.428282 0.741862 0.260949 0.232043
C41   C     C_3   0.460678 0.750930 0.177636 0.723085
C42   C     C_3   0.944862 0.717133 0.218961 0.557452
C43   C     C_3   0.905613 0.748648 0.140873 0.358171
C44   C     C_2   0.301664 0.491175 0.251529 -0.283703
H1    H     H_    0.419959 0.270930 0.698965 0.011107
H2    H     H_    0.206079 0.126611 0.678357 0.017212
H3    H     H_    0.202656 0.701383 0.713499 -0.022558
H4    H     H_    0.138133 0.906722 0.842588 0.187215
H5    H     H_    0.234403 0.810877 0.875468 0.191959
H6    H     H_    0.323892 0.845723 0.805275 0.100012
H7    H     H_    0.448357 0.664916 0.252376 0.011158
H8    H     H_    0.305424 0.769822 0.273156 -0.021830
H9    H     H_    0.072841 0.701247 0.232148 -0.055445
H10   H     H_    0.779623 0.759502 0.131736 0.077905
H11   H     H_    0.688899 0.364537 0.755163 -0.080862
H12   H     H_    0.549627 0.051775 0.226148 0.169684
H13   H     H_    0.597393 0.368743 0.124017 0.167637
H14   H     H_    0.283754 0.517847 0.319128 0.048021
H15   H     H_    0.902579 0.492323 0.681986 0.085073
H16   H     H_    0.705735 0.053391 0.555775 0.134247
H17   H     H_    0.364215 0.957498 0.465606 0.094445
H18   H     H_    0.591930 0.382482 0.876131 0.019058
H19   H     H_    0.536378 0.268489 0.824299 0.061838
H20   H     H_    0.533250 0.234918 0.335085 -0.101843
H21   H     H_    0.644565 0.043798 0.002866 0.407807
H22   H     H_    0.580889 0.740078 0.605923 0.093883
H23   H     H_    0.374709 0.131464 0.232980 -0.030236
H24   H     H_    0.464765 0.894323 0.626155 0.103837
H25   H     H_    0.277197 0.314712 0.287790 -0.102172
H26   H     H_    0.408538 0.107891 0.672661 0.028210
H27   H     H_    0.133607 0.310487 0.151643 0.054044
H28   H     H_    0.971932 0.264502 0.172003 0.168091
H29   H     H_    0.127441 0.662300 0.841726 0.309181
H30   H     H_    0.245547 0.062690 0.873986 0.391751
H31   H     H_    0.909688 0.323669 0.038385 0.362501
H32   H     H_    0.585561 0.723482 0.171281 -0.011103
H33   H     H_    0.177606 0.690708 0.990005 0.373335
H34   H     H_    0.388061 0.724175 0.621844 -0.147451
H35   H     H_    0.354541 0.934804 0.307594 0.325170
H36   H     H_    0.109981 0.841787 0.347447 0.302947
H37   H     H_    0.093533 0.956013 0.250568 0.377316
H38   H     H_    0.949128 0.691825 0.083092 -0.006953
H39   H     H_    0.646456 0.664111 0.023799 0.319362
H40   H     H_    0.958187 0.511497 0.049633 0.102267
H41   H     H_    0.232329 0.470886 0.941984 0.124231
H42   H     H_    0.876656 0.311777 0.517376 0.068893
H43   H     H_    0.258362 0.087499 0.450653 0.092556
H44   H     H_    0.014481 0.244229 0.663011 0.289775
H45   H     H_    0.313057 0.887275 0.683539 0.088773
H46   H     H_    0.276894 0.694548 0.469988 0.019337
H47   H     H_    0.721879 0.094284 0.756449 0.426635
H48   H     H_    0.986439 0.094832 0.222909 0.370021
H49   H     H_    0.505276 0.909462 0.737515 0.237218
H50   H     H_    0.076577 0.366519 0.307346 0.076135
H51   H     H_    0.157125 0.190562 0.150611 0.181449
H52   H     H_    0.239215 0.257661 0.648211 -0.056684
O1    O     O_2   0.428380 0.595290 0.716080 -0.477248
O2    O     O_2   0.645530 0.817642 0.482030 -0.402958
O3    O     O_3   0.529106 0.792275 0.328980 -0.533039
O4    O     O_3   0.649320 0.571640 0.606850 -0.502493
O5    O     O_3   0.067570 0.379360 0.450830 -0.490134
O6    O     O_2   0.850910 0.734710 0.551660 -0.373863
O7    O     O_3   0.064974 0.812750 0.684737 -0.594484
O8    O     O_2   0.881999 0.466119 0.195975 -0.468185
O9    O     O_3   0.865258 0.637918 0.201068 -0.631421
O10   O     O_3   0.202060 0.415890 0.655600 -0.503156
O11   O     O_2   0.345716 0.495515 0.809963 -0.476079
O12   O     O_3   0.144193 0.228349 0.310187 -0.598634
O13   O     O_3   0.555518 0.742727 0.726594 -0.535291
O14   O     O_3   0.256538 0.329723 0.782821 -0.531662
O15   O     O_2   0.338780 0.265250 0.448290 -0.479817
O16   O     O_3   0.612600 0.359160 0.609560 -0.499333
O17   O     O_2   0.524413 0.190182 0.539049 -0.491398
O18   O     O_2   0.376612 0.022105 0.054315 -0.202691
O19   O     O_2   0.419718 0.185136 0.082992 -0.288015
O20   O     O_3   0.662494 0.055285 0.065206 -0.352615
O21   O     O_2   0.848341 0.830513 0.808955 -0.148052
O22   O     O_2   0.892073 0.671626 0.699192 -0.385652
O23   O     O_3   0.670058 0.220037 0.690963 -0.636495
O24   O     O_3   0.023529 0.699118 0.856099 -0.562965
O25   O     O_2   0.508548 0.103946 0.835080 -0.255694
O26   O     O_2   0.300029 0.235146 0.886990 -0.183435
O27   O     O_3   0.228470 0.064423 0.815027 -0.439518
O28   O     O_2   0.622012 0.248172 0.976279 -0.222228
O29   O     O_2   0.854059 0.178340 0.899274 -0.172935
O30   O     O_3   0.836914 0.354489 0.002217 -0.511195
O31   O     O_2   0.461479 0.583579 0.045936 -0.351672
O32   O     O_2   0.227759 0.646118 0.121121 -0.473806
O33   O     O_3   0.273575 0.721253 0.014722 -0.350567
O34   O     O_2   0.761310 0.404670 0.283870 -0.433726
O35   O     O_2   0.564623 0.884880 0.139851 -0.163623
O36   O     O_2   0.287723 0.893757 0.122806 -0.125128
O37   O     O_3   0.425653 0.953451 0.278005 -0.520139
O38   O     O_2   0.729878 0.867023 0.293157 -0.174482
O39   O     O_2   0.858766 0.768063 0.377494 -0.281756
O40   O     O_3   0.010252 0.884340 0.353539 -0.501701
O41   O     O_2   0.998392 0.852011 0.062485 -0.153488
O42   O     O_2   0.827752 0.936411 0.175753 -0.141556
O43   O     O_3   0.112423 0.886140 0.222130 -0.524821
O44   O     O_2   0.604298 0.792646 0.899021 -0.173626
O45   O     O_3   0.540390 0.428280 0.393140 -0.526056
O46   O     O_2   0.428926 0.674401 0.876433 -0.283850
O47   O     O_3   0.602349 0.725395 0.017132 -0.420039
O48   O     O_2   0.993145 0.327352 0.865663 -0.239249
O49   O     O_2   0.973135 0.168519 0.759183 -0.215435
O50   O     O_3   0.975908 0.305390 0.704364 -0.635442
O51   O     O_2   0.768115 0.880792 0.665514 -0.240473
O52   O     O_2   0.965484 0.986330 0.740678 -0.203590
O53   O     O_3   0.688251 0.054799 0.697395 -0.517574
O54   O     O_2   0.848977 0.244780 0.351318 -0.403451
O55   O     O_2   0.800536 0.085747 0.339087 -0.298733
O56   O     O_3   0.987650 0.584030 0.344390 -0.453079
O57   O     O_3   0.875210 0.111781 0.204387 -0.411886
O58   O     O_3   0.593823 0.260720 0.231494 -0.598262
O59   O     O_3   0.122140 0.620560 0.549160 -0.505396
O60   O     O_3   0.577110 0.640760 0.390430 -0.486106
P1    P     P_3+3 0.592580 0.619730 0.703530 1.149564
P2    P     P_3+3 0.156500 0.273340 0.422460 1.069386
P3    P     P_3+3 0.666282 0.239380 0.592693 0.987954
P4    P     P_3+3 0.597130 0.380190 0.296460 1.069126
P5    P     P_3+3 0.516926 0.764365 0.418636 1.026173
P6    P     P_3+3 0.206913 0.438350 0.765038 1.036547
P7    P     P_3+3 0.034447 0.741223 0.576172 1.105299
P8    P     P_3+3 0.982701 0.548352 0.232900 0.988125
S1    S     S_3+6 0.484358 0.095673 0.101251 0.059933
S2    S     S_3+6 0.923264 0.272649 0.778433 -0.042784
S3    S     S_3+6 0.834632 0.966050 0.669887 -0.005575
S4    S     S_3+6 0.784063 0.156566 0.294670 -0.060525
S5    S     S_3+6 0.963651 0.742467 0.777155 -0.038848
S6    S     S_3+6 0.342038 0.142924 0.816094 0.043472
S7    S     S_3+6 0.741013 0.267403 0.931031 0.029897
S8    S     S_3+6 0.354771 0.672432 0.088033 -0.082723
S9    S     S_3+6 0.430497 0.872066 0.177914 0.074936
S10   S     S_3+6 0.878668 0.809729 0.312711 -0.021397
S11   S     S_3+6 0.960571 0.858633 0.148708 0.088844
S12   S     S_3+6 0.587510 0.703354 0.913073 0.046306

loop_
_geom_bond_atom_site_label_1
_geom_bond_atom_site_label_2
_ccdc_geom_bond_type
O29   S7    D    
C30   S3    S    
O38   S10   D    
O17   P3    D    
Ba2   O45   S    
C38   H25   S    
C35   H23   S    
H29   O24   S    
O20   S1    S    
C35   H12   S    
C29   H16   S    
Ba2   P4    S    
C23   O7    S    
C35   S1    S    
O44   S12   D    
O32   S8    D    
C16   H19   S    
C13   C17   A    
C20   C33   A    
O10   P6    S    
C24   C25   A    
C15   P1    S    
O43   S11   S    
O8    P8    D    
C26   C27   A    
H39   O47   S    
O1    P1    D    
C40   H7    S    
C36   C37   S    
C41   S8    S    
O5    P2    S    
O52   S3    D    
C19   C31   A    
Ba2   O4    S    
C9    H40   S    
C1    H2    S    
H31   O30   S    
Ba1   Ba2   S    
O27   S6    S    
O13   P1    S    
C28   S4    S    
H44   O50   S    
O6    P7    D    
C2    C17   A    
C41   S9    S    
C43   H10   S    
C6    C7    S    
O47   S12   S    
Ba2   O34   S    
C21   C22   A    
O18   S1    D    
C12   H52   S    
Ba2   O6    S    
C7    C8    S    
Ba1   O5    S    
O45   P4    S    
O25   S6    D    
C34   H6    S    
C43   S11   S    
C18   C32   A    
C23   S5    S    
C28   O58   S    
C39   H28   S    
O9    P8    S    
O23   P3    S    
Ba2   O56   S    
H30   O27   S    
C4    H11   S    
Ba1   O1    S    
C4    O23   S    
Ba1   O15   S    
C38   H50   S    
O14   P6    S    
C37   H45   S    
H21   O20   S    
C14   S12   S    
H35   O37   S    
C21   P5    S    
C18   C27   A    
C4    C16   S    
C5    P4    S    
C4    S2    S    
O36   S9    D    
C3    H13   S    
C5    C44   S    
Ba1   P1    S    
H48   O57   S    
O39   S10   D    
O59   P7    S    
C3    C5    D    
C14   C15   A    
O16   P3    S    
C38   O12   S    
C19   C32   A    
Ba1   O10   S    
C25   C33   A    
C2    H15   S    
C28   C35   S    
C41   H32   S    
O37   S9    S    
O55   S4    D    
C12   O14   S    
O41   S11   D    
C31   H43   S    
O54   S4    D    
C29   C30   A    
O26   S6    D    
C10   C13   S    
O3    P5    S    
Ba2   O60   S    
H33   O33   S    
O42   S11   D    
O30   S7    S    
C32   H42   S    
O28   S7    D    
C37   H49   S    
C28   H20   S    
C34   H5    S    
C6    P8    S    
O60   P5    S    
C2    C15   A    
C38   C39   S    
C36   H22   S    
C26   C31   A    
C22   H17   S    
C7    C9    S    
O40   S10   S    
O50   S2    S    
C19   P2    S    
O51   S3    D    
O31   S8    D    
H47   O53   S    
C43   H38   S    
C40   C41   S    
C40   O3    S    
C34   H4    S    
C42   C43   S    
H37   O43   S    
C42   O9    S    
O34   P4    D    
O48   S2    D    
C10   H41   S    
C44   H14   S    
C25   C30   A    
Ba1   P2    S    
C42   S10   S    
C22   C24   A    
O11   P6    D    
O4    P1    S    
C9    C10   D    
O22   S5    D    
C12   H1    S    
C1    C12   S    
Ba1   O45   S    
O33   S8    S    
C24   C26   A    
O53   S3    S    
C11   C13   A    
C1    H26   S    
C3    C8    S    
O35   S9    D    
C40   H8    S    
C42   H9    S    
C16   H18   S    
O46   S12   D    
C36   H34   S    
Ba2   O5    S    
O19   S1    D    
Ba2   O59   S    
C18   P3    S    
Ba1   O59   S    
C33   P7    S    
C37   H24   S    
O7    P7    S    
H36   O40   S    
O2    P5    D    
C39   H51   S    
C17   P6    S    
O15   P2    D    
C1    S6    S    
O12   P2    S    
C23   H3    S    
O49   S2    D    
C23   C34   S    
C39   H27   S    
C16   S7    S    
O57   S4    S    
C27   C29   A    
O24   S5    S    
Ba1   O16   S    
C11   C14   A    
C20   H46   S    
C20   C21   A    
O56   P8    S    
C6    C44   D    
C36   O13   S    
Ba1   O4    S    
O58   P4    S    
O21   S5    D    
