data_mof_unit_40908.cif
_audit_creation_date              2012-12-10T20:34:52-0500
_audit_creation_method            fapswitch 2.2
_symmetry_space_group_name_H-M    P1
_symmetry_Int_Tables_number       1
_space_group_crystal_system       triclinic
_cell_length_a                    10.641274
_cell_length_b                    10.67092
_cell_length_c                    9.890892
_cell_angle_alpha                 89.975206
_cell_angle_beta                  90.554681
_cell_angle_gamma                 90.127521
_cell_volume                      1123.07687663

loop_
_atom_site_label
_atom_site_type_symbol
_atom_type_description
_atom_site_fract_x
_atom_site_fract_y
_atom_site_fract_z
_atom_type_partial_charge
C1    C     C_R   0.503574 0.260091 0.500147 0.877145
C2    C     C_3   0.878620 0.500226 0.500253 0.193202
C3    C     C_3   0.928670 0.618145 0.574754 -0.398822
C4    C     C_3   0.927169 0.501568 0.352634 -0.396170
C5    C     C_R   0.513423 0.063816 0.623187 0.102342
C6    C     C_R   0.522337 0.128640 0.501580 -0.111960
C7    C     C_R   0.554216 0.065008 0.382738 -0.226672
C8    C     C_R   0.554270 0.935357 0.382674 -0.232435
C9    C     C_R   0.522405 0.871441 0.501459 -0.099652
C10   C     C_R   0.513433 0.936070 0.623115 0.132584
C11   C     C_3   0.415323 0.928542 0.730035 -0.524337
C12   C     C_R   0.257651 0.500021 0.499568 0.831378
C13   C     C_3   0.415301 0.070593 0.730120 -0.381005
C14   C     C_R   0.392629 0.524228 0.069651 0.122456
C15   C     C_R   0.608572 0.484436 0.072909 -0.124378
C16   C     C_R   0.608593 0.484631 0.929288 -0.111869
C17   C     C_R   0.392672 0.523499 0.927259 0.098698
C18   C     C_3   0.274619 0.448813 0.920052 0.454595
C19   C     C_3   0.273395 0.450653 0.072891 -0.550431
C20   C     C_R   0.503628 0.739916 0.500052 0.870137
C21   C     C_R   0.742254 0.500184 0.500300 0.819522
C22   C     C_3   0.072348 0.380721 0.571609 -0.383836
C23   C     C_3   0.927997 0.380943 0.572322 -0.414239
C24   C     C_3   0.073038 0.618301 0.573995 -0.407741
C25   C     C_3   0.069584 0.501501 0.352695 -0.402806
C26   C     C_3   0.121079 0.500132 0.499502 0.175988
H1    H     H_    0.108059 0.376781 0.677508 0.212769
H2    H     H_    0.892598 0.586397 0.298192 0.172274
H3    H     H_    0.107659 0.704546 0.522894 0.155289
H4    H     H_    0.892862 0.704491 0.524396 0.156928
H5    H     H_    0.570925 0.114336 0.288848 0.174988
H6    H     H_    0.571040 0.886208 0.288750 0.171263
H7    H     H_    0.325602 0.886919 0.692542 0.198428
H8    H     H_    0.452544 0.887455 0.825605 0.208486
H9    H     H_    0.325555 0.111813 0.692676 0.222380
H10   H     H_    0.452531 0.111643 0.825761 0.235314
H11   H     H_    0.695932 0.469969 0.127209 0.138080
H12   H     H_    0.106578 0.295345 0.518918 0.157284
H13   H     H_    0.695947 0.470423 0.876621 0.135265
H14   H     H_    0.195122 0.499938 0.872056 0.041503
H15   H     H_    0.194657 0.507786 0.110606 0.141200
H16   H     H_    0.284801 0.356947 0.120700 0.235768
H17   H     H_    0.891766 0.295559 0.520174 0.159471
H18   H     H_    0.894717 0.377767 0.678649 0.175980
H19   H     H_    0.108951 0.620448 0.679962 0.165772
H20   H     H_    0.895476 0.619375 0.681150 0.173141
H21   H     H_    0.103186 0.586981 0.299395 0.173714
H22   H     H_    0.102490 0.416863 0.297779 0.179471
H23   H     H_    0.892271 0.417687 0.296537 0.171808
N1    N     N_R   0.499150 0.499140 0.142800 -0.086048
N2    N     N_R   0.499150 0.499180 0.857150 -0.078110
O1    O     O_R   0.500020 0.316790 0.614690 -0.577229
O2    O     O_R   0.500000 0.316760 0.385350 -0.620545
O3    O     O_R   0.314800 0.500000 0.614670 -0.609359
O4    O     O_R   0.314790 0.499960 0.385330 -0.622385
O5    O     O_R   0.500000 0.683240 0.614650 -0.620904
O6    O     O_R   0.499980 0.683210 0.385310 -0.619946
O7    O     O_R   0.685210 0.500040 0.614670 -0.639329
O8    O     O_R   0.685200 0.500000 0.385330 -0.639752
Zn1   Zn    Zn3+2 0.500010 0.500020 0.653130 0.972144
Zn2   Zn    Zn3+2 0.499990 0.499980 0.346870 0.939082
F1    F     F_    0.294146 0.329783 0.868770 -0.665887

loop_
_geom_bond_atom_site_label_1
_geom_bond_atom_site_label_2
_ccdc_geom_bond_type
C3    H4    S    
C2    C4    S    
C16   N2    A    
O6    Zn2   S    
C6    C7    A    
O1    Zn1   S    
C9    C10   A    
C25   H21   S    
C9    C20   S    
C5    C13   S    
C25   H22   S    
C19   H16   S    
C4    H23   S    
C20   O5    A    
C21   O7    A    
C17   N2    A    
C2    C21   S    
C17   C18   S    
C20   O6    A    
C5    C10   A    
C21   O8    A    
O3    Zn1   S    
C11   C13   S    
C14   C17   A    
C3    C24   S    
C14   N1    A    
C24   H19   S    
O4    Zn2   S    
C4    H2    S    
C24   C26   S    
C4    C25   S    
C2    C3    S    
C22   H1    S    
C11   H8    S    
C5    C6    A    
C1    O1    A    
C12   O3    A    
O8    Zn2   S    
C12   O4    A    
C7    H5    S    
C10   C11   S    
C16   H13   S    
O7    Zn1   S    
C15   C16   A    
C8    H6    S    
C19   H15   S    
C11   H7    S    
C23   H17   S    
C13   H10   S    
C7    C8    A    
C22   C26   S    
C15   N1    A    
C2    C23   S    
N1    Zn2   S    
C18   C19   S    
C18   H14   S    
C22   C23   S    
C15   H11   S    
C1    O2    A    
N2    Zn1   S    
C3    H20   S    
C25   C26   S    
C24   H3    S    
O2    Zn2   S    
C14   C19   S    
C13   H9    S    
C18   F1    S    
C23   H18   S    
O5    Zn1   S    
C12   C26   S    
C8    C9    A    
C22   H12   S    
C1    C6    S    
