data_mof_unit_64412.cif
_audit_creation_date              2012-12-11T21:17:35-0500
_audit_creation_method            fapswitch 2.2
_symmetry_space_group_name_H-M    P1
_symmetry_Int_Tables_number       1
_space_group_crystal_system       triclinic
_cell_length_a                    23.388949
_cell_length_b                    29.740182
_cell_length_c                    8.376527
_cell_angle_alpha                 89.881333
_cell_angle_beta                  92.988898
_cell_angle_gamma                 90.092116
_cell_volume                      5818.69654564

loop_
_atom_site_label
_atom_site_type_symbol
_atom_type_description
_atom_site_fract_x
_atom_site_fract_y
_atom_site_fract_z
_atom_type_partial_charge
Ba1   Ba    Ba6+2 0.999920 0.468170 0.845000 1.653771
Ba2   Ba    Ba6+2 0.999920 0.531830 0.345000 1.653457
Ba3   Ba    Ba6+2 0.499920 0.968170 0.845000 1.652219
Ba4   Ba    Ba6+2 0.499920 0.031830 0.345000 1.652033
C1    C     C_3   0.037236 0.253349 0.640403 -0.368175
C2    C     C_R   0.122482 0.315407 0.365150 -0.156867
C3    C     C_R   0.273645 0.242753 0.945968 -0.083817
C4    C     C_R   0.272279 0.718037 0.538113 -0.085018
C5    C     C_R   0.272551 0.281311 0.037986 -0.084684
C6    C     C_R   0.774343 0.216888 0.534597 -0.084665
C7    C     C_R   0.774594 0.781881 0.036987 -0.083074
C8    C     C_R   0.241742 0.681405 0.480136 -0.061891
C9    C     C_R   0.241739 0.317869 0.980547 -0.062879
C10   C     C_R   0.743194 0.180482 0.477337 -0.063204
C11   C     C_R   0.743568 0.818451 0.980552 -0.064321
C12   C     C_R   0.215062 0.683243 0.328257 -0.064307
C13   C     C_R   0.623498 0.184258 0.862842 -0.156730
C14   C     C_R   0.214865 0.316114 0.828924 -0.065525
C15   C     C_R   0.716084 0.182530 0.326087 -0.064961
C16   C     C_R   0.716068 0.816696 0.829775 -0.064937
C17   C     C_3   0.162192 0.470520 0.190125 0.322557
C18   C     C_3   0.162422 0.529407 0.690546 0.322733
C19   C     C_3   0.662041 0.970462 0.190047 0.322795
C20   C     C_3   0.662475 0.029401 0.690263 0.322934
C21   C     C_3   0.214013 0.439660 0.200471 -0.399572
C22   C     C_3   0.214360 0.560254 0.701171 -0.399952
C23   C     C_3   0.713813 0.939553 0.200550 -0.400359
C24   C     C_R   0.622506 0.815549 0.366799 -0.157684
C25   C     C_3   0.714417 0.060244 0.700492 -0.400502
C26   C     C_3   0.793166 0.492737 0.173652 0.256821
C27   C     C_3   0.788625 0.510647 0.669278 0.272836
C28   C     C_3   0.292458 0.992550 0.174919 0.270928
C29   C     C_3   0.292163 0.007520 0.675069 0.271048
C30   C     C_3   0.737031 0.467405 0.144151 -0.454316
C31   C     C_3   0.728206 0.519181 0.600852 -0.443712
C32   C     C_3   0.230542 0.981827 0.125622 -0.442545
C33   C     C_3   0.230324 0.018122 0.624808 -0.442466
C34   C     C_3   0.012873 0.300088 0.607899 0.353702
C35   C     C_R   0.092504 0.648339 0.795137 0.002982
C36   C     C_3   0.013325 0.699979 0.106468 0.353837
C37   C     C_3   0.513001 0.800141 0.608696 0.352686
C38   C     C_3   0.513801 0.199566 0.106864 0.354309
C39   C     C_R   0.173316 0.632196 0.038772 -0.153311
C40   C     C_R   0.173042 0.367726 0.540087 -0.153229
C41   C     C_R   0.673745 0.131618 0.037444 -0.154259
C42   C     C_R   0.673000 0.868108 0.540921 -0.152555
C43   C     C_3   0.685635 0.385000 0.731373 -0.198926
C44   C     C_3   0.620835 0.390530 0.700547 -0.196274
C45   C     C_3   0.606203 0.436532 0.628866 -0.431822
C46   C     C_R   0.092266 0.351666 0.296246 0.002884
C47   C     C_3   0.690177 0.614652 0.230289 -0.202242
C48   C     C_3   0.668311 0.615271 0.053937 -0.197724
C49   C     C_3   0.661114 0.567819 0.987767 -0.441683
C50   C     C_3   0.183448 0.886944 0.738257 -0.201001
C51   C     C_3   0.118674 0.892549 0.706917 -0.194656
C52   C     C_3   0.104192 0.938492 0.634451 -0.430246
C53   C     C_3   0.183698 0.113540 0.236682 -0.200911
C54   C     C_3   0.118961 0.107646 0.205076 -0.194628
C55   C     C_3   0.104733 0.061784 0.131971 -0.430379
C56   C     C_R   0.592770 0.148186 0.794538 0.003278
C57   C     C_R   0.592156 0.851680 0.297257 0.002073
C58   C     C_R   0.860474 0.321209 0.353679 -0.156034
C59   C     C_R   0.860503 0.678658 0.853222 -0.155902
C60   C     C_R   0.359308 0.821608 0.355968 -0.155016
C61   C     C_3   0.037901 0.746684 0.138801 -0.367752
C62   C     C_R   0.359602 0.178353 0.854605 -0.155147
C63   C     C_R   0.892685 0.357219 0.416641 0.015648
C64   C     C_R   0.893270 0.642901 0.915593 0.013692
C65   C     C_R   0.392656 0.857206 0.417114 0.014075
C66   C     C_R   0.392904 0.142787 0.916096 0.014065
C67   C     C_R   0.832437 0.365060 0.123014 -0.159341
C68   C     C_R   0.832376 0.634787 0.623193 -0.159988
C69   C     C_R   0.331474 0.865528 0.124989 -0.159270
C70   C     C_R   0.331537 0.134436 0.624310 -0.158922
C71   C     C_R   0.868655 0.399919 0.179275 0.000714
C72   C     C_3   0.537566 0.753516 0.642201 -0.367193
C73   C     C_R   0.869414 0.600310 0.678401 0.004914
C74   C     C_R   0.368878 0.899842 0.179327 0.003082
C75   C     C_R   0.369000 0.100171 0.678769 0.003073
C76   C     C_R   0.167259 0.677555 0.984300 0.010192
C77   C     C_R   0.167001 0.322406 0.485407 0.009856
C78   C     C_R   0.668078 0.176911 0.982698 0.009881
C79   C     C_R   0.667107 0.822829 0.486873 0.009525
C80   C     C_R   0.090216 0.608361 0.879417 -0.250531
C81   C     C_R   0.090041 0.391590 0.380258 -0.250286
C82   C     C_R   0.590176 0.108268 0.879150 -0.251255
C83   C     C_3   0.538679 0.246204 0.138542 -0.367584
C84   C     C_R   0.589867 0.891648 0.380846 -0.250633
C85   C     C_R   0.820986 0.326950 0.220030 0.009185
C86   C     C_R   0.820755 0.672743 0.720324 0.010707
C87   C     C_R   0.319704 0.827614 0.222740 0.010179
C88   C     C_R   0.319870 0.172318 0.721755 0.010341
C89   C     C_3   0.971635 0.303028 0.081912 0.365675
C90   C     C_3   0.971628 0.696819 0.580724 0.366208
C91   C     C_3   0.470982 0.803455 0.083276 0.365548
C92   C     C_3   0.471424 0.196543 0.581749 0.365200
C93   C     C_R   0.896179 0.396691 0.329628 -0.236718
C94   C     C_R   0.128623 0.600895 0.008714 0.051687
C95   C     C_R   0.897289 0.603649 0.828203 -0.233174
C96   C     C_R   0.397027 0.896377 0.328801 -0.235909
C97   C     C_R   0.397228 0.103653 0.828135 -0.235905
C98   C     C_R   0.197997 0.760893 0.798215 -0.106908
C99   C     C_R   0.197744 0.239532 0.298287 -0.106819
C100  C     C_R   0.700201 0.259085 0.794324 -0.106759
C101  C     C_R   0.699766 0.741822 0.297619 -0.109617
C102  C     C_R   0.692272 0.300593 0.719098 -0.075553
C103  C     C_R   0.692319 0.700851 0.219705 -0.064286
C104  C     C_R   0.189969 0.802586 0.724342 -0.075031
C105  C     C_R   0.128452 0.399045 0.509540 0.051810
C106  C     C_R   0.189792 0.197965 0.223930 -0.074962
C107  C     C_R   0.699347 0.340042 0.807341 0.062941
C108  C     C_R   0.700277 0.660590 0.304686 0.063128
C109  C     C_R   0.197065 0.841877 0.813614 0.061593
C110  C     C_R   0.197106 0.158510 0.312641 0.061297
C111  C     C_R   0.721087 0.337072 0.965684 -0.085458
C112  C     C_R   0.721144 0.662988 0.464265 -0.093015
C113  C     C_R   0.219008 0.838619 0.971803 -0.084445
C114  C     C_R   0.219126 0.161522 0.470786 -0.084126
C115  C     C_R   0.737713 0.295431 0.033920 0.027466
C116  C     C_R   0.628688 0.100673 0.008187 0.051926
C117  C     C_R   0.737075 0.704413 0.535350 0.031208
C118  C     C_R   0.235646 0.796750 0.038456 0.028612
C119  C     C_R   0.235694 0.203313 0.537894 0.028562
C120  C     C_R   0.212881 0.757295 0.963076 0.027373
C121  C     C_R   0.212757 0.242840 0.463094 0.027193
C122  C     C_R   0.714905 0.255911 0.959425 0.027831
C123  C     C_R   0.714140 0.744150 0.462538 0.027216
C124  C     C_R   0.772315 0.292550 0.178040 -0.015480
C125  C     C_R   0.771718 0.706928 0.679525 -0.016539
C126  C     C_R   0.270579 0.793572 0.181657 -0.015415
C127  C     C_R   0.628343 0.899216 0.509895 0.053668
C128  C     C_R   0.270711 0.206321 0.680998 -0.015468
C129  C     C_R   0.760384 0.254926 0.277262 0.032576
C130  C     C_R   0.759868 0.744306 0.779568 0.030692
C131  C     C_R   0.258657 0.755923 0.280489 0.032509
C132  C     C_R   0.258793 0.243766 0.780230 0.032426
C133  C     C_R   0.226256 0.718012 0.218352 0.017726
C134  C     C_R   0.226192 0.281643 0.718663 0.017825
C135  C     C_R   0.727628 0.217121 0.215748 0.018004
C136  C     C_R   0.727090 0.782242 0.719113 0.018688
C137  C     C_3   0.942972 0.257603 0.053264 -0.364750
C138  C     C_R   0.122776 0.684597 0.863882 -0.157086
C139  C     C_3   0.942907 0.742161 0.551566 -0.364411
C140  C     C_3   0.441777 0.758238 0.054729 -0.363846
C141  C     C_3   0.442318 0.241727 0.552457 -0.364094
C142  C     C_R   0.204553 0.716918 0.053733 -0.016857
C143  C     C_R   0.204388 0.283003 0.554223 -0.016770
C144  C     C_R   0.705956 0.215930 0.051234 -0.016667
C145  C     C_R   0.705103 0.783781 0.555077 -0.016489
C146  C     C_R   0.775386 0.255623 0.442940 -0.083758
C147  C     C_R   0.775215 0.743297 0.944977 -0.086151
C148  C     C_R   0.273313 0.756747 0.446327 -0.083929
H1    H     H_    0.042578 0.325140 0.665850 0.073921
H2    H     H_    0.201427 0.594506 0.736397 0.060226
H3    H     H_    0.223008 0.131229 0.542013 0.045142
H4    H     H_    0.786000 0.286351 0.506023 0.077877
H5    H     H_    0.785985 0.712445 0.007429 0.077945
H6    H     H_    0.283914 0.787549 0.509062 0.077615
H7    H     H_    0.284422 0.211908 0.008513 0.077624
H8    H     H_    0.791752 0.217000 0.656926 0.077321
H9    H     H_    0.792355 0.781545 0.158957 0.077725
H10   H     H_    0.289416 0.718239 0.660703 0.077290
H11   H     H_    0.289835 0.280991 0.160431 0.077450
H12   H     H_    0.945495 0.329214 0.017636 0.079987
H13   H     H_    0.700641 0.905193 0.234751 0.060899
H14   H     H_    0.945536 0.670578 0.516652 0.079854
H15   H     H_    0.445263 0.829770 0.018366 0.080417
H16   H     H_    0.445506 0.170169 0.517853 0.080032
H17   H     H_    0.972949 0.309775 0.212466 -0.080023
H18   H     H_    0.972944 0.690028 0.711338 -0.080312
H19   H     H_    0.472192 0.810331 0.213733 -0.080068
H20   H     H_    0.472867 0.189782 0.712396 -0.079368
H21   H     H_    0.940464 0.249603 0.923746 0.151047
H22   H     H_    0.940484 0.750227 0.421983 0.151125
H23   H     H_    0.439496 0.750092 0.925321 0.151194
H24   H     H_    0.701475 0.094547 0.735089 0.060630
H25   H     H_    0.439806 0.249739 0.422823 0.151295
H26   H     H_    0.967859 0.230951 0.118648 0.103920
H27   H     H_    0.967704 0.768862 0.616880 0.103807
H28   H     H_    0.466146 0.731463 0.120969 0.105086
H29   H     H_    0.466905 0.268573 0.617604 0.104084
H30   H     H_    0.144699 0.473246 0.309756 0.004381
H31   H     H_    0.144995 0.526398 0.810264 0.004976
H32   H     H_    0.644489 0.973199 0.309596 0.004375
H33   H     H_    0.645105 0.026444 0.810068 0.005053
H34   H     H_    0.129682 0.455476 0.104768 0.078983
H35   H     H_    0.233435 0.437893 0.082429 0.124421
H36   H     H_    0.129911 0.544635 0.605575 0.078264
H37   H     H_    0.629549 0.955449 0.104569 0.079102
H38   H     H_    0.629928 0.044597 0.605324 0.078159
H39   H     H_    0.559145 0.439264 0.606097 0.127388
H40   H     H_    0.620479 0.463566 0.713129 0.132580
H41   H     H_    0.627092 0.441028 0.513808 0.131461
H42   H     H_    0.604168 0.364123 0.616591 0.118977
H43   H     H_    0.599174 0.386809 0.814925 0.121368
H44   H     H_    0.702102 0.412704 0.810074 0.094115
H45   H     H_    0.707538 0.387733 0.617022 0.099282
H46   H     H_    0.233730 0.562303 0.583075 0.124327
H47   H     H_    0.703673 0.551688 0.982010 0.136059
H48   H     H_    0.633528 0.547311 0.063796 0.136260
H49   H     H_    0.640816 0.569410 0.865101 0.125109
H50   H     H_    0.626212 0.632617 0.042677 0.120757
H51   H     H_    0.699343 0.633348 0.980548 0.118857
H52   H     H_    0.731246 0.595897 0.240349 0.100625
H53   H     H_    0.658695 0.596290 0.301237 0.097431
H54   H     H_    0.057160 0.941239 0.611122 0.126822
H55   H     H_    0.118373 0.965617 0.718444 0.133593
H56   H     H_    0.125251 0.942859 0.519584 0.129883
H57   H     H_    0.733357 0.937850 0.082667 0.124397
H58   H     H_    0.102003 0.866082 0.623216 0.118464
H59   H     H_    0.096910 0.888983 0.821188 0.120951
H60   H     H_    0.199853 0.914581 0.817228 0.094533
H61   H     H_    0.205468 0.889783 0.624125 0.098560
H62   H     H_    0.118944 0.034556 0.215749 0.133601
H63   H     H_    0.057729 0.058843 0.108253 0.126845
H64   H     H_    0.125930 0.057766 0.017240 0.129832
H65   H     H_    0.097134 0.110834 0.319314 0.120954
H66   H     H_    0.102199 0.134205 0.121662 0.118457
H67   H     H_    0.205769 0.111080 0.122577 0.098601
H68   H     H_    0.733821 0.062128 0.582411 0.124313
H69   H     H_    0.200205 0.085814 0.315321 0.094493
H70   H     H_    0.783428 0.528418 0.198790 0.064600
H71   H     H_    0.789013 0.477636 0.731393 0.087058
H72   H     H_    0.294140 0.027122 0.224590 0.087031
H73   H     H_    0.042994 0.674860 0.164130 0.073601
H74   H     H_    0.293713 0.973007 0.725741 0.087264
H75   H     H_    0.816062 0.479039 0.281982 0.054167
H76   H     H_    0.799826 0.536590 0.760966 0.000862
H77   H     H_    0.306852 0.969184 0.272545 0.016590
H78   H     H_    0.306456 0.031015 0.772154 0.016096
H79   H     H_    0.719731 0.472431 0.019487 0.124411
H80   H     H_    0.714834 0.491674 0.517718 0.119841
H81   H     H_    0.214030 0.006340 0.034425 0.119475
H82   H     H_    0.213864 0.993433 0.534395 0.119459
H83   H     H_    0.705046 0.479448 0.227488 0.092974
H84   H     H_    0.542566 0.825343 0.666347 0.074184
H85   H     H_    0.698218 0.520367 0.698834 0.085167
H86   H     H_    0.203963 0.983552 0.231363 0.085264
H87   H     H_    0.203611 0.016571 0.730352 0.085174
H88   H     H_    0.744232 0.431166 0.166468 0.089619
H89   H     H_    0.726489 0.551587 0.535090 0.104445
H90   H     H_    0.227528 0.947488 0.075058 0.102063
H91   H     H_    0.227454 0.052367 0.572935 0.102218
H92   H     H_    0.184222 0.657738 0.304502 0.125197
H93   H     H_    0.183769 0.341400 0.805456 0.125689
H94   H     H_    0.684725 0.157324 0.303109 0.124864
H95   H     H_    0.543078 0.174434 0.166050 0.074906
H96   H     H_    0.684968 0.842068 0.807169 0.125110
H97   H     H_    0.009837 0.305482 0.476591 -0.064646
H98   H     H_    0.010122 0.694743 0.975152 -0.064918
H99   H     H_    0.510003 0.805343 0.477289 -0.063316
H100  H     H_    0.511011 0.194023 0.975703 -0.064677
H101  H     H_    0.040496 0.246605 0.770928 0.151570
H102  H     H_    0.041353 0.753268 0.269326 0.151878
H103  H     H_    0.540695 0.746944 0.772842 0.151963
H104  H     H_    0.541545 0.253126 0.268876 0.151846
H105  H     H_    0.080596 0.250712 0.593522 0.072758
H106  H     H_    0.246293 0.452496 0.291163 0.121812
H107  H     H_    0.081199 0.749392 0.091468 0.072636
H108  H     H_    0.581009 0.750951 0.595797 0.072579
H109  H     H_    0.582267 0.248498 0.092840 0.072482
H110  H     H_    0.234725 0.653044 0.557714 0.076871
H111  H     H_    0.234639 0.346052 0.058415 0.077351
H112  H     H_    0.736001 0.152211 0.555160 0.076344
H113  H     H_    0.736815 0.846638 0.058688 0.075979
H114  H     H_    0.898935 0.258208 0.096577 0.075087
H115  H     H_    0.898834 0.741378 0.594619 0.075056
H116  H     H_    0.397625 0.759272 0.097127 0.074937
H117  H     H_    0.246634 0.547212 0.791536 0.122134
H118  H     H_    0.398263 0.240727 0.595592 0.074875
H119  H     H_    0.210561 0.621364 0.110381 0.055494
H120  H     H_    0.210217 0.378521 0.612088 0.055743
H121  H     H_    0.710934 0.120618 0.108957 0.055943
H122  H     H_    0.710194 0.879092 0.612437 0.055281
H123  H     H_    0.110233 0.717475 0.821014 0.071955
H124  H     H_    0.109935 0.282540 0.322335 0.072130
H125  H     H_    0.611444 0.217223 0.819685 0.072493
H126  H     H_    0.610444 0.782580 0.323771 0.073531
H127  H     H_    0.868118 0.289100 0.410253 0.076718
H128  H     H_    0.746023 0.952305 0.291594 0.121660
H129  H     H_    0.867943 0.710743 0.909776 0.077157
H130  H     H_    0.366264 0.789575 0.413614 0.077022
H131  H     H_    0.366624 0.210394 0.911813 0.077063
H132  H     H_    0.815932 0.368208 0.001581 0.103814
H133  H     H_    0.815684 0.631555 0.502054 0.100022
H134  H     H_    0.314395 0.868864 0.004144 0.099812
H135  H     H_    0.314360 0.131090 0.503605 0.099372
H136  H     H_    0.061046 0.582064 0.838303 0.064180
H137  H     H_    0.060946 0.417879 0.338849 0.063801
H138  H     H_    0.560706 0.082120 0.838524 0.065020
H139  H     H_    0.746664 0.047311 0.791139 0.121837
H140  H     H_    0.560699 0.917872 0.339285 0.063926
H141  H     H_    0.921554 0.424518 0.377361 0.077753
H142  H     H_    0.923040 0.575998 0.875585 0.078562
H143  H     H_    0.423224 0.923895 0.375320 0.078608
H144  H     H_    0.423425 0.076174 0.874859 0.078318
H145  H     H_    0.191312 0.731627 0.724697 0.086507
H146  H     H_    0.190993 0.268938 0.225135 0.086501
H147  H     H_    0.693266 0.229604 0.721990 0.086678
H148  H     H_    0.693057 0.771709 0.226869 0.086505
H149  H     H_    0.009052 0.227634 0.580924 0.106918
H150  H     H_    0.200932 0.405313 0.235087 0.060769
H151  H     H_    0.009740 0.772466 0.079635 0.106819
H152  H     H_    0.509579 0.727644 0.582896 0.107850
H153  H     H_    0.511042 0.271995 0.077469 0.106824
H154  H     H_    0.176170 0.804096 0.598973 0.071341
H155  H     H_    0.175923 0.196668 0.098598 0.071759
H156  H     H_    0.678424 0.301840 0.593733 0.071729
H157  H     H_    0.678645 0.701441 0.094526 0.068561
H158  H     H_    0.724330 0.367282 0.036277 0.050343
H159  H     H_    0.724768 0.632246 0.533245 0.046132
H160  H     H_    0.222872 0.868780 0.043350 0.045221
O1    O     O_2   0.885280 0.436300 0.888260 -0.440478
O2    O     O_3   0.026949 0.698094 0.523060 -0.595126
O3    O     O_3   0.526391 0.801874 0.026310 -0.595157
O4    O     O_3   0.526710 0.198096 0.523914 -0.595370
O5    O     O_3   0.066770 0.522240 0.054830 -0.496679
O6    O     O_3   0.066770 0.477760 0.554830 -0.495896
O7    O     O_3   0.566770 0.022240 0.054830 -0.496593
O8    O     O_3   0.566770 0.977760 0.554830 -0.495712
O9    O     O_3   0.933180 0.477650 0.134870 -0.463224
O10   O     O_3   0.933180 0.522350 0.634870 -0.458620
O11   O     O_3   0.433180 0.977650 0.134870 -0.461514
O12   O     O_2   0.885280 0.563700 0.388260 -0.448636
O13   O     O_3   0.433180 0.022350 0.634870 -0.460735
O14   O     O_3   0.980100 0.397030 0.639600 -0.480557
O15   O     O_3   0.980100 0.602970 0.139600 -0.480382
O16   O     O_3   0.480100 0.897030 0.639600 -0.480769
O17   O     O_3   0.480100 0.102970 0.139600 -0.480662
O18   O     O_2   0.883735 0.362949 0.743472 -0.481326
O19   O     O_2   0.883768 0.637068 0.242310 -0.481770
O20   O     O_2   0.383807 0.862934 0.743974 -0.481545
O21   O     O_2   0.384051 0.137284 0.243350 -0.481921
O22   O     O_3   0.825546 0.491585 0.036879 -0.630087
O23   O     O_2   0.385280 0.936300 0.888260 -0.446606
O24   O     O_3   0.825796 0.507980 0.542679 -0.630151
O25   O     O_3   0.325503 0.991660 0.039026 -0.632918
O26   O     O_3   0.325405 0.008292 0.539539 -0.632475
O27   O     O_3   0.958607 0.302903 0.671076 -0.601297
O28   O     O_3   0.959132 0.697082 0.170159 -0.600832
O29   O     O_3   0.458674 0.802895 0.671500 -0.601030
O30   O     O_3   0.459327 0.197122 0.169065 -0.600921
O31   O     O_2   0.114450 0.435960 0.801790 -0.469353
O32   O     O_2   0.114450 0.564040 0.301790 -0.469205
O33   O     O_2   0.614450 0.935960 0.801790 -0.470124
O34   O     O_2   0.385280 0.063700 0.388260 -0.447119
O35   O     O_2   0.614450 0.064040 0.301790 -0.469469
O36   O     O_3   0.019500 0.396970 0.050670 -0.482001
O37   O     O_3   0.019500 0.603030 0.550670 -0.482447
O38   O     O_3   0.519500 0.896970 0.050670 -0.482106
O39   O     O_3   0.519500 0.103030 0.550670 -0.482434
O40   O     O_2   0.111621 0.357018 0.973662 -0.499607
O41   O     O_2   0.111477 0.643217 0.472300 -0.499329
O42   O     O_2   0.611426 0.856392 0.974068 -0.499571
O43   O     O_2   0.611324 0.143459 0.471069 -0.499494
O44   O     O_3   0.179351 0.487053 0.637904 -0.632823
O45   O     O_3   0.179294 0.513019 0.138360 -0.633058
O46   O     O_3   0.679376 0.987023 0.637810 -0.632900
O47   O     O_3   0.679227 0.012949 0.138373 -0.632994
O48   O     O_3   0.026950 0.301958 0.024162 -0.595262
P1    P     P_3+3 0.879620 0.451210 0.061380 0.998254
P2    P     P_3+3 0.062930 0.649350 0.587499 0.933130
P3    P     P_3+3 0.562719 0.850621 0.089294 0.932857
P4    P     P_3+3 0.562966 0.149356 0.587142 0.933170
P5    P     P_3+3 0.928599 0.645221 0.116199 0.957733
P6    P     P_3+3 0.928333 0.354828 0.616918 0.957724
P7    P     P_3+3 0.428606 0.145229 0.116301 0.957082
P8    P     P_3+3 0.428361 0.854805 0.617292 0.956991
P9    P     P_3+3 0.879620 0.548790 0.561380 0.999904
P10   P     P_3+3 0.379620 0.951210 0.061380 0.996280
P11   P     P_3+3 0.379620 0.048790 0.561380 0.996871
P12   P     P_3+3 0.120160 0.450850 0.628590 0.971693
P13   P     P_3+3 0.120160 0.549150 0.128590 0.971142
P14   P     P_3+3 0.620160 0.950850 0.628590 0.971244
P15   P     P_3+3 0.620160 0.049150 0.128590 0.971061
P16   P     P_3+3 0.062902 0.350749 0.088406 0.932858

loop_
_geom_bond_atom_site_label_1
_geom_bond_atom_site_label_2
_ccdc_geom_bond_type
O1    P1    D    
C82   H138  S    
C103  C108  A    
O44   P12   S    
C98   H145  S    
C26   H70   S    
C53   H69   S    
C92   C141  S    
C72   H108  S    
Ba4   O17   S    
C42   H122  S    
C106  H155  S    
C67   H132  S    
O10   P9    S    
O11   P10   S    
Ba1   O36   S    
C54   H65   S    
C55   H63   S    
C33   H87   S    
C34   H97   S    
C3    H7    S    
C23   H57   S    
C70   C88   A    
O21   P7    D    
C72   H103  S    
C5    C9    A    
C7    C11   A    
C8    C12   A    
C77   C143  S    
Ba1   O5    S    
C92   H16   S    
Ba3   O7    S    
C30   H88   S    
C39   H119  S    
O4    P4    S    
O12   P9    D    
Ba3   O33   S    
C44   H42   S    
C24   C57   A    
C76   C142  S    
C80   H136  S    
C113  H160  S    
C104  H154  S    
C91   C140  S    
C24   C79   A    
C96   H143  S    
C28   H72   S    
O17   P7    S    
C20   O46   S    
C64   P5    S    
C11   C16   A    
C38   H95   S    
C66   P7    S    
O5    P13   S    
C47   C48   S    
C133  C142  A    
C40   C77   A    
C26   C30   S    
C49   H49   S    
C20   H33   S    
C104  C109  A    
C35   P2    S    
O6    P12   S    
C22   H117  S    
C36   O28   S    
C37   H99   S    
C27   O24   S    
C8    H110  S    
Ba2   O32   S    
C9    H111  S    
C10   H112  S    
C23   H13   S    
C9    C14   A    
C41   C116  A    
C102  H156  S    
C83   H104  S    
Ba3   O13   S    
C129  C135  A    
C76   C138  A    
C70   C75   A    
Ba2   P9    S    
C6    H8    S    
C72   H152  S    
C47   H52   S    
C68   C86   A    
C131  C133  A    
C84   H140  S    
C10   C15   A    
O40   P16   D    
C68   H133  S    
Ba4   P15   S    
C117  C123  A    
Ba1   P12   S    
C48   H51   S    
O45   P13   S    
C4    H10   S    
C90   H18   S    
C37   C72   S    
C62   C66   A    
C52   H55   S    
C43   C107  S    
C130  C147  A    
O15   P5    S    
C89   O48   S    
Ba4   O34   S    
C18   H36   S    
C91   O3    S    
C115  C122  A    
C60   H130  S    
O33   P14   D    
C15   C135  A    
O23   P10   D    
C20   H38   S    
C60   C87   A    
O32   P13   D    
C1    H149  S    
C138  H123  S    
C99   H146  S    
O16   P8    S    
C116  P15   S    
C119  C128  A    
Ba4   O39   S    
C30   H79   S    
C31   H85   S    
C71   C93   A    
C95   H142  S    
Ba1   O10   S    
C66   C97   A    
C17   H34   S    
C101  C103  A    
C68   C73   A    
O22   P1    S    
C28   C32   S    
C61   H107  S    
C35   C80   A    
C128  C132  A    
C131  C148  A    
C141  H29   S    
O8    P14   S    
C5    H11   S    
C31   H80   S    
C1    H101  S    
C21   H35   S    
C86   C125  S    
C69   H134  S    
Ba2   O37   S    
C140  H28   S    
C139  H27   S    
C2    H124  S    
C106  C110  A    
O46   P14   S    
O20   P8    D    
C50   H60   S    
C2    C77   A    
C27   H76   S    
C30   H83   S    
Ba3   O38   S    
C102  C107  A    
C17   H30   S    
C135  C144  A    
O19   P5    D    
C101  C123  A    
C115  C124  A    
C49   H47   S    
C6    C10   A    
C62   C88   A    
C39   C76   A    
C120  C142  A    
C21   H150  S    
Ba2   O6    S    
C141  H118  S    
O2    P2    S    
Ba1   O31   S    
C113  C118  A    
C65   C96   A    
C36   H98   S    
C4    C8    A    
Ba2   O9    S    
Ba3   O23   S    
C1    H105  S    
C60   C65   A    
C2    C46   A    
C109  C113  A    
C12   H92   S    
C7    C147  A    
C31   H89   S    
C111  C115  A    
C44   H43   S    
C58   H127  S    
C21   H106  S    
C118  C120  A    
Ba3   Ba4   S    
C108  C112  A    
C48   C49   S    
C17   C21   S    
C59   C64   A    
O47   P15   S    
C129  C146  A    
C4    C148  A    
C91   H15   S    
O18   P6    D    
C78   C144  S    
C47   H53   S    
C23   H128  S    
C38   O30   S    
C40   H120  S    
C17   O45   S    
C137  H114  S    
C3    C132  A    
C123  C145  A    
C54   H66   S    
C14   H93   S    
C53   C54   S    
C70   H135  S    
C103  H157  S    
C73   P9    S    
Ba2   P13   S    
C73   C95   A    
C48   H50   S    
C62   H131  S    
C99   C121  A    
C13   C56   A    
C112  H159  S    
C52   H54   S    
C83   H109  S    
C43   H45   S    
C82   C116  A    
C38   C83   S    
C84   C127  A    
C136  C145  A    
C13   H125  S    
C15   H94   S    
C51   C52   S    
C47   C108  S    
C33   H91   S    
Ba3   P14   S    
C126  C131  A    
C90   H14   S    
C100  C102  A    
C45   H40   S    
C61   H151  S    
O43   P4    D    
C89   H17   S    
C93   H141  S    
C147  H5    S    
O26   P11   S    
C71   P1    S    
C81   C105  A    
C119  C121  A    
Ba2   O15   S    
C58   C85   A    
C7    H9    S    
C94   P13   S    
C14   C134  A    
C20   C25   S    
C46   C81   A    
C50   C51   S    
C25   H68   S    
C41   C78   A    
O25   P10   S    
Ba4   O11   S    
C101  H148  S    
C37   O29   S    
C92   O4    S    
Ba1   O14   S    
C40   C105  A    
Ba3   O16   S    
C38   H100  S    
C1    C34   S    
C140  H116  S    
C98   C120  A    
O9    P1    S    
C32   H86   S    
C57   P3    S    
C148  H6    S    
C26   O22   S    
C43   H44   S    
C29   H74   S    
C121  C143  A    
C122  C144  A    
C55   H64   S    
C54   C55   S    
C29   C33   S    
C137  H26   S    
Ba1   P1    S    
C34   O27   S    
O7    P15   S    
C52   H56   S    
C35   C138  A    
Ba1   O6    S    
O27   P6    S    
Ba3   O8    S    
C28   O25   S    
C46   P16   S    
C44   C45   S    
C37   H84   S    
Ba2   O12   S    
C99   C106  A    
C74   C96   A    
C27   C31   S    
C25   H24   S    
C89   C137  S    
C28   H77   S    
C56   C82   A    
C88   C128  S    
C26   H75   S    
C19   O47   S    
C117  C125  A    
C11   H113  S    
C56   P4    S    
C81   H137  S    
C16   C136  A    
C32   H90   S    
C6    C146  A    
C51   H58   S    
C114  C119  A    
C18   O44   S    
O39   P4    S    
C63   C93   A    
C42   C79   A    
C90   O2    S    
O24   P9    S    
C18   C22   S    
C139  H22   S    
C91   H19   S    
C79   C145  S    
C85   C124  S    
C50   H61   S    
Ba1   O1    S    
C63   P6    S    
C12   C133  A    
C39   C94   A    
O29   P8    S    
C55   H62   S    
C33   H82   S    
C87   C126  S    
C58   C63   A    
C90   C139  S    
C13   C78   A    
C130  C136  A    
C41   H121  S    
C50   C109  S    
C140  H23   S    
Ba1   Ba2   S    
C36   H73   S    
O14   P6    S    
Ba3   P10   S    
C69   C74   A    
C98   C104  A    
C19   C23   S    
C25   H139  S    
C139  H115  S    
C146  H4    S    
C61   H102  S    
C137  H21   S    
C22   H46   S    
O38   P3    S    
C111  H158  S    
C69   C87   A    
C132  C134  A    
C42   C127  A    
C53   H67   S    
C89   H12   S    
C32   H81   S    
O3    P3    S    
O42   P3    D    
C18   H31   S    
C57   C84   A    
C75   P11   S    
O37   P2    S    
Ba4   P11   S    
C43   C44   S    
C67   C85   A    
C134  C143  A    
C114  H3    S    
O34   P11   D    
Ba4   O7    S    
O31   P12   D    
C110  C114  A    
C27   H71   S    
O41   P2    D    
C65   P8    S    
C22   H2    S    
C29   H78   S    
C19   H37   S    
C59   H129  S    
C3    C5    A    
Ba4   O8    S    
O13   P11   S    
C105  P12   S    
C49   H48   S    
C75   C97   A    
C97   H144  S    
C24   H126  S    
C53   C110  S    
C45   H39   S    
C127  P14   S    
C83   H153  S    
C29   O26   S    
O28   P5    S    
C34   H1    S    
Ba2   O5    S    
C36   C61   S    
Ba4   O35   S    
C80   C94   A    
O30   P7    S    
O36   P16   S    
C64   C95   A    
C19   H32   S    
C124  C129  A    
C67   C71   A    
C74   P10   S    
C45   H41   S    
C100  H147  S    
C59   C86   A    
O35   P15   D    
C125  C130  A    
C51   H59   S    
C16   H96   S    
C100  C122  A    
C92   H20   S    
C141  H25   S    
C107  C111  A    
C112  C117  A    
C118  C126  A    
O48   P16   S    
