data_mof_unit_7781.cif
_audit_creation_date              2012-12-10T17:52:27-0500
_audit_creation_method            fapswitch 2.2
_symmetry_space_group_name_H-M    P1
_symmetry_Int_Tables_number       1
_space_group_crystal_system       triclinic
_cell_length_a                    19.130851
_cell_length_b                    10.692329
_cell_length_c                    9.937791
_cell_angle_alpha                 91.288292
_cell_angle_beta                  90.327111
_cell_angle_gamma                 93.256814
_cell_volume                      2028.96260535

loop_
_atom_site_label
_atom_site_type_symbol
_atom_type_description
_atom_site_fract_x
_atom_site_fract_y
_atom_site_fract_z
_atom_type_partial_charge
C1    C     C_R   0.494051 0.260026 0.498073 0.997186
C2    C     C_R   0.856403 0.545192 0.502542 0.077621
C3    C     C_R   0.360247 0.097927 0.527725 0.298688
C4    C     C_R   0.366586 0.511215 0.499802 0.976059
C5    C     C_R   0.303829 0.022690 0.574231 -0.052203
C6    C     C_R   0.313423 0.902215 0.615697 0.407197
C7    C     C_R   0.377721 0.851098 0.595825 -0.209990
C8    C     C_R   0.435015 0.924123 0.543682 0.019889
C9    C     C_R   0.428723 0.052542 0.522346 -0.047776
C10   C     C_R   0.490880 0.126062 0.491530 -0.163617
C11   C     C_R   0.553766 0.070313 0.461413 0.377509
C12   C     C_R   0.292269 0.532857 0.498919 -0.170526
C13   C     C_R   0.555916 0.942306 0.464249 -0.207473
C14   C     C_R   0.497758 0.870955 0.506814 -0.078096
C15   C     C_R   0.405763 0.339142 0.136170 -0.152860
C16   C     C_R   0.501818 0.739392 0.501794 0.883858
C17   C     C_R   0.355186 0.265564 0.066222 -0.150149
C18   C     C_R   0.352742 0.267770 0.927123 0.390683
C19   C     C_R   0.402665 0.340470 0.856901 -0.201215
C20   C     C_R   0.452750 0.420656 0.925676 0.054180
C21   C     C_R   0.453362 0.420480 0.069968 0.146551
C22   C     C_R   0.544679 0.576753 0.074303 -0.123174
C23   C     C_R   0.932661 0.561147 0.502922 0.287923
C24   C     C_R   0.544767 0.577043 0.931491 0.427476
C25   C     C_R   0.634538 0.501254 0.500332 0.921052
C26   C     C_R   0.250339 0.479202 0.599337 -0.113312
C27   C     C_R   0.179447 0.497435 0.601529 -0.127015
C28   C     C_R   0.149474 0.570566 0.504029 -0.073143
C29   C     C_R   0.191543 0.629883 0.405621 0.395190
C30   C     C_R   0.263329 0.610935 0.402861 0.310125
C31   C     C_R   0.073804 0.577112 0.503390 0.378159
C32   C     C_R   0.819973 0.537089 0.624390 -0.132934
C33   C     C_R   0.747583 0.519753 0.623704 -0.131417
C34   C     C_R   0.710764 0.510769 0.501187 -0.031576
C35   C     C_R   0.747195 0.517379 0.379369 -0.146355
C36   C     C_R   0.819541 0.534559 0.380038 -0.128289
Cl1   Cl    Cl    0.336833 0.234518 0.452540 -0.704355
Cl2   Cl    Cl    0.243783 0.813782 0.687393 -0.523611
Cl3   Cl    Cl    0.285110 0.181341 0.842239 -0.579975
Cl4   Cl    Cl    0.603837 0.681815 0.851365 -0.582739
Cl5   Cl    Cl    0.155978 0.734141 0.291213 -0.438416
Cl6   Cl    Cl    0.316587 0.692518 0.284593 -0.493242
Cl7   Cl    Cl    0.631361 0.158141 0.419894 -0.582995
H1    H     H_    0.272250 0.420829 0.674697 0.214967
H2    H     H_    0.846394 0.539898 0.284535 0.167858
H3    H     H_    0.381848 0.754347 0.621368 0.177756
H4    H     H_    0.603656 0.898237 0.436686 0.176784
H5    H     H_    0.847216 0.544120 0.720311 0.168828
H6    H     H_    0.251923 0.058197 0.577898 0.229533
H7    H     H_    0.581031 0.639511 0.130455 0.173387
H8    H     H_    0.406175 0.331541 0.242137 0.252025
H9    H     H_    0.317576 0.206953 0.120804 0.230686
H10   H     H_    0.400406 0.332362 0.749815 0.227063
H11   H     H_    0.147591 0.451402 0.677673 0.194882
H12   H     H_    0.720563 0.514879 0.719070 0.194186
H13   H     H_    0.719892 0.510804 0.283459 0.172955
N1    N     N_R   0.037707 0.566779 0.385750 -0.093291
N2    N     N_R   0.968289 0.559491 0.385490 -0.145625
N3    N     N_R   0.968879 0.572277 0.620652 -0.152187
N4    N     N_R   0.038348 0.579678 0.620934 -0.127052
N5    N     N_R   0.499340 0.498800 0.142780 -0.131524
N6    N     N_R   0.499320 0.498720 0.857170 -0.140849
O1    O     O_R   0.500000 0.316780 0.614690 -0.625340
O2    O     O_R   0.499990 0.316750 0.385360 -0.600482
O3    O     O_R   0.398140 0.500000 0.614700 -0.652426
O4    O     O_R   0.398130 0.499970 0.385370 -0.575600
O5    O     O_R   0.500010 0.683250 0.614640 -0.581092
O6    O     O_R   0.500000 0.683220 0.385310 -0.596906
O7    O     O_R   0.601870 0.500030 0.614630 -0.577588
O8    O     O_R   0.601860 0.500000 0.385300 -0.621969
Zn1   Zn    Zn3+2 0.500000 0.500020 0.653130 1.020182
Zn2   Zn    Zn3+2 0.500000 0.499980 0.346870 1.017946

loop_
_geom_bond_atom_site_label_1
_geom_bond_atom_site_label_2
_ccdc_geom_bond_type
C31   N4    A    
C33   H12   S    
C23   N2    A    
C24   N6    A    
C18   Cl3   S    
C6    Cl2   S    
C11   Cl7   S    
C29   C30   A    
C3    C9    A    
C15   H8    S    
C4    C12   S    
C11   C13   A    
C9    C10   A    
C21   N5    A    
C35   C36   A    
O6    Zn2   S    
C25   C34   S    
C22   H7    S    
C5    H6    S    
C32   C33   A    
C19   H10   S    
C22   C24   A    
C33   C34   A    
C26   C27   A    
C27   H11   S    
C26   H1    S    
N3    N4    A    
C16   O5    A    
C25   O8    A    
C13   C14   A    
C22   N5    A    
C23   N3    A    
C32   H5    S    
C31   N1    A    
N1    N2    A    
C6    C7    A    
C29   Cl5   S    
C16   O6    A    
C15   C17   A    
C1    O1    A    
C17   H9    S    
C28   C29   A    
C24   Cl4   S    
C12   C26   A    
O1    Zn1   S    
N6    Zn1   S    
C17   C18   A    
O5    Zn1   S    
O2    Zn2   S    
C20   N6    A    
C5    C6    A    
C14   C16   S    
C25   O7    A    
C10   C11   A    
C7    H3    S    
C3    C5    A    
O7    Zn1   S    
C15   C21   A    
C20   C21   A    
N5    Zn2   S    
C2    C32   A    
C34   C35   A    
C4    O4    A    
C2    C36   A    
C2    C23   S    
C13   H4    S    
C7    C8    A    
C4    O3    A    
C18   C19   A    
O8    Zn2   S    
C36   H2    S    
C8    C14   A    
C12   C30   A    
C35   H13   S    
O3    Zn1   S    
C1    O2    A    
C28   C31   S    
C30   Cl6   S    
C1    C10   S    
C19   C20   A    
C3    Cl1   S    
O4    Zn2   S    
C8    C9    A    
C27   C28   A    
