data_mof_unit_60829.cif
_audit_creation_date              2012-12-10T16:35:55-0500
_audit_creation_method            fapswitch 2.2
_symmetry_space_group_name_H-M    P1
_symmetry_Int_Tables_number       1
_space_group_crystal_system       triclinic
_cell_length_a                    14.130193
_cell_length_b                    16.464393
_cell_length_c                    13.092375
_cell_angle_alpha                 90.000166
_cell_angle_beta                  106.580087
_cell_angle_gamma                 89.999888
_cell_volume                      2919.23421498

loop_
_atom_site_label
_atom_site_type_symbol
_atom_type_description
_atom_site_fract_x
_atom_site_fract_y
_atom_site_fract_z
_atom_type_partial_charge
C1    C     C_R   0.314225 0.844563 0.476305 0.858223
C2    C     C_R   0.685716 0.843826 0.523401 0.901239
C3    C     C_R   0.185716 0.656174 0.523401 0.901234
C4    C     C_R   0.185725 0.343838 0.523378 0.898472
C5    C     C_R   0.546008 0.997178 0.785980 0.737365
C6    C     C_R   0.046008 0.502824 0.785980 0.737384
C7    C     C_R   0.455291 0.000122 0.214922 0.936130
C8    C     C_R   0.955294 0.499877 0.214921 0.936097
C9    C     C_2   0.442638 0.000974 0.100166 -0.204265
C10   C     C_2   0.942647 0.499020 0.100166 -0.204284
C11   C     C_2   0.506188 0.959495 0.059521 0.724886
C12   C     C_R   0.314212 0.155430 0.476291 0.868213
C13   C     C_2   0.006171 0.540527 0.059514 0.724899
C14   C     C_2   0.561670 0.990430 0.902085 0.475794
C15   C     C_2   0.061666 0.509586 0.902085 0.475737
C16   C     C_2   0.493142 0.956729 0.944008 -0.165484
C17   C     C_2   0.993127 0.543279 0.944000 -0.165462
C18   C     C_2   0.760217 0.218619 0.532131 -0.336135
C19   C     C_2   0.760169 0.781321 0.532251 -0.339103
C20   C     C_2   0.260169 0.718679 0.532252 -0.339108
C21   C     C_2   0.260217 0.281382 0.532131 -0.336137
C22   C     C_R   0.814213 0.344570 0.476291 0.868215
C23   C     C_R   0.814225 0.655437 0.476305 0.858220
C24   C     C_2   0.240469 0.782920 0.467714 -0.268462
C25   C     C_2   0.240452 0.217068 0.467719 -0.283862
C26   C     C_2   0.740452 0.282931 0.467718 -0.283860
C27   C     C_2   0.740468 0.717079 0.467714 -0.268468
C28   C     C_R   0.685725 0.156162 0.523378 0.898480
F1    F     F_    0.584577 0.919655 0.125281 -0.622638
F2    F     F_    0.084525 0.580413 0.125264 -0.622637
F3    F     F_    0.646617 0.021244 0.968047 -0.618177
F4    F     F_    0.146625 0.478796 0.968056 -0.618197
H1    H     H_    0.331476 0.712377 0.591617 0.150150
H2    H     H_    0.428008 0.872129 0.832054 0.204485
H3    H     H_    0.927951 0.627850 0.832022 0.204508
H4    H     H_    0.857863 0.543142 0.832858 0.217670
H5    H     H_    0.314897 0.015212 0.981500 0.203501
H6    H     H_    0.397631 0.092067 0.992193 0.203976
H7    H     H_    0.897722 0.407896 0.992222 0.203976
H8    H     H_    0.814926 0.484708 0.981493 0.203484
H9    H     H_    0.331605 0.287776 0.591329 0.154066
H10   H     H_    0.831604 0.212225 0.591331 0.154065
H11   H     H_    0.831477 0.787623 0.591615 0.150150
H12   H     H_    0.669523 0.291026 0.408479 0.171105
H13   H     H_    0.669643 0.709101 0.408258 0.175664
H14   H     H_    0.169644 0.790897 0.408256 0.175672
H15   H     H_    0.169522 0.208973 0.408481 0.171105
H16   H     H_    0.357881 0.956819 0.832862 0.217674
N1    N     N_3   0.406909 0.915102 0.880185 -0.479148
N2    N     N_3   0.906875 0.584876 0.880166 -0.479133
N3    N     N_3   0.366255 0.051777 0.035075 -0.467169
N4    N     N_3   0.866308 0.448173 0.035085 -0.467140
O1    O     O_3   0.500010 1.000000 0.500000 -0.507147
O2    O     O_R   0.103010 0.337110 0.452470 -0.637267
O3    O     O_R   0.316670 0.095240 0.537470 -0.633962
O4    O     O_R   0.316670 0.904760 0.537470 -0.641775
O5    O     O_R   0.816670 0.595240 0.537470 -0.641777
O6    O     O_R   0.816670 0.404760 0.537470 -0.633964
O7    O     O_R   0.703490 0.904800 0.585920 -0.641887
O8    O     O_R   0.703490 0.095200 0.585920 -0.635430
O9    O     O_R   0.203490 0.404800 0.585920 -0.635432
O10   O     O_R   0.203490 0.595200 0.585920 -0.641888
O11   O     O_R   0.458050 1.000000 0.725250 -0.687341
O12   O     O_3   0.000010 0.500000 0.500000 -0.507148
O13   O     O_R   0.958050 0.500000 0.725250 -0.687350
O14   O     O_R   0.461630 0.932310 0.264690 -0.613522
O15   O     O_R   0.461630 0.067690 0.264690 -0.630112
O16   O     O_R   0.961630 0.432310 0.264690 -0.630108
O17   O     O_R   0.961630 0.567690 0.264690 -0.613494
O18   O     O_R   0.618750 0.000000 0.745380 -0.588075
O19   O     O_R   0.118750 0.500000 0.745380 -0.588069
O20   O     O_R   0.376880 0.837120 0.424150 -0.624414
O21   O     O_R   0.376880 0.162880 0.424150 -0.626544
O22   O     O_R   0.876880 0.337120 0.424150 -0.626539
O23   O     O_R   0.876880 0.662880 0.424150 -0.624410
O24   O     O_R   0.603010 0.162890 0.452470 -0.637265
O25   O     O_R   0.603010 0.837110 0.452470 -0.626421
O26   O     O_R   0.103010 0.662890 0.452470 -0.626413
Zn1   Zn    Zn3+2 0.485630 0.096680 0.411850 1.004536
Zn2   Zn    Zn3+2 0.485630 0.903320 0.411850 1.020415
Zn3   Zn    Zn3+2 0.985630 0.596680 0.411850 1.020424
Zn4   Zn    Zn3+2 0.985630 0.403320 0.411850 1.004529
Zn5   Zn    Zn3+2 0.399590 1.000000 0.573760 0.958179
Zn6   Zn    Zn3+2 0.899590 0.500000 0.573760 0.958171
Zn7   Zn    Zn3+2 0.629190 1.000000 0.602520 1.014269
Zn8   Zn    Zn3+2 0.129190 0.500000 0.602520 1.014263

loop_
_geom_bond_atom_site_label_1
_geom_bond_atom_site_label_2
_ccdc_geom_bond_type
C9    N3    S    
O24   Zn1   S    
C14   F3    S    
C10   N4    S    
C26   H12   S    
C15   F4    S    
O10   Zn8   S    
C8    O17   A    
O1    Zn1   S    
C1    O4    A    
C18   H10   S    
H5    N3    S    
C3    O10   A    
C5    O11   A    
C23   O5    A    
O12   Zn6   S    
C6    C15   S    
C6    O13   A    
C20   C24   D    
C18   C26   D    
C23   C27   S    
C19   C27   D    
C25   H15   S    
C27   H13   S    
H7    N4    S    
C12   O21   A    
O22   Zn4   S    
O12   Zn8   S    
C19   H11   S    
C28   O8    A    
C6    O19   A    
C1    O20   A    
C13   F2    S    
O1    Zn2   S    
O15   Zn1   S    
C16   N1    S    
C2    O7    A    
O23   Zn3   S    
O13   Zn6   S    
H6    N3    S    
H8    N4    S    
C4    O9    A    
O11   Zn5   S    
O7    Zn7   S    
C5    O18   A    
O6    Zn6   S    
O19   Zn8   S    
C11   C16   S    
H3    N2    S    
O21   Zn1   S    
O5    Zn6   S    
C18   C28   S    
C3    C20   S    
C9    C11   D    
O12   Zn4   S    
C5    C14   S    
C21   H9    S    
C20   H1    S    
H16   N1    S    
C8    O16   A    
C14   C16   D    
C22   O22   A    
O3    Zn5   S    
C28   O24   A    
O2    Zn4   S    
H4    N2    S    
O4    Zn5   S    
O25   Zn2   S    
C15   C17   D    
C21   C25   D    
H2    N1    S    
C4    O2    A    
C2    C19   S    
C23   O23   A    
C10   C13   D    
C17   N2    S    
C22   O6    A    
O8    Zn7   S    
O14   Zn2   S    
C13   C17   S    
C12   C25   S    
O1    Zn5   S    
O16   Zn4   S    
C24   H14   S    
O20   Zn2   S    
C2    O25   A    
C7    O14   A    
C4    C21   S    
O18   Zn7   S    
O26   Zn3   S    
O12   Zn3   S    
C12   O3    A    
O17   Zn3   S    
O9    Zn8   S    
C7    O15   A    
C7    C9    S    
C11   F1    S    
C1    C24   S    
C8    C10   S    
C22   C26   S    
O1    Zn7   S    
C3    O26   A    
