data_mof_unit_53398.cif
_audit_creation_date              2012-12-10T20:31:09-0500
_audit_creation_method            fapswitch 2.2
_symmetry_space_group_name_H-M    P1
_symmetry_Int_Tables_number       1
_space_group_crystal_system       triclinic
_cell_length_a                    14.914709
_cell_length_b                    10.671268
_cell_length_c                    9.871004
_cell_angle_alpha                 90.027422
_cell_angle_beta                  89.819901
_cell_angle_gamma                 90.160168
_cell_volume                      1571.04363958

loop_
_atom_site_label
_atom_site_type_symbol
_atom_type_description
_atom_site_fract_x
_atom_site_fract_y
_atom_site_fract_z
_atom_type_partial_charge
C1    C     C_R   0.497835 0.260050 0.500057 0.917717
C2    C     C_R   0.186363 0.388277 0.528274 0.295674
C3    C     C_R   0.231749 0.499958 0.499676 -0.246625
C4    C     C_R   0.327189 0.499894 0.500058 1.046978
C5    C     C_R   0.187082 0.611175 0.468230 0.293355
C6    C     C_R   0.495717 0.063938 0.622683 0.248864
C7    C     C_R   0.485556 0.128499 0.501434 -0.101704
C8    C     C_R   0.459792 0.064659 0.383582 -0.161030
C9    C     C_R   0.459804 0.935020 0.383630 -0.130980
C10   C     C_R   0.485301 0.871453 0.501652 -0.106160
C11   C     C_R   0.495240 0.936278 0.623003 0.169750
C12   C     C_R   0.905885 0.610582 0.462606 0.045643
C13   C     C_3   0.568504 0.929381 0.725842 -0.500258
C14   C     C_3   0.569269 0.071384 0.724967 -0.451779
C15   C     C_R   0.460601 0.404277 0.071551 0.144965
C16   C     C_R   0.497790 0.739965 0.500090 0.913063
C17   C     C_R   0.545956 0.588299 0.071758 -0.092624
C18   C     C_R   0.545953 0.588313 0.927808 -0.109084
C19   C     C_R   0.461038 0.403638 0.929058 0.158490
C20   C     C_3   0.364925 0.364400 0.924698 0.211817
C21   C     C_3   0.364551 0.366515 0.078718 -0.517000
C22   C     C_R   0.672763 0.500189 0.499820 0.867609
C23   C     C_R   0.951974 0.280062 0.570682 0.367154
C24   C     C_R   0.812798 0.608279 0.461308 -0.187134
C25   C     C_R   0.767722 0.500150 0.499509 -0.080764
C26   C     C_R   0.812193 0.392066 0.537873 -0.175086
C27   C     C_R   0.905263 0.389715 0.536500 0.043442
C28   C     C_R   0.952597 0.500138 0.499534 0.006963
C29   C     C_R   0.044910 0.279901 0.567023 -0.133918
C30   C     C_R   0.092864 0.388517 0.531832 -0.020256
C31   C     C_R   0.046396 0.500059 0.499310 -0.051934
C32   C     C_R   0.093533 0.611318 0.465836 -0.013905
C33   C     C_R   0.046166 0.720011 0.430899 -0.140479
C34   C     C_R   0.953225 0.720128 0.428147 0.366317
Cl1   Cl    Cl    0.352768 0.209809 0.858542 -0.525471
Cl2   Cl    Cl    0.897300 0.139757 0.618035 -0.540705
Cl3   Cl    Cl    0.248048 0.248064 0.552906 -0.546716
Cl4   Cl    Cl    0.249885 0.749277 0.433213 -0.598515
Cl5   Cl    Cl    0.899367 0.860652 0.381490 -0.536841
H1    H     H_    0.581711 0.660960 0.125859 0.153104
H2    H     H_    0.631120 0.887224 0.684890 0.218422
H3    H     H_    0.546324 0.113132 0.822221 0.243736
H4    H     H_    0.632184 0.112161 0.682882 0.212580
H5    H     H_    0.581864 0.660754 0.873419 0.151390
H6    H     H_    0.078848 0.193934 0.593511 0.244354
H7    H     H_    0.080545 0.805976 0.404400 0.242012
H8    H     H_    0.320286 0.435290 0.877685 0.151476
H9    H     H_    0.321250 0.441428 0.121609 0.210171
H10   H     H_    0.773220 0.310343 0.566447 0.180746
H11   H     H_    0.355816 0.273106 0.126867 0.241048
H12   H     H_    0.445164 0.113918 0.290329 0.178479
H13   H     H_    0.774284 0.690040 0.432854 0.183780
H14   H     H_    0.445245 0.885541 0.290368 0.190112
H15   H     H_    0.544621 0.889326 0.823472 0.219980
N1    N     N_R   0.499390 0.499140 0.142800 -0.103959
N2    N     N_R   0.499390 0.499180 0.857150 -0.131625
O1    O     O_R   0.500010 0.316790 0.614690 -0.590790
O2    O     O_R   0.500000 0.316760 0.385350 -0.627953
O3    O     O_R   0.367850 0.499990 0.614680 -0.601596
O4    O     O_R   0.367840 0.499950 0.385340 -0.602766
O5    O     O_R   0.500000 0.683240 0.614650 -0.622651
O6    O     O_R   0.499990 0.683210 0.385310 -0.625600
O7    O     O_R   0.632160 0.500050 0.614660 -0.618105
O8    O     O_R   0.632150 0.500010 0.385320 -0.610785
Zn1   Zn    Zn3+2 0.500010 0.500020 0.653130 0.997779
Zn2   Zn    Zn3+2 0.499990 0.499980 0.346870 0.987830

loop_
_geom_bond_atom_site_label_1
_geom_bond_atom_site_label_2
_ccdc_geom_bond_type
C19   N2    A    
C24   H13   S    
O7    Zn1   S    
C29   C30   A    
C1    O1    A    
C6    C14   S    
C13   H15   S    
C9    C10   A    
C17   N1    A    
C31   C32   A    
C2    Cl3   S    
C17   H1    S    
C2    C30   A    
C14   H3    S    
C21   H9    S    
C32   C33   A    
C5    C32   A    
C13   H2    S    
C17   C18   A    
C25   C26   A    
O4    Zn2   S    
C7    C8    A    
O8    Zn2   S    
C10   C16   S    
C5    Cl4   S    
O3    Zn1   S    
C15   C19   A    
C33   H7    S    
C11   C13   S    
C8    H12   S    
C4    O4    A    
C26   C27   A    
C6    C7    A    
C16   O6    A    
C12   C28   A    
C23   C29   A    
C4    O3    A    
C21   H11   S    
C33   C34   A    
C23   C27   A    
C6    C11   A    
C30   C31   A    
C20   H8    S    
C9    H14   S    
C10   C11   A    
O6    Zn2   S    
C12   C34   A    
N2    Zn1   S    
O5    Zn1   S    
C18   H5    S    
C15   C21   S    
N1    Zn2   S    
C24   C25   A    
C20   C21   S    
C23   Cl2   S    
C16   O5    A    
C26   H10   S    
O1    Zn1   S    
C27   C28   A    
C12   C24   A    
C18   N2    A    
C14   H4    S    
C2    C3    A    
C13   C14   S    
C1    C7    S    
C22   O7    A    
C1    O2    A    
C20   Cl1   S    
C22   O8    A    
C34   Cl5   S    
O2    Zn2   S    
C28   C31   A    
C3    C4    S    
C19   C20   S    
C29   H6    S    
C8    C9    A    
C3    C5    A    
C22   C25   S    
C15   N1    A    
