data_mof_unit_32684.cif
_audit_creation_date              2013-03-05T16:45:52-0500
_audit_creation_method            fapswitch 2.2
_symmetry_space_group_name_H-M    P1
_symmetry_Int_Tables_number       1
_space_group_crystal_system       triclinic
_cell_length_a                    18.151994
_cell_length_b                    18.208492
_cell_length_c                    18.121287
_cell_angle_alpha                 60.972622
_cell_angle_beta                  60.799162
_cell_angle_gamma                 61.497216
_cell_volume                      4338.73335954

loop_
_atom_site_label
_atom_site_type_symbol
_atom_site_description
_atom_site_fract_x
_atom_site_fract_y
_atom_site_fract_z
_atom_type_partial_charge
Zn1   Zn    Zn3+2 0.206620 0.206630 0.380140 1.076797
Zn2   Zn    Zn3+2 0.793380 0.793370 0.619860 1.056021
Zn3   Zn    Zn3+2 0.206630 0.380140 0.206620 1.065870
Zn4   Zn    Zn3+2 0.793370 0.619860 0.793380 1.044124
Zn5   Zn    Zn3+2 0.380140 0.206620 0.206630 1.049815
Zn6   Zn    Zn3+2 0.619860 0.793380 0.793370 1.069014
Zn7   Zn    Zn3+2 0.206620 0.206620 0.206620 1.110242
Zn8   Zn    Zn3+2 0.793380 0.793380 0.793380 1.105219
O1    O     O_3   0.250000 0.250000 0.250000 -0.533856
O2    O     O_3   0.750000 0.750000 0.750000 -0.532876
O3    O     O_R   0.305080 0.134200 0.134200 -0.588315
O4    O     O_R   0.694920 0.865800 0.865800 -0.604946
O5    O     O_R   0.134200 0.134200 0.305080 -0.583642
O6    O     O_R   0.865800 0.865800 0.694920 -0.575551
O7    O     O_R   0.134200 0.305080 0.134200 -0.608768
O8    O     O_R   0.865800 0.694920 0.865800 -0.582363
O9    O     O_R   0.134200 0.305090 0.426530 -0.609790
O10   O     O_R   0.865800 0.694910 0.573470 -0.642575
O11   O     O_R   0.305090 0.426530 0.134200 -0.611711
O12   O     O_R   0.694910 0.573470 0.865800 -0.616686
O13   O     O_R   0.426530 0.134200 0.305090 -0.667691
O14   O     O_R   0.573470 0.865800 0.694910 -0.664732
O15   O     O_R   0.134190 0.426530 0.134200 -0.600873
O16   O     O_R   0.865810 0.573470 0.865800 -0.642240
O17   O     O_R   0.426530 0.134200 0.134190 -0.615110
O18   O     O_R   0.573470 0.865800 0.865810 -0.573443
O19   O     O_R   0.134200 0.134190 0.426530 -0.564035
O20   O     O_R   0.865800 0.865810 0.573470 -0.584480
O21   O     O_R   0.426530 0.305080 0.134210 -0.607741
O22   O     O_R   0.573470 0.694920 0.865790 -0.596431
O23   O     O_R   0.305080 0.134210 0.426530 -0.621832
O24   O     O_R   0.694920 0.865790 0.573470 -0.584538
O25   O     O_R   0.134210 0.426530 0.305080 -0.663978
O26   O     O_R   0.865790 0.573470 0.694920 -0.658668
C1    C     C_R   0.389650 0.109295 0.109789 0.889615
C2    C     C_R   0.611202 0.882393 0.897915 0.891311
C3    C     C_R   0.099850 0.119606 0.389774 0.882193
C4    C     C_R   0.880318 0.900039 0.609712 0.849679
C5    C     C_R   0.112989 0.388649 0.106071 0.927379
C6    C     C_R   0.891028 0.611375 0.888943 0.901885
C7    C     C_R   0.109106 0.389792 0.390128 0.884545
C8    C     C_R   0.891065 0.610044 0.609870 0.835086
C9    C     C_R   0.390089 0.389576 0.111284 0.882808
C10   C     C_R   0.609759 0.610504 0.888668 0.866214
C11   C     C_R   0.389356 0.110395 0.390907 0.835917
C12   C     C_R   0.610285 0.888760 0.609619 0.821765
C13   C     C_R   0.989909 0.114774 0.310766 0.483189
C14   C     C_R   0.856348 0.037738 0.677688 0.453469
C15   C     C_R   0.992516 0.329547 0.088031 0.475909
C16   C     C_R   0.063374 0.638570 0.830588 0.455639
C17   C     C_R   0.346113 0.947190 0.162078 0.439937
C18   C     C_R   0.685185 0.954407 0.960529 0.515349
C19   C     C_R   0.971572 0.080876 0.269681 -0.368452
C20   C     C_R   0.868247 0.082568 0.713148 -0.327436
C21   C     C_R   0.909739 0.317899 0.121654 -0.365546
C22   C     C_R   0.134600 0.660323 0.815182 -0.312588
C23   C     C_R   0.316021 0.884859 0.171118 -0.349088
C24   C     C_R   0.713849 0.021587 0.943548 -0.350009
C25   C     C_R   0.918716 0.025591 0.321765 0.333142
C26   C     C_R   0.923031 0.135992 0.659514 0.426892
C27   C     C_R   0.834387 0.390654 0.109525 0.355905
C28   C     C_R   0.187134 0.608269 0.870105 0.358846
C29   C     C_R   0.366527 0.831717 0.116655 0.393532
C30   C     C_R   0.653469 0.106361 0.943188 0.339372
C31   C     C_R   0.888361 0.002534 0.414706 0.643902
C32   C     C_R   0.968262 0.142550 0.569787 0.667305
C33   C     C_R   0.844999 0.473580 0.054293 0.654970
C34   C     C_R   0.168253 0.533336 0.940698 0.613312
C35   C     C_R   0.448004 0.841535 0.052380 0.658947
C36   C     C_R   0.562601 0.119199 0.972950 0.667967
C37   C     C_R   0.926723 0.016404 0.457575 -0.174718
C38   C     C_R   0.969334 0.086926 0.534802 -0.168697
C39   C     C_R   0.930163 0.484548 0.015291 -0.163068
C40   C     C_R   0.089450 0.515538 0.965456 -0.164884
C41   C     C_R   0.475493 0.911666 0.033971 -0.184060
C42   C     C_R   0.532295 0.047262 0.003160 -0.189137
C43   C     C_R   0.980586 0.072870 0.403246 -0.129616
C44   C     C_R   0.912396 0.032799 0.589957 -0.106859
C45   C     C_R   0.998391 0.416739 0.047857 -0.113975
C46   C     C_R   0.033731 0.571389 0.911480 -0.075415
C47   C     C_R   0.421142 0.968942 0.086677 -0.117556
C48   C     C_R   0.593688 0.972706 0.977834 -0.151282
C49   C     C_R   0.907813 0.982532 0.552458 -0.074741
C50   C     C_R   0.017402 0.091192 0.443637 -0.080419
C51   C     C_R   0.950964 0.557900 0.940962 -0.023943
C52   C     C_R   0.068616 0.439479 0.037471 -0.024549
C53   C     C_R   0.560108 0.920430 0.971941 -0.074056
C54   C     C_R   0.445635 0.043847 0.062646 -0.051950
H1    H     H_    0.987792 0.107010 0.197716 0.213691
H2    H     H_    0.826432 0.084493 0.779861 0.177872
H3    H     H_    0.904594 0.251993 0.153543 0.202132
H4    H     H_    0.153213 0.714287 0.755750 0.215118
H5    H     H_    0.256907 0.872128 0.226591 0.206228
H6    H     H_    0.783208 0.007225 0.931334 0.204101
H7    H     H_    0.986732 0.659932 0.079793 0.211212
H8    H     H_    0.001358 0.347746 0.922531 0.206619
H9    H     H_    0.649682 0.138902 0.322335 0.276592
H10   H     H_    0.333633 0.882230 0.704870 0.253585
H11   H     H_    0.075634 0.166874 0.746777 0.240879
H12   H     H_    0.849297 0.714178 0.298708 0.195874
C55   C     C_R   0.032068 0.670687 0.163899 0.478019
C56   C     C_R   0.947163 0.345897 0.840529 0.425397
C57   C     C_R   0.544794 0.262556 0.296878 0.418920
C58   C     C_R   0.409370 0.743486 0.726247 0.408210
C59   C     C_R   0.206953 0.181486 0.682251 0.421754
C60   C     C_R   0.734460 0.725787 0.417630 0.431890
C61   C     C_R   0.036082 0.638886 0.250196 0.431624
C62   C     C_R   0.947996 0.373459 0.753073 0.410728
C63   C     C_R   0.512408 0.337351 0.230902 0.402809
C64   C     C_R   0.447664 0.664319 0.785090 0.436887
C65   C     C_R   0.293610 0.154241 0.624457 0.412820
C66   C     C_R   0.666107 0.783708 0.464474 0.384824
C67   C     C_R   0.996187 0.572672 0.319340 -0.345290
C68   C     C_R   0.002509 0.425866 0.680847 -0.328449
C69   C     C_R   0.558222 0.343205 0.139197 -0.328280
C70   C     C_R   0.435672 0.662823 0.869368 -0.374123
C71   C     C_R   0.316892 0.088383 0.589159 -0.319183
C72   C     C_R   0.662881 0.873715 0.430389 -0.349119
C73   C     C_R   0.954623 0.539122 0.299601 0.496019
C74   C     C_R   0.055698 0.448192 0.697801 0.580317
C75   C     C_R   0.636192 0.274717 0.116003 0.571736
C76   C     C_R   0.386194 0.740457 0.892432 0.647607
C77   C     C_R   0.251834 0.052732 0.611763 0.538573
C78   C     C_R   0.730279 0.901898 0.351940 0.614048
C79   C     C_R   0.951297 0.571129 0.213655 0.588428
C80   C     C_R   0.054920 0.419712 0.784791 0.597043
C81   C     C_R   0.668484 0.201533 0.182075 0.605670
C82   C     C_R   0.351081 0.819269 0.832269 0.581790
C83   C     C_R   0.165424 0.081959 0.667439 0.644463
C84   C     C_R   0.797922 0.843677 0.306082 0.638697
C85   C     C_R   0.989644 0.636390 0.146166 -0.533466
C86   C     C_R   0.000906 0.369241 0.855727 -0.560050
C87   C     C_R   0.623279 0.195398 0.271887 -0.517361
C88   C     C_R   0.362380 0.820859 0.749876 -0.571771
C89   C     C_R   0.142848 0.145803 0.702720 -0.500994
C90   C     C_R   0.798853 0.756896 0.337426 -0.600576
C91   C     C_R   0.950207 0.587254 0.465811 -0.227990
C92   C     C_R   0.049931 0.412090 0.534218 -0.175255
C93   C     C_R   0.581272 0.476153 0.009003 -0.077969
C94   C     C_R   0.417740 0.524669 0.992183 -0.121371
C95   C     C_R   0.468159 0.994289 0.589813 -0.265823
C96   C     C_R   0.528845 0.000163 0.413664 -0.200602
H13   H     H_    0.911175 0.654814 0.439442 0.184417
H14   H     H_    0.089747 0.344734 0.560558 0.181352
H15   H     H_    0.643833 0.458483 0.016861 0.212665
H16   H     H_    0.354804 0.542958 0.984751 0.229111
H17   H     H_    0.444139 0.991894 0.658501 0.213656
H18   H     H_    0.551630 0.000238 0.346037 0.182289
C97   C     C_R   0.948419 0.553197 0.554195 -0.021852
C98   C     C_R   0.051400 0.446191 0.445929 -0.009751
C99   C     C_R   0.552620 0.555151 0.944592 -0.070431
C100  C     C_R   0.446613 0.445460 0.056286 -0.102722
C101  C     C_R   0.554389 0.943141 0.553309 -0.086517
C102  C     C_R   0.443277 0.052886 0.449317 -0.032489
C103  C     C_R   0.999102 0.464582 0.588792 0.113285
C104  C     C_R   0.000442 0.534574 0.411273 0.118602
C105  C     C_R   0.469659 0.580270 0.936447 0.095627
C106  C     C_R   0.528332 0.421471 0.066373 0.107883
C107  C     C_R   0.583125 0.941790 0.466071 0.141928
C108  C     C_R   0.410731 0.046475 0.540363 0.103140
O27   O     O_3   0.927222 0.189218 0.690649 -0.659390
H19   H     H_    0.891825 0.176993 0.755291 0.361212
O28   O     O_3   0.887090 0.001715 0.283892 -0.588819
H20   H     H_    0.913385 0.024404 0.217773 0.386329
O29   O     O_3   0.261578 0.625162 0.852444 -0.694678
H21   H     H_    0.265144 0.680700 0.801153 0.350518
O30   O     O_3   0.751295 0.381715 0.144475 -0.696353
H22   H     H_    0.755375 0.318911 0.181029 0.335163
O31   O     O_3   0.680553 0.176184 0.919513 -0.613877
H23   H     H_    0.746256 0.155743 0.902068 0.354407
O32   O     O_3   0.342003 0.763907 0.130290 -0.594599
H24   H     H_    0.283209 0.765317 0.178130 0.358422
O33   O     O_3   0.000833 0.197105 0.262772 -0.678738
H25   H     H_    0.978009 0.228610 0.305261 0.328873
O34   O     O_3   0.780920 0.012252 0.725676 -0.712374
H26   H     H_    0.756391 0.021360 0.682467 0.315457
O35   O     O_3   0.066426 0.255922 0.079910 -0.670116
H27   H     H_    0.116158 0.275780 0.027887 0.355710
O36   O     O_3   0.030023 0.679770 0.761494 -0.715544
H28   H     H_    0.025881 0.632879 0.751893 0.338237
O37   O     O_3   0.307068 0.976044 0.234223 -0.716589
H29   H     H_    0.355308 0.976183 0.245379 0.306992
O38   O     O_3   0.745478 0.870157 0.971641 -0.683184
H30   H     H_    0.711964 0.827009 0.008908 0.345372
F1    F     F_    0.811190 0.982701 0.458950 -0.605917
F2    F     F_    0.998140 0.213377 0.515743 -0.611387
F3    F     F_    0.771616 0.543074 0.040482 -0.623208
F4    F     F_    0.232286 0.475253 0.978542 -0.629788
F5    F     F_    0.503107 0.775604 0.016546 -0.593439
F6    F     F_    0.505087 0.202171 0.970096 -0.596510
O39   O     O_3   0.071274 0.734725 0.097786 -0.618368
H31   H     H_    0.063544 0.749475 0.041102 0.345490
O40   O     O_3   0.892794 0.296409 0.909986 -0.618075
H32   H     H_    0.898896 0.283208 0.967039 0.346471
O41   O     O_3   0.499422 0.257896 0.385386 -0.668013
H33   H     H_    0.531281 0.202172 0.423097 0.331532
O42   O     O_3   0.417324 0.742784 0.646833 -0.629390
H34   H     H_    0.386833 0.803119 0.613187 0.367688
O43   O     O_3   0.187339 0.242056 0.719147 -0.651800
H35   H     H_    0.127112 0.247580 0.764500 0.319400
O44   O     O_3   0.734746 0.639625 0.450643 -0.621522
H36   H     H_    0.785083 0.608068 0.409104 0.372204
O45   O     O_3   0.080728 0.673308 0.262988 -0.651131
H37   H     H_    0.087252 0.639976 0.322829 0.346331
O46   O     O_3   0.892883 0.349841 0.742123 -0.642193
H38   H     H_    0.899381 0.372320 0.678177 0.368650
O47   O     O_3   0.437349 0.403211 0.259154 -0.674567
H39   H     H_    0.428521 0.457313 0.207334 0.347736
O48   O     O_3   0.494486 0.590479 0.758049 -0.608794
H40   H     H_    0.521699 0.540262 0.802773 0.352526
O49   O     O_3   0.353428 0.192129 0.606338 -0.635136
H41   H     H_    0.408882 0.174402 0.558705 0.349772
O50   O     O_3   0.602453 0.749945 0.540216 -0.641952
H42   H     H_    0.554947 0.797075 0.564902 0.334532
F7    F     F_    0.918026 0.474456 0.363860 -0.605127
F8    F     F_    0.107445 0.498787 0.629828 -0.593913
F9    F     F_    0.681140 0.279125 0.028940 -0.550547
F10   F     F_    0.372632 0.739592 0.973354 -0.534682
F11   F     F_    0.272638 0.988603 0.580311 -0.642315
F12   F     F_    0.727932 0.987293 0.317575 -0.565336
F13   F     F_    0.911188 0.538284 0.195397 -0.613739
F14   F     F_    0.106772 0.441076 0.800558 -0.616086
F15   F     F_    0.744486 0.136580 0.158818 -0.541515
F16   F     F_    0.304786 0.894332 0.854296 -0.592644
F17   F     F_    0.103966 0.046078 0.689585 -0.606838
F18   F     F_    0.861192 0.872273 0.229063 -0.549695

loop_
_geom_bond_atom_site_label_1
_geom_bond_atom_site_label_2
_geom_bond_distance
_ccdc_geom_bond_type
C92   C103  1.388587 A    
C55   C61   1.406492 A    
C66   C72   1.425573 A    
O45   H37   0.988074 S    
C78   F12   1.352901 S    
C73   F7    1.358255 S    
O29   H21   0.991149 S    
C69   C75   1.406640 A    
C64   C70   1.421779 A    
C4    C49   1.509830 S    
Zn2   O10   1.945234 S    
O31   H23   0.991718 S    
Zn3   O15   1.926847 S    
O28   H20   0.991905 S    
O26   C8    1.278648 A    
C18   O38   1.380064 S    
H9    C87   1.080743 S    
C96   C107  1.391527 A    
O32   H24   0.991909 S    
C91   C97   1.398371 A    
C82   F16   1.356302 S    
C24   H6    1.082815 S    
O27   H19   0.991786 S    
C19   C25   1.393139 A    
C20   C26   1.393722 A    
O33   H25   0.992023 S    
C92   C98   1.398597 A    
Zn7   O3    1.948553 S    
C58   C88   1.406379 A    
C99   C105  1.411650 A    
C84   F18   1.356278 S    
C56   C86   1.407041 A    
C20   H2    1.076674 S    
C40   C46   1.425539 A    
O14   C12   1.281386 A    
O10   C8    1.289544 A    
Zn4   O16   1.926845 S    
C74   C80   1.395005 A    
Zn3   O25   1.933719 S    
C34   C40   1.423938 A    
C48   C53   1.415955 A    
Zn6   O14   1.937616 S    
C58   O42   1.380331 S    
Zn1   O23   1.944406 S    
Zn2   O24   1.944408 S    
O44   H36   0.989556 S    
C14   C44   1.429617 A    
C30   O31   1.379697 S    
C63   O47   1.382877 S    
C15   O35   1.378783 S    
C79   C85   1.393095 A    
C61   C67   1.424741 A    
C38   C44   1.430673 A    
C83   C89   1.392496 A    
C44   C49   1.427532 A    
C37   C49   1.432350 A    
C32   C38   1.421410 A    
C29   C35   1.394772 A    
C93   C106  1.389047 A    
C33   F3    1.359205 S    
C21   H3    1.078940 S    
C3    C50   1.511218 S    
Zn3   O11   1.925220 S    
C17   C23   1.391872 A    
C30   C36   1.397327 A    
C67   C104  1.488444 S    
O4    C2    1.268386 A    
C17   C47   1.432656 A    
O5    C3    1.281986 A    
C81   F15   1.356025 S    
H8    C86   1.079596 S    
C14   O34   1.378117 S    
O24   C12   1.278642 A    
Zn7   O7    1.953263 S    
C57   C63   1.404030 A    
C59   C65   1.403310 A    
C26   C32   1.390926 A    
O43   H35   0.989606 S    
Zn8   O8    1.953265 S    
C23   H5    1.083707 S    
O21   C9    1.286011 A    
C71   C108  1.486692 S    
H7    C85   1.083150 S    
O22   C10   1.284576 A    
C72   C107  1.483976 S    
C57   O41   1.379719 S    
O13   C11   1.289452 A    
C68   C74   1.406090 A    
O12   C10   1.291104 A    
O11   C9    1.288758 A    
O48   H40   0.988597 S    
Zn5   O21   1.929967 S    
C2    C53   1.487925 S    
C24   C30   1.402336 A    
C31   F1    1.356998 S    
C10   C99   1.448953 S    
C102  C108  1.418648 A    
C91   H13   1.082441 S    
C69   C106  1.484042 S    
C78   C84   1.392511 A    
O47   H39   0.988108 S    
C96   H18   1.085006 S    
Zn1   O1    1.944086 S    
C94   H16   1.085191 S    
O30   H22   0.991930 S    
C63   C69   1.424358 A    
C41   C47   1.427740 A    
C60   C66   1.401621 A    
C7    C98   1.456680 S    
C43   C50   1.421503 A    
C17   O37   1.376446 S    
O37   H29   0.991460 S    
C77   F11   1.358657 S    
C16   C22   1.391275 A    
C42   C54   1.419194 A    
O39   H31   0.991909 S    
C91   C104  1.390749 A    
C27   O30   1.380114 S    
C6    C51   1.455744 S    
C101  C107  1.411641 A    
C14   C20   1.392359 A    
O38   H30   0.991871 S    
Zn5   O1    1.957571 S    
C46   C51   1.429892 A    
Zn3   O1    1.966880 S    
C82   C88   1.391787 A    
C94   C105  1.386648 A    
O6    C4    1.291454 A    
C1    C54   1.472344 S    
C27   C33   1.393444 A    
C95   C108  1.390090 A    
C29   O32   1.380189 S    
O49   H41   0.987406 S    
O50   H42   0.984904 S    
Zn8   O4    1.948555 S    
C15   C21   1.399777 A    
C26   O27   1.380690 S    
C39   C45   1.397563 A    
H11   C89   1.083151 S    
C67   C73   1.409113 A    
C66   O50   1.381486 S    
C40   C52   1.424223 A    
C56   C62   1.405598 A    
O7    C5    1.266150 A    
C39   C51   1.407100 A    
C38   C50   1.424849 A    
C18   C24   1.395580 A    
O8    C6    1.266150 A    
C100  C106  1.411838 A    
Zn5   O17   1.926827 S    
C33   C39   1.421541 A    
C73   C79   1.395086 A    
O46   H38   0.988238 S    
C41   C53   1.422426 A    
C18   C48   1.425778 A    
O17   C1    1.273771 A    
O40   H32   0.992019 S    
C59   O43   1.377935 S    
C56   O40   1.380668 S    
C32   F2    1.356479 S    
C19   H1    1.081954 S    
C22   C28   1.395098 A    
C64   O48   1.382952 S    
C13   C43   1.422997 A    
C36   C42   1.419877 A    
C42   C48   1.398995 A    
Zn2   O2    1.944083 S    
C72   C78   1.405426 A    
C55   C85   1.407672 A    
C68   C103  1.483692 S    
C37   C43   1.421328 A    
C15   C45   1.423429 A    
C36   F6    1.358913 S    
C70   C76   1.405337 A    
O18   C2    1.286764 A    
Zn7   O1    1.913666 S    
C12   C101  1.456695 S    
C94   C100  1.396764 A    
C97   C103  1.416787 A    
C93   H15   1.085358 S    
Zn8   O6    1.932089 S    
C76   F10   1.356549 S    
O9    C7    1.287118 A    
Zn6   O22   1.929967 S    
C75   F9    1.358253 S    
C84   C90   1.390208 A    
C81   C87   1.393758 A    
C23   C29   1.395744 A    
C62   O46   1.382867 S    
C55   O39   1.380501 S    
C16   C46   1.432854 A    
Zn6   O2    1.957573 S    
Zn2   O20   1.917061 S    
C80   F14   1.355930 S    
C76   C82   1.393198 A    
C75   C81   1.394210 A    
C96   C102  1.396850 A    
C79   F13   1.356415 S    
C74   F8    1.357913 S    
C61   O45   1.382928 S    
H10   C88   1.077251 S    
Zn1   O9    1.945235 S    
C59   C89   1.407244 A    
C65   C71   1.422207 A    
C62   C68   1.424151 A    
C8    C97   1.460576 S    
O3    C1    1.274974 A    
C16   O36   1.375359 S    
C71   C77   1.409040 A    
O25   C7    1.278881 A    
C70   C105  1.480253 S    
O34   H26   0.991211 S    
C31   C37   1.427661 A    
O41   H33   0.991790 S    
C25   C31   1.394813 A    
C60   O44   1.379758 S    
C58   C64   1.404771 A    
C95   C101  1.396860 A    
Zn6   O18   1.926825 S    
C92   H14   1.084848 S    
O15   C5    1.292145 A    
C13   C19   1.389215 A    
C21   C27   1.398401 A    
C93   C99   1.396773 A    
O16   C6    1.277326 A    
C35   C41   1.422409 A    
C28   C34   1.392910 A    
Zn4   O26   1.933717 S    
C57   C87   1.405452 A    
O42   H34   0.991920 S    
C65   O49   1.382032 S    
C47   C54   1.435606 A    
C25   O28   1.379053 S    
C80   C86   1.393564 A    
C95   H17   1.085008 S    
H12   C90   1.076432 S    
O36   H28   0.991522 S    
Zn4   O12   1.925218 S    
C35   F5    1.356489 S    
Zn7   O5    1.932087 S    
C28   O29   1.379208 S    
Zn5   O13   1.937614 S    
C34   F4    1.356663 S    
Zn8   O2    1.913665 S    
O35   H27   0.992336 S    
O23   C11   1.272763 A    
C83   F17   1.355285 S    
Zn1   O19   1.917060 S    
C98   C104  1.416041 A    
C11   C102  1.460113 S    
C13   O33   1.375949 S    
C5    C52   1.483131 S    
O20   C4    1.269692 A    
C22   H4    1.083684 S    
Zn4   O2    1.966883 S    
C45   C52   1.423315 A    
C77   C83   1.393441 A    
C9    C100  1.447732 S    
O19   C3    1.279784 A    
C60   C90   1.405286 A    
