data_mof_unit_49658.cif
_audit_creation_date              2012-12-10T17:31:25-0500
_audit_creation_method            fapswitch 2.2
_symmetry_space_group_name_H-M    P1
_symmetry_Int_Tables_number       1
_space_group_crystal_system       triclinic
_cell_length_a                    19.044141
_cell_length_b                    18.477984
_cell_length_c                    12.344562
_cell_angle_alpha                 89.903525
_cell_angle_beta                  128.710418
_cell_angle_gamma                 90.181437
_cell_volume                      3389.692927

loop_
_atom_site_label
_atom_site_type_symbol
_atom_type_description
_atom_site_fract_x
_atom_site_fract_y
_atom_site_fract_z
_atom_type_partial_charge
C1    C     C_R   0.610424 0.896862 0.650966 0.818260
C2    C     C_R   0.610784 0.102923 0.651098 0.811315
C3    C     C_R   0.110330 0.396809 0.650801 0.818296
C4    C     C_R   0.110493 0.603114 0.650723 0.811674
C5    C     C_R   0.246992 0.770618 0.046809 0.049640
C6    C     C_R   0.253861 0.234142 0.055636 0.062439
C7    C     C_R   0.747313 0.270148 0.047600 0.048083
C8    C     C_R   0.754933 0.735124 0.057430 0.063428
C9    C     C_R   0.678416 0.251320 0.055453 0.121551
C10   C     C_R   0.694437 0.761626 0.078432 0.096022
C11   C     C_R   0.179140 0.750635 0.056446 0.118120
C12   C     C_R   0.192861 0.260257 0.075873 0.094138
C13   C     C_R   0.601859 0.216132 0.943199 -0.186695
C14   C     C_R   0.617648 0.797978 0.970100 -0.232347
C15   C     C_R   0.102581 0.715178 0.944798 -0.187653
C16   C     C_R   0.115757 0.296109 0.966890 -0.224919
C17   C     C_R   0.595878 0.197050 0.829454 -0.209868
C18   C     C_R   0.604329 0.810733 0.848211 -0.161808
C19   C     C_R   0.095835 0.696608 0.830210 -0.209002
C20   C     C_R   0.103117 0.309511 0.845691 -0.172724
C21   C     C_R   0.307479 0.824310 0.136370 -0.269913
C22   C     C_R   0.309651 0.177282 0.139353 -0.337133
C23   C     C_R   0.808205 0.323552 0.137478 -0.273868
C24   C     C_R   0.810319 0.677958 0.140470 -0.336670
C25   C     C_R   0.257135 0.816516 0.274557 0.101488
C26   C     C_R   0.274367 0.195535 0.295187 0.159461
C27   C     C_R   0.755654 0.317829 0.272788 0.102357
C28   C     C_R   0.775439 0.696167 0.296843 0.159778
C29   C     C_R   0.674524 0.161974 0.737076 -0.135004
C30   C     C_R   0.672933 0.836944 0.735908 -0.138020
C31   C     C_R   0.173371 0.662859 0.735474 -0.167008
C32   C     C_R   0.172651 0.336735 0.735272 -0.137990
C33   C     C_R   0.683025 0.999769 0.282435 -0.362992
C34   C     C_R   0.183032 0.499839 0.282453 -0.359652
C35   C     C_R   0.344273 0.000063 0.628958 0.099358
C36   C     C_R   0.844274 0.500205 0.628958 0.098209
C37   C     C_R   0.310279 0.000092 0.701429 -0.260240
C38   C     C_R   0.810281 0.500391 0.701429 -0.259153
C39   C     C_R   0.386293 0.100501 0.345469 0.819762
C40   C     C_R   0.384515 0.900619 0.343365 0.826920
C41   C     C_R   0.886432 0.600597 0.345676 0.820362
C42   C     C_R   0.884438 0.400676 0.343286 0.825800
C43   C     C_R   0.368632 0.000068 0.846306 -0.197413
C44   C     C_R   0.868636 0.500352 0.846307 -0.191044
C45   C     C_R   0.462515 0.000027 0.921390 0.001230
C46   C     C_R   0.962519 0.500142 0.921394 0.004895
C47   C     C_R   0.494306 0.000007 0.842164 0.268525
C48   C     C_R   0.994309 0.500022 0.842167 0.269747
C49   C     C_R   0.525988 0.000008 0.071463 -0.039710
C50   C     C_R   0.025993 0.500080 0.071469 -0.038986
C51   C     C_R   0.619124 0.999907 0.137537 0.144226
C52   C     C_R   0.119132 0.499953 0.137549 0.143676
C53   C     C_R   0.648596 0.999879 0.059107 -0.255626
C54   C     C_R   0.148601 0.499882 0.059116 -0.256141
C55   C     C_R   0.587869 0.999995 0.915398 -0.171422
C56   C     C_R   0.087874 0.499961 0.915403 -0.171465
C57   C     C_R   0.501942 0.000094 0.160136 -0.035159
C58   C     C_R   0.001945 0.500124 0.160137 -0.035285
C59   C     C_R   0.655430 0.999750 0.363759 0.376895
C60   C     C_R   0.155429 0.499819 0.363770 0.374490
C61   C     C_R   0.684589 0.272232 0.170919 0.098769
C62   C     C_R   0.708675 0.745927 0.202947 0.090571
C63   C     C_R   0.186236 0.770689 0.173090 0.100652
C64   C     C_R   0.207134 0.244805 0.200497 0.095267
C65   C     C_R   0.315609 0.845888 0.251892 -0.095215
C66   C     C_R   0.322216 0.158531 0.259814 -0.099668
C67   C     C_R   0.815350 0.346074 0.251687 -0.094067
C68   C     C_R   0.822809 0.658976 0.260760 -0.099726
C69   C     C_R   0.745883 0.173890 0.734070 -0.279841
C70   C     C_R   0.738396 0.819772 0.721987 -0.300324
C71   C     C_R   0.243195 0.676415 0.729541 -0.203359
C72   C     C_R   0.238334 0.319863 0.721711 -0.300302
C73   C     C_R   0.318187 0.716157 0.832561 0.156855
C74   C     C_R   0.313325 0.279246 0.822309 0.221982
C75   C     C_R   0.821597 0.212568 0.839463 0.158476
C76   C     C_R   0.813562 0.779346 0.822815 0.221693
C77   C     C_R   0.324690 0.743141 0.945327 0.103007
C78   C     C_R   0.324006 0.254194 0.938851 0.161039
C79   C     C_R   0.826687 0.240332 0.949953 0.159554
C80   C     C_R   0.824580 0.754728 0.939859 0.160875
C81   C     C_R   0.749396 0.238437 0.944365 0.046892
C82   C     C_R   0.752532 0.762630 0.947093 -0.002743
C83   C     C_R   0.248368 0.739705 0.942260 0.069732
C84   C     C_R   0.251719 0.261824 0.945627 -0.002936
C85   C     C_R   0.672315 0.199408 0.835150 0.034920
C86   C     C_R   0.675582 0.803253 0.841911 0.047283
C87   C     C_R   0.171582 0.699937 0.834223 0.034622
C88   C     C_R   0.174841 0.302522 0.840419 0.047893
Cu1   Cu    Cu3+1 0.526340 0.000000 0.421010 0.953066
Cu2   Cu    Cu3+1 0.026340 0.500000 0.421010 0.952961
Cu3   Cu    Cu3+1 0.473640 0.000000 0.578990 0.936032
Cu4   Cu    Cu3+1 0.973640 0.500000 0.578990 0.935900
H1    H     H_    0.719968 0.999744 0.109595 0.153548
H2    H     H_    0.219974 0.499741 0.109606 0.154092
H3    H     H_    0.238239 0.000133 0.644926 0.142535
H4    H     H_    0.738243 0.500574 0.644925 0.142495
H5    H     H_    0.746578 0.148325 0.655874 0.167845
H6    H     H_    0.735192 0.842260 0.637892 0.174095
H7    H     H_    0.243078 0.651588 0.650004 0.178681
H8    H     H_    0.235444 0.342717 0.638132 0.174237
N1    N     N_R   0.566260 0.000000 0.302220 -0.167854
N2    N     N_R   0.066260 0.500000 0.302220 -0.168004
N3    N     N_R   0.434410 0.000000 0.697680 -0.209426
N4    N     N_R   0.934410 0.500000 0.697680 -0.209641
O1    O     O_R   0.608610 0.924520 0.551740 -0.547689
O2    O     O_R   0.608610 0.075480 0.551740 -0.554566
O3    O     O_R   0.108610 0.424520 0.551740 -0.547789
O4    O     O_R   0.108610 0.575480 0.551740 -0.556535
O5    O     O_R   0.564110 0.924510 0.685150 -0.616948
O6    O     O_R   0.564110 0.075490 0.685150 -0.609331
O7    O     O_R   0.064110 0.424510 0.685150 -0.616123
O8    O     O_R   0.064110 0.575490 0.685150 -0.607606
O9    O     O_R   0.435880 0.075470 0.314850 -0.602773
O10   O     O_R   0.435880 0.924530 0.314850 -0.597686
O11   O     O_R   0.935880 0.575470 0.314850 -0.602610
O12   O     O_R   0.935880 0.424530 0.314850 -0.598025
O13   O     O_R   0.391380 0.075460 0.448260 -0.563133
O14   O     O_R   0.391380 0.924540 0.448260 -0.557665
O15   O     O_R   0.891380 0.575460 0.448260 -0.563253
O16   O     O_R   0.891380 0.424540 0.448260 -0.558147
N5    N     N_3   0.267738 0.835139 0.396920 -0.573689
H9    H     H_    0.277102 0.787724 0.450789 0.221285
H10   H     H_    0.209352 0.860841 0.367558 0.206039
N6    N     N_3   0.291840 0.181655 0.424473 -0.571281
H11   H     H_    0.309720 0.230524 0.478565 0.219419
H12   H     H_    0.232576 0.162774 0.403363 0.231007
N7    N     N_3   0.765149 0.337426 0.393851 -0.577239
H13   H     H_    0.773472 0.290367 0.447848 0.208243
H14   H     H_    0.706743 0.363785 0.362932 0.206981
N8    N     N_3   0.792953 0.682028 0.426087 -0.571229
H15   H     H_    0.811392 0.730734 0.480803 0.219271
H16   H     H_    0.733563 0.663488 0.404949 0.230836
H17   H     H_    0.754370 0.999555 0.332773 0.140364
H18   H     H_    0.254377 0.499659 0.332798 0.141691
H19   H     H_    0.432513 0.000232 0.118236 0.126310
H20   H     H_    0.932516 0.500237 0.118237 0.126537
H21   H     H_    0.298222 0.000099 0.516677 0.134463
H22   H     H_    0.798223 0.500274 0.516677 0.134993
H23   H     H_    0.338633 0.000086 0.896907 0.132911
H24   H     H_    0.838638 0.500518 0.896908 0.132089
H25   H     H_    0.617936 0.999970 0.866176 0.211876
H26   H     H_    0.117940 0.499925 0.866180 0.212251
H27   H     H_    0.544424 0.206224 0.939636 0.211650
H28   H     H_    0.564662 0.812690 0.974734 0.138852
H29   H     H_    0.045691 0.704631 0.942396 0.211365
H30   H     H_    0.062121 0.310061 0.970520 0.162995
N9    N     N_3   0.618577 0.247133 0.183575 -0.589532
H31   H     H_    0.587152 0.291955 0.188049 0.234377
H32   H     H_    0.650942 0.217675 0.275664 0.219105
N10   N     N_3   0.656920 0.779954 0.236638 -0.616400
H33   H     H_    0.590159 0.763388 0.164353 0.207813
H34   H     H_    0.660482 0.836046 0.229601 0.232107
N11   N     N_3   0.121388 0.744398 0.187436 -0.590480
H35   H     H_    0.089896 0.788658 0.193328 0.234042
H36   H     H_    0.154783 0.714612 0.279339 0.220838
N12   N     N_3   0.155023 0.278698 0.233594 -0.617706
H37   H     H_    0.088504 0.261626 0.161373 0.221139
H38   H     H_    0.157981 0.334786 0.225628 0.230267
H39   H     H_    0.345370 0.853124 0.112153 0.201784
H40   H     H_    0.340231 0.144506 0.107212 0.174670
H41   H     H_    0.847220 0.351427 0.114402 0.200013
H42   H     H_    0.840604 0.645134 0.107868 0.174765
N13   N     N_3   0.411109 0.765685 0.067979 -0.614411
H43   H     H_    0.435750 0.807235 0.042294 0.208742
H44   H     H_    0.454753 0.721505 0.106955 0.221470
N14   N     N_3   0.413232 0.231855 0.054431 -0.576419
H45   H     H_    0.430253 0.248603 0.149017 0.223950
H46   H     H_    0.420837 0.176225 0.050063 0.230761
N15   N     N_3   0.913045 0.262350 0.073224 -0.606504
H47   H     H_    0.937821 0.303699 0.047324 0.228419
H48   H     H_    0.956369 0.217971 0.110899 0.233148
N16   N     N_3   0.913917 0.732593 0.055450 -0.577100
H49   H     H_    0.930902 0.749336 0.150015 0.223655
H50   H     H_    0.921628 0.676962 0.051296 0.230731
N17   N     N_3   0.389880 0.724689 0.825047 -0.608658
H51   H     H_    0.448206 0.701060 0.912539 0.216194
H52   H     H_    0.401450 0.780015 0.824934 0.215852
N18   N     N_3   0.383294 0.267856 0.811972 -0.579521
H53   H     H_    0.355656 0.240176 0.719400 0.208543
H54   H     H_    0.405732 0.318334 0.806124 0.214138
N19   N     N_3   0.897123 0.218985 0.840727 -0.625579
H55   H     H_    0.875574 0.245050 0.749336 0.218510
H56   H     H_    0.918134 0.166922 0.839877 0.219230
N20   N     N_3   0.883336 0.767673 0.812116 -0.579584
H57   H     H_    0.855561 0.739621 0.719851 0.208692
H58   H     H_    0.905571 0.818046 0.805411 0.213325
H59   H     H_    0.530590 0.179474 0.738447 0.185682
H60   H     H_    0.537476 0.827255 0.760636 0.182914
H61   H     H_    0.030472 0.678748 0.739805 0.186714
H62   H     H_    0.036445 0.326215 0.757766 0.180966
N21   N     N_3   0.720850 0.999389 0.511709 -0.531616
H63   H     H_    0.760852 0.953373 0.540836 0.184048
H64   H     H_    0.762323 0.044688 0.541621 0.179015
N22   N     N_3   0.220836 0.499561 0.511724 -0.530428
H65   H     H_    0.261058 0.453677 0.540980 0.184505
H66   H     H_    0.262082 0.545010 0.541574 0.188007

loop_
_geom_bond_atom_site_label_1
_geom_bond_atom_site_label_2
_ccdc_geom_bond_type
C77   N13   S    
C40   O14   A    
C73   N17   S    
C55   H25   S    
C21   H39   S    
N15   H47   S    
C14   C18   A    
C15   H29   S    
N13   H43   S    
C48   C56   A    
C42   O16   A    
C18   H60   S    
N21   H64   S    
N18   H53   S    
C60   N22   S    
N14   H46   S    
N19   H55   S    
C15   C19   A    
C4    O4    A    
C18   C86   A    
C75   C79   A    
C22   H40   S    
C2    C29   S    
C9    C61   A    
Cu3   O6    S    
N6    H12   S    
N12   H37   S    
N13   H44   S    
Cu4   O15   S    
Cu2   O3    S    
C5    C11   A    
C35   N3    A    
C20   H62   S    
C12   C64   A    
C77   C83   A    
C48   N4    A    
C49   C57   A    
N20   H57   S    
C37   H3    S    
C16   H30   S    
C25   C63   A    
C23   C67   A    
C9    C13   A    
Cu2   N2    S    
C26   C64   A    
C27   C61   A    
N9    H31   S    
C1    O5    A    
C11   C15   A    
C22   C66   A    
C12   C16   A    
C44   C46   A    
C49   C51   A    
Cu1   O2    S    
C50   C52   A    
Cu3   O13   S    
C43   H23   S    
C58   N2    A    
Cu2   O12   S    
C30   C86   A    
C29   C85   A    
C56   H26   S    
C45   C47   A    
N22   H65   S    
C4    O8    A    
C27   N7    S    
C33   C59   A    
C34   C60   A    
N15   H48   S    
C10   C62   A    
C26   N6    S    
C41   O11   A    
C60   N2    A    
C17   C85   A    
C21   C65   A    
C30   C70   A    
C52   C54   A    
C59   N21   S    
C41   C68   S    
C29   C69   A    
C53   C55   A    
Cu1   O9    S    
C78   N14   S    
C47   N3    A    
C28   C62   A    
C53   H1    S    
N21   H63   S    
C59   N1    A    
C84   C88   A    
C31   C87   A    
C63   N11   S    
C32   C72   A    
C10   C14   A    
N19   H56   S    
C3    O7    A    
C71   C73   A    
C24   C68   A    
Cu4   O8    S    
C39   O9    A    
C39   O13   A    
C71   H7    S    
C2    O2    A    
C78   C84   A    
C58   H20   S    
C51   C53   A    
C26   C66   A    
C37   C43   A    
N8    H16   S    
N7    H14   S    
C5    C83   A    
C38   C44   A    
C6    C84   A    
C54   H2    S    
C33   H17   S    
Cu2   Cu4   S    
N17   H51   S    
C74   N18   S    
C14   H28   S    
C45   C49   A    
C16   C20   A    
N22   H66   S    
Cu3   O14   S    
C25   C65   A    
Cu4   O7    S    
Cu2   O11   S    
C41   O15   A    
C43   C45   A    
N5    H9    S    
C19   H61   S    
C72   C74   A    
C50   C58   A    
C7    C81   A    
N17   H52   S    
C40   C65   S    
C70   C76   A    
N14   H45   S    
C39   C66   S    
N10   H34   S    
C32   C88   A    
N11   H36   S    
C80   N16   S    
Cu1   O1    S    
N7    H13   S    
C75   N19   S    
C69   H5    S    
N16   H49   S    
C35   C37   A    
C47   C55   A    
C72   H8    S    
C42   O12   A    
C7    C9    A    
C46   C50   A    
Cu1   O10   S    
C2    O6    A    
C73   C77   A    
C62   N10   S    
N9    H32   S    
C34   C52   A    
C8    C10   A    
C24   H42   S    
C76   C80   A    
Cu3   N3    S    
C28   C68   A    
C83   C87   A    
N18   H54   S    
C54   C56   A    
C33   C51   A    
C57   N1    A    
C64   N12   S    
C79   C81   A    
C13   C17   A    
C36   N4    A    
C3    O3    A    
Cu3   O5    S    
N12   H38   S    
N8    H15   S    
Cu4   O16   S    
C19   C87   A    
Cu2   O4    S    
C82   C86   A    
C35   H21   S    
C36   C38   A    
C6    C12   A    
C79   N15   S    
C42   C67   S    
C25   N5    S    
C17   H59   S    
C7    C23   A    
C20   C88   A    
C31   C71   A    
C1    C30   S    
N16   H50   S    
C80   C82   A    
N20   H58   S    
C69   C75   A    
C28   N8    S    
C13   H27   S    
C61   N9    S    
C3    C32   S    
N5    H10   S    
C4    C31   S    
C27   C67   A    
Cu4   N4    S    
C46   C48   A    
Cu1   N1    S    
C8    C82   A    
C5    C21   A    
C8    C24   A    
C44   H24   S    
Cu1   Cu3   S    
C74   C78   A    
C38   H4    S    
C34   H18   S    
N10   H33   S    
C57   H19   S    
N11   H35   S    
C76   N20   S    
C11   C63   A    
C36   H22   S    
C81   C85   A    
C70   H6    S    
C40   O10   A    
C1    O1    A    
N6    H11   S    
C23   H41   S    
C6    C22   A    
