data_mof_unit_67154.cif
_audit_creation_date              2013-03-05T15:58:58-0500
_audit_creation_method            fapswitch 2.2
_symmetry_space_group_name_H-M    P1
_symmetry_Int_Tables_number       1
_space_group_crystal_system       triclinic
_cell_length_a                    8.29155
_cell_length_b                    12.868546
_cell_length_c                    14.888828
_cell_angle_alpha                 96.630234
_cell_angle_beta                  97.268902
_cell_angle_gamma                 99.022659
_cell_volume                      1541.45943537

loop_
_atom_site_label
_atom_site_type_symbol
_atom_site_description
_atom_site_fract_x
_atom_site_fract_y
_atom_site_fract_z
_atom_type_partial_charge
P1    P     P_3+3 0.998730 0.403530 0.291970 0.472684
O1    O     O_2   0.827880 0.435260 0.277750 -0.391060
O2    O     O_3   0.100280 0.438960 0.391170 -0.366793
O3    O     O_3   0.625580 0.634130 0.333250 -0.305961
O4    O     O_2   0.712105 0.554118 0.176493 -0.422777
O5    O     O_3   0.953894 0.264383 0.281210 -0.550253
O6    O     O_3   0.629987 0.738640 0.177064 -0.571994
H1    H     H_    0.540274 0.852108 0.255549 0.148552
C1    C     C_3   0.489881 0.864902 0.111186 -0.809940
H2    H     H_    0.410047 0.924300 0.125967 0.244889
H3    H     H_    0.612881 0.906579 0.101831 0.307603
P2    P     P_3+3 0.687380 0.751030 0.571310 0.505699
P3    P     P_3+3 0.107506 0.830580 0.384763 0.507586
O7    O     O_2   0.857130 0.766340 0.543890 -0.372955
O8    O     O_3   0.056550 0.691050 0.379010 -0.310208
O9    O     O_2   0.976666 0.881068 0.431698 -0.394429
O10   O     O_3   0.726107 0.770383 0.690757 -0.563650
O11   O     O_3   0.083419 0.865436 0.273898 -0.548140
C2    C     C_3   0.018962 0.773957 0.210797 0.393218
H4    H     H_    0.912073 0.727907 0.233895 0.170753
H5    H     H_    0.112592 0.721881 0.203667 0.034989
C3    C     C_3   0.959617 0.806272 0.118253 -0.398311
H6    H     H_    0.872888 0.738647 0.075579 0.175838
H7    H     H_    0.891478 0.873352 0.130103 0.252157
C4    C     C_3   0.276155 0.784324 0.664120 0.443059
H8    H     H_    0.382846 0.753822 0.640313 0.111664
H9    H     H_    0.169821 0.771621 0.608284 0.120943
C5    C     C_3   0.327824 0.902858 0.696206 -1.026878
H10   H     H_    0.449436 0.917941 0.740009 0.276497
H11   H     H_    0.337079 0.947108 0.636994 0.237425
H12   H     H_    0.237185 0.932639 0.736889 0.280359
Ba1   Ba    Ba6+2 0.843750 0.550210 0.455600 1.622988
C6    C     C_3   0.941057 0.228863 0.366381 0.413121
H13   H     H_    0.819564 0.239433 0.384132 0.053475
H14   H     H_    0.037167 0.271478 0.422486 0.132418
C7    C     C_3   0.957421 0.111576 0.360628 -0.730578
H15   H     H_    0.848645 0.064618 0.382320 0.231692
H16   H     H_    0.066187 0.101575 0.407352 0.223866
H17   H     H_    0.972283 0.077822 0.290730 0.294878
C8    C     C_3   0.770279 0.680227 0.724422 0.469921
H18   H     H_    0.873078 0.654991 0.691842 0.083555
H19   H     H_    0.663243 0.614335 0.712092 0.136968
C9    C     C_3   0.824637 0.708574 0.827100 -1.033924
H20   H     H_    0.950863 0.756395 0.840316 0.259947
H21   H     H_    0.825505 0.636483 0.860718 0.230933
H22   H     H_    0.738031 0.754582 0.858098 0.302021
P4    P     P_3+3 0.190990 0.596560 0.708040 0.476029
O12   O     O_2   0.361830 0.564780 0.722310 -0.372049
O13   O     O_3   0.089430 0.561130 0.608830 -0.379542
O14   O     O_3   0.564130 0.365960 0.666760 -0.340421
O15   O     O_3   0.231597 0.734815 0.737922 -0.571192
P5    P     P_3+3 0.089393 0.175123 0.630283 0.443053
O16   O     O_3   0.601940 0.368240 0.453770 -0.398166
O17   O     O_3   0.133170 0.309040 0.621000 -0.383133
O18   O     O_2   0.203822 0.121351 0.572761 -0.390899
O19   O     O_3   0.163760 0.161294 0.742917 -0.508387
Ba2   Ba    Ba6+2 0.346090 0.449880 0.544410 1.587497
P6    P     P_3+3 0.582014 0.614421 0.213321 0.458703
C10   C     C_3   0.505299 0.798916 0.189360 0.388290
H23   H     H_    0.382351 0.750746 0.189088 0.062107
H24   H     H_    0.435228 0.813234 0.046250 0.228973
O20   O     O_3   0.587780 0.631850 0.546230 -0.358520
C11   C     C_3   0.485424 0.237928 0.249767 0.401469
H25   H     H_    0.584417 0.306453 0.276757 0.083033
C12   C     C_3   0.536215 0.178807 0.163658 -0.037998
H26   H     H_    0.435501 0.114625 0.128515 0.118194
H27   H     H_    0.563381 0.236015 0.114955 0.031526
P7    P     P_3+3 0.509384 0.231255 0.429741 0.434385
O21   O     O_2   0.332590 0.233690 0.456160 -0.380099
O22   O     O_3   0.464708 0.168319 0.315067 -0.558101
C13   C     C_3   0.122482 0.243415 0.801941 0.548917
H28   H     H_    0.198337 0.320842 0.796006 0.144033
H29   H     H_    0.989711 0.248813 0.786141 -0.029747
C14   C     C_3   0.156267 0.221311 0.900301 -1.001119
H30   H     H_    0.290119 0.242086 0.926396 0.259077
H31   H     H_    0.090082 0.269543 0.944750 0.243262
H32   H     H_    0.114083 0.136097 0.904706 0.288415
P8    P     P_3+3 0.607788 0.374946 0.785068 0.453740
C15   C     C_3   0.613639 0.182666 0.824868 0.158118
H33   H     H_    0.743986 0.219864 0.849553 0.073448
O23   O     O_2   0.509124 0.457880 0.822748 -0.391565
O24   O     O_3   0.507921 0.257488 0.816773 -0.505981
H34   H     H_    0.606120 0.133710 0.757415 0.094548
C16   C     C_3   0.554549 0.112011 0.894416 -0.087444
H35   H     H_    0.427884 0.067978 0.868010 0.150345
H36   H     H_    0.548657 0.162824 0.958943 0.111983
C17   C     C_R   0.829072 0.426767 0.828431 0.142715
C18   C     C_R   0.896356 0.436895 0.921778 -0.030474
C19   C     C_R   0.038037 0.449562 0.108108 -0.065304
C20   C     C_R   0.875355 0.398259 0.076602 -0.042928
C21   C     C_R   0.804504 0.394718 0.986287 -0.185238
C22   C     C_R   0.109958 0.456682 0.201030 0.194161
H37   H     H_    0.800415 0.359345 0.120949 0.166695
H38   H     H_    0.677179 0.356692 0.967841 0.157838
C23   C     C_R   0.276555 0.499152 0.225933 -0.355535
C24   C     C_R   0.084658 0.527786 0.794532 0.237787
C25   C     C_R   0.154156 0.537731 0.888336 -0.042616
C26   C     C_R   0.061400 0.489090 0.951218 0.017823
C27   C     C_R   0.314489 0.593253 0.921374 -0.082443
C28   C     C_R   0.388475 0.590918 0.010213 -0.201263
C29   C     C_R   0.299737 0.542960 0.073248 -0.044514
C30   C     C_R   0.132926 0.494176 0.044318 0.026454
C31   C     C_R   0.371357 0.543952 0.164896 0.180472
C32   C     C_R   0.926429 0.467961 0.765938 -0.514887
H39   H     H_    0.516251 0.628167 0.028490 0.188712
H40   H     H_    0.387949 0.637180 0.878959 0.187788
H41   H     H_    0.334360 0.496843 0.294833 0.198687
H42   H     H_    0.873373 0.460013 0.694752 0.172324
C33   C     C_R   0.768398 0.184922 0.548182 -0.510514
C34   C     C_R   0.422476 0.816048 0.472047 -0.021712
C35   C     C_R   0.384139 0.992521 0.451524 -0.192573
C36   C     C_R   0.320499 0.885165 0.443112 0.111313
C37   C     C_R   0.578642 0.853412 0.524081 0.127711
C38   C     C_R   0.641888 0.965911 0.540027 -0.109406
C39   C     C_R   0.544660 0.034716 0.497709 -0.068146
C40   C     C_R   0.609618 0.144208 0.502059 0.316637
C41   C     C_R   0.867371 0.119468 0.587894 0.127348
C42   C     C_R   0.800500 0.012585 0.590899 0.093805
H43   H     H_    0.306498 0.041381 0.419944 0.202457
H44   H     H_    0.819647 0.267588 0.548018 0.162461
N1    N     N_2   0.332171 0.277036 0.226436 -0.158967
H45   H     H_    0.288937 0.307180 0.284008 0.190665
C43   C     C_3   0.202122 0.210504 0.160157 -0.841076
H46   H     H_    0.092411 0.248515 0.150791 0.292203
H47   H     H_    0.167422 0.131839 0.182752 0.280427
H48   H     H_    0.239918 0.202099 0.091327 0.221056
N2    N     N_R   0.676449 0.126900 0.185435 0.269327
O25   O     O_R   0.791361 0.131691 0.133472 -0.369716
O26   O     O_R   0.661566 0.051723 0.236517 -0.432373
N3    N     N_2   0.097892 0.836003 0.070644 -0.102246
H49   H     H_    0.139314 0.771317 0.039671 0.184982
C44   C     C_3   0.080090 0.917183 0.012371 -0.769911
H50   H     H_    0.188507 0.930197 0.975623 0.229242
H51   H     H_    0.073468 0.993028 0.054241 0.281904
H52   H     H_    0.966197 0.893247 0.961805 0.279990
N4    N     N_R   0.665677 0.037737 0.914334 0.243248
O27   O     O_R   0.606963 0.937072 0.909840 -0.436524
O28   O     O_R   0.819016 0.073296 0.949112 -0.406264
N5    N     N_2   0.888186 0.956895 0.651525 -0.079203
H53   H     H_    0.010111 0.959809 0.643514 0.204845
C45   C     C_3   0.863850 0.980838 0.745776 -0.682523
H54   H     H_    0.942108 0.939095 0.790283 0.249455
H55   H     H_    0.732816 0.955192 0.752375 0.259575
H56   H     H_    0.893884 0.066741 0.769601 0.213379
N6    N     N_R   0.372164 0.706627 0.438538 0.255598
O29   O     O_R   0.349183 0.681086 0.350659 -0.465357
O30   O     O_R   0.290549 0.645684 0.487087 -0.343996

loop_
_geom_bond_atom_site_label_1
_geom_bond_atom_site_label_2
_geom_bond_distance
_ccdc_geom_bond_type
P8    C17   1.856085 S    
C17   C18   1.413853 A    
C11   C12   1.552971 S    
C29   C30   1.416732 A    
P2    Ba1   3.451885 S    
C19   C30   1.422681 A    
O12   Ba2   2.857731 S    
C2    H4    1.101987 S    
C24   C32   1.400484 A    
N2    O26   1.298379 A    
C38   C39   1.433544 A    
C33   C41   1.393397 A    
Ba2   O20   2.828416 S    
P4    O13   1.583721 S    
C4    C5    1.521001 S    
C28   H39   1.078850 S    
C14   H31   1.108261 S    
O4    P6    1.542826 D    
C1    H24   1.108320 S    
C12   N2    1.449666 S    
O1    Ba1   2.857183 S    
C5    H10   1.105777 S    
C2    H5    1.109343 S    
C16   H36   1.108959 S    
P2    C37   1.862600 S    
P3    C36   1.857089 S    
C45   H55   1.105007 S    
H1    C10   1.110612 S    
N6    O29   1.293935 A    
C15   C16   1.531348 S    
C43   H47   1.110170 S    
C39   C40   1.418317 A    
C6    C7    1.530068 S    
O13   Ba2   2.941659 S    
C15   O24   1.405268 S    
C35   H43   1.072131 S    
P1    O1    1.530956 D    
O16   P7    1.784652 S    
C33   C40   1.396826 A    
C25   C27   1.405431 A    
C8    C9    1.522691 S    
C35   C36   1.384702 A    
P5    O17   1.729792 S    
C44   H50   1.110809 S    
C12   H27   1.109554 S    
C14   H32   1.109602 S    
P2    O10   1.748163 S    
C7    H15   1.109398 S    
P4    C24   1.877415 S    
C11   O22   1.404376 S    
C34   N6    1.416517 S    
C1    H2    1.107958 S    
O6    P6    1.749017 S    
P5    O18   1.545057 D    
P5    C41   1.867693 S    
C8    H19   1.107766 S    
C10   H23   1.106200 S    
C29   C31   1.415380 A    
C3    N3    1.447079 S    
Ba1   Ba2   4.532799 S    
O14   P8    1.739433 S    
O6    C10   1.403797 S    
N6    O30   1.297572 A    
C23   C31   1.391307 A    
C25   C26   1.423506 A    
C7    H17   1.109847 S    
C14   H30   1.108154 S    
C11   H25   1.104758 S    
P1    O5    1.755017 S    
P4    O12   1.531193 D    
C43   H46   1.099743 S    
C2    C3    1.529221 S    
C16   H35   1.111793 S    
N4    O28   1.300085 A    
C45   H56   1.100283 S    
C13   H29   1.111000 S    
O16   Ba2   2.919137 S    
P7    O21   1.569083 D    
C43   H48   1.107434 S    
P4    O15   1.751595 S    
C4    H8    1.103826 S    
C26   C30   1.426977 A    
P1    Ba1   3.411831 S    
C17   C32   1.402912 A    
P1    O2    1.583566 S    
O10   C8    1.397313 S    
N3    C44   1.446079 S    
C9    H20   1.109382 S    
C4    O15   1.392977 S    
P4    Ba2   3.412383 S    
P2    O20   1.601892 S    
P8    O24   1.750512 S    
C27   C28   1.391559 A    
C18   C21   1.404611 A    
O19   C13   1.407599 S    
C24   C25   1.425119 A    
C6    H13   1.097811 S    
C11   N1    1.455290 S    
C38   C42   1.434985 A    
C19   C22   1.422275 A    
C9    H21   1.104367 S    
C34   C37   1.404603 A    
N1    H45   1.028752 S    
O3    Ba1   2.826684 S    
C23   H41   1.081674 S    
P7    C40   1.857127 S    
P3    O11   1.755383 S    
C44   H51   1.108709 S    
C8    H18   1.105607 S    
P2    O7    1.504500 D    
P1    C22   1.866471 S    
C1    H3    1.108516 S    
C3    H7    1.112877 S    
C42   N5    1.415523 S    
O2    Ba2   2.835263 S    
Ba1   O16   2.828964 S    
C32   H42   1.081748 S    
C7    H16   1.100972 S    
C20   H37   1.074894 S    
C37   C38   1.441588 A    
C27   H40   1.077548 S    
C16   N4    1.457069 S    
O14   Ba2   2.826018 S    
C5    H12   1.109286 S    
O7    Ba1   2.915110 S    
N4    O27   1.301361 A    
O8    Ba1   2.771613 S    
C13   C14   1.523619 S    
N5    H53   1.028249 S    
C4    H9    1.110455 S    
O5    C6    1.407504 S    
P3    O8    1.768395 S    
N3    H49   1.031817 S    
Ba1   O20   2.919897 S    
C13   H28   1.110854 S    
C41   C42   1.408014 A    
C21   H38   1.078422 S    
C15   H34   1.111362 S    
N5    C45   1.447815 S    
P8    O23   1.541009 D    
C20   C21   1.390296 A    
C44   H52   1.108512 S    
C5    H11   1.107573 S    
C28   C29   1.403258 A    
C6    H14   1.105560 S    
C22   C23   1.389634 A    
O2    Ba1   2.940806 S    
C9    H22   1.110555 S    
C34   C36   1.387024 A    
Ba1   O13   2.834500 S    
N1    C43   1.454525 S    
C15   H33   1.108550 S    
P5    O19   1.750952 S    
P7    O22   1.770530 S    
C12   H26   1.107523 S    
P3    O9    1.547728 D    
O3    P6    1.756893 S    
O11   C2    1.405109 S    
C3    H6    1.112900 S    
C35   C39   1.412326 A    
P6    C31   1.851102 S    
Ba2   O21   2.915434 S    
C19   C20   1.401583 A    
C45   H54   1.109700 S    
C1    C10   1.522075 S    
C18   C26   1.417009 A    
N2    O25   1.299733 A    
C33   H44   1.082265 S    
O17   Ba2   2.772195 S    
