data_mof_unit_21426.cif
_audit_creation_date              2012-12-11T15:55:44-0500
_audit_creation_method            fapswitch 2.2
_symmetry_space_group_name_H-M    P1
_symmetry_Int_Tables_number       1
_space_group_crystal_system       triclinic
_cell_length_a                    11.088188
_cell_length_b                    11.082251
_cell_length_c                    18.714457
_cell_angle_alpha                 90.268338
_cell_angle_beta                  90.499886
_cell_angle_gamma                 59.076985
_cell_volume                      1972.7176861

loop_
_atom_site_label
_atom_site_type_symbol
_atom_type_description
_atom_site_fract_x
_atom_site_fract_y
_atom_site_fract_z
_atom_type_partial_charge
C1    C     C_R   0.360070 0.766613 0.395966 0.541073
C2    C     C_R   0.620059 0.175681 0.155308 0.050196
C3    C     C_R   0.353447 0.340118 0.161518 -0.008495
C4    C     C_R   0.492341 0.274396 0.269201 -0.152579
C5    C     C_R   0.487248 0.268745 0.195051 -0.038052
C6    C     C_R   0.068914 0.474452 0.375395 -0.058661
C7    C     C_R   0.963014 0.568515 0.421175 -0.073444
C8    C     C_R   0.719848 0.041487 0.181984 -0.110456
C9    C     C_R   0.830673 0.944835 0.139343 -0.130627
C10   C     C_R   0.232849 0.429685 0.201874 -0.156347
C11   C     C_R   0.238062 0.431531 0.276010 -0.044660
C12   C     C_R   0.389004 0.356587 0.386632 0.535284
C13   C     C_R   0.884598 0.711546 0.404520 -0.103124
C14   C     C_R   0.915149 0.761508 0.343103 -0.120870
C15   C     C_R   0.026520 0.669103 0.299358 -0.096143
C16   C     C_R   0.106591 0.524971 0.315988 0.047768
C17   C     C_R   0.369390 0.348006 0.310120 -0.003593
C18   C     C_R   0.849315 0.337066 0.180794 0.019823
C19   C     C_R   0.881468 0.219983 0.223151 0.029229
C20   C     C_R   0.857158 0.233883 0.295492 -0.004896
C21   C     C_R   0.754043 0.485067 0.283659 -0.137592
C22   C     C_R   0.776305 0.471480 0.210560 -0.163327
C23   C     C_R   0.771074 0.382677 0.401552 0.540475
C24   C     C_3   0.019386 0.086427 0.233117 -0.233456
C25   C     C_3   0.991332 0.101412 0.312511 -0.286009
C26   C     C_R   0.804728 0.364512 0.327124 0.025886
C27   C     C_R   0.361904 0.833685 0.173175 0.015012
C28   C     C_R   0.387192 0.914079 0.221935 0.013771
C29   C     C_R   0.382677 0.898141 0.294883 -0.013138
C30   C     C_R   0.323431 0.720116 0.272691 -0.147363
C31   C     C_R   0.326226 0.738107 0.199373 -0.167125
C32   C     C_3   0.511289 0.930606 0.228760 -0.268143
C33   C     C_3   0.503939 0.917662 0.309045 -0.287448
C34   C     C_R   0.344760 0.766989 0.605290 0.543502
C35   C     C_R   0.353670 0.798905 0.321108 0.026501
C36   C     C_R   0.269006 0.268256 0.801130 0.007892
C37   C     C_R   0.364548 0.154924 0.758188 0.033437
C38   C     C_R   0.388469 0.178181 0.688185 0.031459
C39   C     C_R   0.191784 0.412848 0.692858 -0.167613
C40   C     C_R   0.176632 0.395316 0.766104 -0.155054
C41   C     C_3   0.518612 0.055333 0.769649 -0.278111
C42   C     C_3   0.543451 0.083088 0.694130 -0.271527
C43   C     C_R   0.311007 0.310741 0.656302 0.007007
C44   C     C_R   0.856022 0.318359 0.827211 0.024047
C45   C     C_R   0.368164 0.348010 0.594881 0.537450
C46   C     C_R   0.887122 0.405310 0.787912 0.032464
C47   C     C_R   0.879060 0.410392 0.714639 0.025786
C48   C     C_R   0.825385 0.225282 0.715677 -0.140874
C49   C     C_R   0.823335 0.228305 0.790810 -0.011923
C50   C     C_3   0.817086 0.561042 0.795665 -0.274113
C51   C     C_3   0.812545 0.567700 0.715567 -0.269608
C52   C     C_R   0.838454 0.326840 0.677521 -0.000908
C53   C     C_R   0.308946 0.826285 0.829129 0.016039
C54   C     C_R   0.200648 0.827978 0.790303 0.034805
C55   C     C_R   0.204826 0.823925 0.715970 0.030692
C56   C     C_R   0.767894 0.374284 0.608804 0.545020
C57   C     C_R   0.423398 0.820221 0.718330 -0.157978
C58   C     C_R   0.423624 0.814060 0.792814 -0.162677
C59   C     C_3   0.164586 0.715476 0.793555 -0.294144
C60   C     C_3   0.164184 0.715214 0.713403 -0.260595
C61   C     C_R   0.316794 0.819176 0.678696 0.017456
C62   C     C_R   0.911867 0.315060 0.111583 0.546570
C63   C     C_R   0.328324 0.296084 0.091784 0.543578
C64   C     C_R   0.310904 0.894449 0.103375 0.537520
C65   C     C_R   0.888021 0.307945 0.903130 0.528217
C66   C     C_R   0.268583 0.252778 0.879780 0.561613
C67   C     C_R   0.845597 0.981737 0.070394 -0.071420
C68   C     C_R   0.277516 0.890258 0.899433 0.539737
C69   C     C_R   0.751369 0.116357 0.044817 -0.065332
C70   C     C_R   0.642113 0.214647 0.087557 -0.059074
Cr1   Cr    Cr6+3 0.601740 0.606840 0.505840 0.983961
Cr2   Cr    Cr6+3 0.291500 0.601560 0.495070 1.013323
Cr3   Cr    Cr6+3 0.606780 0.291630 0.499130 1.002209
Cr4   Cr    Cr6+3 0.062440 0.063060 0.008240 0.977794
Cr5   Cr    Cr6+3 0.062950 0.375000 0.998920 0.996930
Cr6   Cr    Cr6+3 0.374550 0.061770 0.992470 1.005085
H1    H     H_    0.594315 0.221169 0.295359 0.145191
H2    H     H_    0.801203 0.783808 0.439584 0.098860
H3    H     H_    0.855644 0.872572 0.330860 0.097453
H4    H     H_    0.054276 0.710816 0.254431 0.088408
H5    H     H_    0.700361 0.589547 0.306261 0.148319
H6    H     H_    0.745688 0.564313 0.178636 0.129989
H7    H     H_    0.108663 0.099244 0.217920 0.151264
H8    H     H_    0.020729 0.993628 0.209689 0.164766
H9    H     H_    0.973250 0.019135 0.334549 0.146303
H10   H     H_    0.066424 0.119736 0.343623 0.133678
H11   H     H_    0.300625 0.642209 0.291742 0.150829
H12   H     H_    0.903723 0.840592 0.159295 0.094566
H13   H     H_    0.296023 0.681237 0.163278 0.123395
H14   H     H_    0.482454 0.036986 0.211250 0.168894
H15   H     H_    0.607382 0.842271 0.204192 0.135525
H16   H     H_    0.596929 0.823485 0.332110 0.148919
H17   H     H_    0.471732 0.017541 0.337902 0.146455
H18   H     H_    0.121030 0.512371 0.667642 0.118138
H19   H     H_    0.101459 0.484750 0.796357 0.131106
H20   H     H_    0.554711 0.944568 0.776163 0.124887
H21   H     H_    0.559160 0.091133 0.812668 0.165533
H22   H     H_    0.601408 0.139499 0.691189 0.150669
H23   H     H_    0.942893 0.530505 0.470123 0.133128
H24   H     H_    0.882429 0.598680 0.820848 0.134061
H25   H     H_    0.712397 0.605139 0.820412 0.130461
H26   H     H_    0.703820 0.623588 0.695306 0.167208
H27   H     H_    0.880995 0.603415 0.692745 0.122564
H28   H     H_    0.509778 0.805824 0.823721 0.115422
H29   H     H_    0.060054 0.750338 0.816554 0.124731
H30   H     H_    0.930324 0.906457 0.036883 0.109961
H31   H     H_    0.250814 0.615785 0.817017 0.143201
H32   H     H_    0.250242 0.615085 0.691157 0.167172
H33   H     H_    0.058147 0.756116 0.689284 0.127469
H34   H     H_    0.762498 0.144337 0.991686 0.119887
H35   H     H_    0.569889 0.318192 0.066137 0.091391
H36   H     H_    0.128152 0.363759 0.389040 0.090069
H37   H     H_    0.709204 0.008730 0.234606 0.094288
H38   H     H_    0.130449 0.489243 0.176394 0.145407
O1    O     O_R   0.748670 0.497520 0.427970 -0.541316
O2    O     O_R   0.300170 0.471020 0.567120 -0.512934
O3    O     O_R   0.491630 0.259030 0.574940 -0.520857
O4    O     O_R   0.718640 0.304340 0.577850 -0.508532
O5    O     O_3   0.500010 0.500010 0.500020 -0.250088
O6    O     O_R   0.186620 0.923750 0.087000 -0.530828
O7    O     O_R   0.957350 0.194160 0.084660 -0.495951
O8    O     O_R   0.935120 0.407280 0.085350 -0.526275
O9    O     O_R   0.203800 0.365060 0.067090 -0.507062
O10   O     O_R   0.417470 0.174910 0.067830 -0.504855
O11   O     O_R   0.375160 0.946380 0.070880 -0.496048
O12   O     O_R   0.476470 0.723930 0.429450 -0.506063
O13   O     O_R   0.160500 0.919670 0.926690 -0.531101
O14   O     O_R   0.933140 0.190380 0.936050 -0.518811
O15   O     O_R   0.909010 0.403210 0.925030 -0.528806
O16   O     O_R   0.179590 0.361290 0.918480 -0.508886
O17   O     O_R   0.391360 0.170840 0.907510 -0.531053
O18   O     O_R   0.350950 0.942600 0.922260 -0.520656
O19   O     O_3   0.166650 0.166610 0.999880 -0.262348
O20   O     O_R   0.264730 0.744140 0.416740 -0.518467
O21   O     O_R   0.309440 0.472410 0.418220 -0.493272
O22   O     O_R   0.501630 0.260530 0.414310 -0.534912
O23   O     O_R   0.727920 0.305730 0.428950 -0.501203
O24   O     O_R   0.738670 0.496020 0.588600 -0.531478
O25   O     O_R   0.467190 0.722540 0.578350 -0.508796
O26   O     O_R   0.254720 0.742640 0.577370 -0.520497
H39   H     H_    0.582897 0.990038 0.658455 0.131367
H40   H     H_    0.792919 0.160707 0.688006 0.129559
C71   C     C_3   0.745274 0.171462 0.828473 -0.265267
C72   C     C_3   0.830969 0.011947 0.833806 -0.437844
H41   H     H_    0.775256 0.973122 0.866824 0.118518
H42   H     H_    0.849091 0.964227 0.779734 0.140271
H43   H     H_    0.932649 0.979412 0.860413 0.204030
H44   H     H_    0.710484 0.218279 0.882043 0.140486
H45   H     H_    0.646646 0.211077 0.798181 0.131017
H46   H     H_    0.509382 0.819099 0.691358 0.117280

loop_
_geom_bond_atom_site_label_1
_geom_bond_atom_site_label_2
_ccdc_geom_bond_type
C44   C49   A    
C7    C13   A    
C21   C26   A    
Cr3   O5    S    
C63   O9    A    
Cr5   O8    S    
C41   C42   S    
C19   C20   A    
C63   O10   A    
C53   C54   A    
C51   H26   S    
C59   H29   S    
C7    H23   S    
C30   C35   A    
Cr5   O9    S    
C22   H6    S    
C21   C22   A    
C28   C29   A    
C24   H7    S    
C38   C42   S    
C48   C52   A    
C42   H22   S    
C9    H12   S    
C30   C31   A    
Cr6   O17   S    
C36   C66   S    
C32   H15   S    
C20   C25   S    
C51   H27   S    
C71   C72   S    
Cr4   O19   S    
C29   C33   S    
C34   O25   A    
C18   C19   A    
C11   C16   S    
C23   C26   S    
C68   O18   A    
C53   C68   S    
C60   H33   S    
C46   C47   A    
C52   C56   S    
C32   H14   S    
C15   H4    S    
C8    C9    A    
C31   H13   S    
C12   O21   A    
C12   C17   S    
Cr1   O12   S    
C60   H32   S    
Cr5   O16   S    
C49   C71   S    
C59   C60   S    
C55   C60   S    
Cr6   O11   S    
C44   C65   S    
C56   O4    A    
C72   H43   S    
C44   C46   A    
C46   C50   S    
Cr1   O24   S    
C54   C59   S    
C71   H44   S    
Cr4   O14   S    
Cr3   O3    S    
C27   C31   A    
Cr6   O10   S    
C65   O14   A    
C36   C40   A    
C1    O12   A    
C72   H42   S    
C10   H38   S    
C27   C64   S    
C33   H16   S    
C39   C40   A    
C18   C62   S    
Cr2   O21   S    
C39   C43   A    
C6    C16   A    
C34   C61   S    
C59   H31   S    
C67   C69   A    
C9    C67   A    
C39   H18   S    
C37   C38   A    
C47   C51   S    
C65   O15   A    
C56   O24   A    
C69   H34   S    
Cr2   O20   S    
Cr4   O13   S    
Cr3   O22   S    
C28   C32   S    
Cr6   O19   S    
C57   H46   S    
C42   H39   S    
C25   H9    S    
C50   C51   S    
Cr1   O1    S    
C14   H3    S    
C24   C25   S    
C43   C45   S    
C68   O13   A    
C47   C52   A    
C8    H37   S    
C4    C17   A    
C48   C49   A    
C21   H5    S    
C10   C11   A    
C41   H21   S    
C2    C5    S    
C58   H28   S    
Cr2   O26   S    
C1    O20   A    
C62   O8    A    
C48   H40   S    
C1    C35   S    
C66   O17   A    
C45   O3    A    
C29   C35   A    
C54   C55   A    
C36   C37   A    
Cr3   O4    S    
C18   C22   A    
C6    H36   S    
C11   C17   A    
C2    C8    A    
C72   H41   S    
C3    C5    A    
C33   H17   S    
Cr1   O25   S    
C53   C58   A    
Cr5   O19   S    
C67   H30   S    
C57   C61   A    
C6    C7    A    
C3    C63   S    
Cr4   O6    S    
Cr2   O2    S    
C50   H24   S    
C64   O6    A    
Cr1   O5    S    
C32   C33   S    
C19   C24   S    
C24   H8    S    
C38   C43   A    
C20   C26   A    
C3    C10   A    
C2    C70   A    
Cr6   O18   S    
C45   O2    A    
C57   C58   A    
Cr3   O23   S    
C23   O23   A    
C4    C5    A    
C55   C61   A    
Cr2   O5    S    
C34   O26   A    
C25   H10   S    
C37   C41   S    
C69   C70   A    
C70   H35   S    
C13   H2    S    
C23   O1    A    
C41   H20   S    
Cr5   O15   S    
C4    H1    S    
C71   H45   S    
Cr4   O7    S    
C50   H25   S    
C64   O11   A    
C12   O22   A    
C27   C28   A    
C14   C15   A    
C40   H19   S    
C30   H11   S    
C13   C14   A    
C62   O7    A    
C15   C16   A    
C66   O16   A    
