data_mof_unit_60553.cif
_audit_creation_date              2012-12-10T19:20:38-0500
_audit_creation_method            fapswitch 2.2
_symmetry_space_group_name_H-M    P1
_symmetry_Int_Tables_number       1
_space_group_crystal_system       triclinic
_cell_length_a                    38.911886
_cell_length_b                    38.911647
_cell_length_c                    18.211606
_cell_angle_alpha                 90.000556
_cell_angle_beta                  89.998492
_cell_angle_gamma                 90.000505
_cell_volume                      27574.6583423

loop_
_atom_site_label
_atom_site_type_symbol
_atom_type_description
_atom_site_fract_x
_atom_site_fract_y
_atom_site_fract_z
_atom_type_partial_charge
C1    C     C_R   0.566925 0.000000 0.500000 0.888384
C2    C     C_R   0.999999 0.713202 0.499990 0.111397
C3    C     C_R   0.986286 0.123564 0.439417 0.170120
C4    C     C_R   0.123565 0.986274 0.560560 0.170108
C5    C     C_R   0.986269 0.876435 0.560559 0.170107
C6    C     C_R   0.876437 0.013736 0.560565 0.170116
C7    C     C_R   0.013716 0.123567 0.560572 0.170111
C8    C     C_R   0.376433 0.486380 0.939327 0.170129
C9    C     C_R   0.513758 0.376436 0.939469 0.170069
C10   C     C_R   0.623567 0.513699 0.939408 0.170129
C11   C     C_R   0.486240 0.623558 0.939457 0.170132
C12   C     C_R   0.623564 0.486299 0.060596 0.170137
C13   C     C_R   0.286798 0.999995 0.499981 0.111393
C14   C     C_R   0.486234 0.376439 0.060529 0.170095
C15   C     C_R   0.376427 0.513674 0.060622 0.170159
C16   C     C_R   0.513743 0.623566 0.060537 0.170097
C17   C     C_R   0.840605 0.986963 0.439711 -0.244144
C18   C     C_R   0.013038 0.840606 0.439694 -0.244150
C19   C     C_R   0.159394 0.013030 0.439682 -0.244148
C20   C     C_R   0.986984 0.159393 0.439672 -0.244149
C21   C     C_R   0.159395 0.986968 0.560296 -0.244144
C22   C     C_R   0.986963 0.840605 0.560297 -0.244149
C23   C     C_R   0.840607 0.013040 0.560311 -0.244151
C24   C     C_R   0.000007 0.286798 0.499970 0.111378
C25   C     C_R   0.013021 0.159397 0.560309 -0.244141
C26   C     C_R   0.340605 0.487077 0.939574 -0.244035
C27   C     C_R   0.513064 0.340606 0.939731 -0.244134
C28   C     C_R   0.659397 0.513000 0.939668 -0.244146
C29   C     C_R   0.486941 0.659388 0.939699 -0.244143
C30   C     C_R   0.659393 0.486998 0.060340 -0.244154
C31   C     C_R   0.486932 0.340609 0.060278 -0.244147
C32   C     C_R   0.340597 0.512980 0.060346 -0.244122
C33   C     C_R   0.513045 0.659396 0.060271 -0.244140
C34   C     C_R   0.822646 0.000000 0.500015 0.089550
C35   C     C_R   0.213199 0.500019 0.999947 0.111371
C36   C     C_R   1.000000 0.822646 0.499994 0.089549
C37   C     C_R   0.177354 0.999997 0.499985 0.089560
C38   C     C_R   0.000002 0.177354 0.499988 0.089556
C39   C     C_R   0.322642 0.500027 0.999956 0.089530
C40   C     C_R   0.499999 0.322648 0.000008 0.089559
C41   C     C_R   0.677355 0.499999 0.000006 0.089579
C42   C     C_R   0.499996 0.677352 0.999978 0.089586
C43   C     C_R   0.894743 0.000002 0.500003 -0.120555
C44   C     C_R   0.000001 0.894743 0.499999 -0.120553
C45   C     C_R   0.105257 0.000001 0.499997 -0.120568
C46   C     C_R   0.500002 0.213202 0.000012 0.111394
C47   C     C_R   1.000000 0.105257 0.499998 -0.120594
C48   C     C_R   0.394739 0.500017 0.999988 -0.120877
C49   C     C_R   0.499997 0.394745 0.999999 -0.120503
C50   C     C_R   0.605257 0.499999 0.000000 -0.120613
C51   C     C_R   0.499994 0.605255 0.999999 -0.120521
C52   C     C_R   0.767004 0.029036 0.524206 -0.253603
C53   C     C_R   0.970961 0.767003 0.524171 -0.253607
C54   C     C_R   0.232996 0.970964 0.524198 -0.253608
C55   C     C_R   0.029032 0.232997 0.524214 -0.253597
C56   C     C_R   0.232997 0.029027 0.475761 -0.253604
C57   C     C_R   0.786800 0.500005 0.000023 0.111374
C58   C     C_R   0.029038 0.767004 0.475812 -0.253612
C59   C     C_R   0.767004 0.970961 0.475839 -0.253609
C60   C     C_R   0.970977 0.232997 0.475739 -0.253603
C61   C     C_R   0.266997 0.529024 0.024333 -0.253612
C62   C     C_R   0.470955 0.267004 0.024154 -0.253601
C63   C     C_R   0.732999 0.470990 0.024338 -0.253605
C64   C     C_R   0.529028 0.732997 0.024196 -0.253597
C65   C     C_R   0.732998 0.529014 0.975694 -0.253598
C66   C     C_R   0.529046 0.267005 0.975873 -0.253605
C67   C     C_R   0.267003 0.471024 0.975553 -0.253605
C68   C     C_R   0.500002 0.786799 0.999962 0.111357
C69   C     C_R   0.470972 0.732998 0.975729 -0.253581
C70   C     C_R   0.731177 0.029405 0.523918 0.221721
C71   C     C_R   0.970592 0.731177 0.523882 0.221725
C72   C     C_R   0.268822 0.970596 0.523912 0.221721
C73   C     C_R   0.029402 0.268823 0.523923 0.221717
C74   C     C_R   0.268824 0.029394 0.476047 0.221718
C75   C     C_R   0.029406 0.731177 0.476099 0.221727
C76   C     C_R   0.731178 0.970592 0.476128 0.221725
C77   C     C_R   0.970611 0.268823 0.476019 0.221715
C78   C     C_R   0.231171 0.529390 0.024050 0.221732
C79   C     C_R   0.784983 0.999999 0.500021 0.082570
C80   C     C_R   0.470588 0.231177 0.023866 0.221722
C81   C     C_R   0.768825 0.470624 0.024064 0.221716
C82   C     C_R   0.529397 0.768824 0.023914 0.221722
C83   C     C_R   0.768825 0.529384 0.975980 0.221720
C84   C     C_R   0.529416 0.231179 0.976159 0.221724
C85   C     C_R   0.231177 0.470652 0.975838 0.221726
C86   C     C_R   0.470606 0.768825 0.976006 0.221712
C87   C     C_3   0.903952 0.936095 0.388597 -0.738945
C88   C     C_3   0.063910 0.903960 0.388607 -0.738935
C89   C     C_3   0.096046 0.063905 0.388598 -0.738921
C90   C     C_R   0.999999 0.784983 0.499992 0.082569
C91   C     C_3   0.936122 0.096052 0.388514 -0.738911
C92   C     C_3   0.096047 0.936104 0.611428 -0.738929
C93   C     C_3   0.936094 0.903954 0.611404 -0.738944
C94   C     C_3   0.903962 0.063915 0.611377 -0.738928
C95   C     C_3   0.063881 0.096053 0.611467 -0.738914
C96   C     C_3   0.403848 0.436248 0.888043 -0.738631
C97   C     C_3   0.563952 0.403966 0.888731 -0.738994
C98   C     C_3   0.596061 0.563857 0.888462 -0.738893
C99   C     C_3   0.436039 0.596024 0.888767 -0.738954
C100  C     C_3   0.596051 0.436146 0.111552 -0.738895
C101  C     C_R   0.215017 0.999996 0.499980 0.082578
C102  C     C_3   0.436034 0.403982 0.111202 -0.738933
C103  C     C_3   0.403935 0.563798 0.111726 -0.738800
C104  C     C_3   0.563933 0.596040 0.111298 -0.738961
C105  C     C_3   0.703198 0.082766 0.492782 -0.741853
C106  C     C_3   0.917235 0.703189 0.492738 -0.741831
C107  C     C_3   0.296807 0.917227 0.492853 -0.741848
C108  C     C_3   0.082778 0.296799 0.492894 -0.741871
C109  C     C_3   0.296805 0.082765 0.507110 -0.741863
C110  C     C_3   0.082761 0.703188 0.507247 -0.741823
C111  C     C_3   0.703188 0.917235 0.507263 -0.741838
C112  C     C_R   0.000000 0.566925 0.500000 0.888406
C113  C     C_R   0.000004 0.215017 0.499981 0.082575
C114  C     C_3   0.917234 0.296801 0.507039 -0.741861
C115  C     C_3   0.203182 0.582796 0.993303 -0.741854
C116  C     C_3   0.417240 0.203189 0.992657 -0.741833
C117  C     C_3   0.796804 0.417226 0.993216 -0.741859
C118  C     C_3   0.582776 0.796804 0.992903 -0.741831
C119  C     C_3   0.796800 0.582784 0.006833 -0.741872
C120  C     C_3   0.582765 0.203196 0.007367 -0.741840
C121  C     C_3   0.203202 0.417237 0.006587 -0.741848
C122  C     C_3   0.417219 0.796789 0.007008 -0.741850
C123  C     C_3   0.596369 0.974079 0.328954 -0.710753
C124  C     C_R   0.284979 0.500026 0.999946 0.082556
C125  C     C_3   0.025932 0.596361 0.328945 -0.710715
C126  C     C_3   0.403646 0.025865 0.328913 -0.710828
C127  C     C_3   0.974170 0.403649 0.328898 -0.710809
C128  C     C_3   0.403635 0.974138 0.671079 -0.710799
C129  C     C_3   0.974069 0.596364 0.671048 -0.710726
C130  C     C_3   0.596357 0.025925 0.671058 -0.710783
C131  C     C_3   0.025833 0.403637 0.671094 -0.710793
C132  C     C_3   0.096342 0.474334 0.828783 -0.710932
C133  C     C_3   0.525972 0.096367 0.828975 -0.710738
C134  C     C_3   0.903646 0.525721 0.828833 -0.710914
C135  C     C_R   0.500001 0.284984 0.000013 0.082576
C136  C     C_3   0.474198 0.903657 0.828864 -0.710834
C137  C     C_3   0.903651 0.474288 0.171176 -0.710907
C138  C     C_3   0.474031 0.096361 0.171029 -0.710731
C139  C     C_3   0.096359 0.525665 0.171203 -0.710946
C140  C     C_3   0.525806 0.903638 0.171113 -0.710852
C141  C     C_R   0.715019 0.500001 0.000012 0.082589
C142  C     C_R   0.499999 0.715017 0.999966 0.082594
C143  C     C_R   0.657804 0.003161 0.433101 0.153695
C144  C     C_R   0.996842 0.657799 0.433079 0.153691
C145  C     C_R   0.342201 0.996812 0.433079 0.153684
C146  C     C_R   0.003202 0.342201 0.433076 0.153697
C147  C     C_R   0.342196 0.003181 0.566895 0.153688
C148  C     C_R   0.433075 1.000000 0.499999 0.888391
C149  C     C_R   0.003157 0.657802 0.566908 0.153685
C150  C     C_R   0.657798 0.996839 0.566928 0.153680
C151  C     C_R   0.996808 0.342195 0.566887 0.153686
C152  C     C_R   0.157795 0.503277 0.933077 0.153708
C153  C     C_R   0.496862 0.157802 0.933089 0.153680
C154  C     C_R   0.842198 0.496761 0.933118 0.153690
C155  C     C_R   0.503204 0.842203 0.933071 0.153671
C156  C     C_R   0.842201 0.503249 0.066909 0.153697
C157  C     C_R   0.503142 0.157801 0.066925 0.153688
C158  C     C_R   0.157804 0.496742 0.066858 0.153701
C159  C     C_R   1.000000 0.433075 0.500000 0.888398
C160  C     C_R   0.496796 0.842195 0.066880 0.153701
C161  C     C_R   0.621889 0.002927 0.432923 0.128228
C162  C     C_R   0.997078 0.621884 0.432908 0.128230
C163  C     C_R   0.378116 0.997048 0.432910 0.128240
C164  C     C_R   0.002967 0.378116 0.432911 0.128238
C165  C     C_R   0.378111 0.002950 0.567073 0.128228
C166  C     C_R   0.002923 0.621887 0.567084 0.128222
C167  C     C_R   0.621883 0.997074 0.567096 0.128242
C168  C     C_R   0.997038 0.378110 0.567067 0.128229
C169  C     C_R   0.121880 0.503038 0.932915 0.128227
C170  C     C_R   0.066924 0.500000 1.000000 0.888437
C171  C     C_R   0.497095 0.121887 0.932913 0.128234
C172  C     C_R   0.878112 0.496991 0.932938 0.128229
C173  C     C_R   0.502973 0.878118 0.932907 0.128236
C174  C     C_R   0.878116 0.503015 0.067076 0.128235
C175  C     C_R   0.502907 0.121885 0.067095 0.128234
C176  C     C_R   0.121890 0.496971 0.067046 0.128221
C177  C     C_R   0.497027 0.878111 0.067064 0.128229
C178  C     C_R   0.604108 0.000000 0.500006 -0.210726
C179  C     C_R   0.000000 0.604108 0.499997 -0.210732
C180  C     C_R   0.395891 0.999999 0.499994 -0.210718
C181  C     C_R   0.500000 0.066925 0.000000 0.888379
C182  C     C_R   0.000000 0.395891 0.499993 -0.210723
C183  C     C_R   0.104107 0.500002 0.999987 -0.210717
C184  C     C_R   0.500001 0.104108 0.000003 -0.210727
C185  C     C_R   0.895892 0.500001 0.000004 -0.210713
C186  C     C_R   0.500000 0.895892 0.999990 -0.210717
C187  C     C_R   0.675633 0.999999 0.500017 -0.062326
C188  C     C_R   0.999999 0.675633 0.499993 -0.062344
C189  C     C_R   0.324366 0.999996 0.499985 -0.062313
C190  C     C_R   0.000006 0.324366 0.499978 -0.062293
C191  C     C_R   0.175631 0.500013 0.999961 -0.062338
C192  C     C_R   0.933075 0.500000 0.999999 0.888412
C193  C     C_R   0.500002 0.175634 0.000009 -0.062325
C194  C     C_R   0.824368 0.500005 0.000017 -0.062297
C195  C     C_R   0.500001 0.824367 0.999971 -0.062276
C196  C     C_R   0.000000 0.932510 0.500000 0.879998
C197  C     C_R   0.067490 0.000000 0.499999 0.879992
C198  C     C_R   1.000000 0.067490 0.500000 0.879980
C199  C     C_R   0.932510 0.000001 0.500001 0.880004
C200  C     C_R   0.499999 0.432511 0.999999 0.880251
C201  C     C_R   0.567490 0.500000 1.000000 0.879928
C202  C     C_R   0.499998 0.567489 0.000000 0.880044
C203  C     C_R   0.500000 0.933075 1.000000 0.888414
C204  C     C_R   0.432509 0.500003 0.999999 0.880002
C205  C     C_R   0.500000 0.000000 0.641018 0.918820
C206  C     C_R   1.000000 0.500000 0.641018 0.918843
C207  C     C_R   0.500000 1.000000 0.358982 0.918816
C208  C     C_R   0.000000 0.500000 0.358982 0.918845
C209  C     C_R   0.000000 0.500000 0.141018 0.918868
C210  C     C_R   0.500000 0.000000 0.141018 0.918813
C211  C     C_R   1.000000 0.500000 0.858982 0.918858
C212  C     C_R   0.500000 0.000000 0.858982 0.918816
C213  C     C_1   0.500001 0.000000 0.717559 -0.197688
C214  C     C_R   0.713202 0.999998 0.500022 0.111394
C215  C     C_1   0.999999 0.500000 0.717559 -0.197760
C216  C     C_1   0.499999 1.000000 0.282441 -0.197680
C217  C     C_1   0.000001 0.500000 0.282441 -0.197768
C218  C     C_1   0.000001 0.500000 0.217559 -0.197716
C219  C     C_1   0.499999 1.000000 0.217559 -0.197676
C220  C     C_1   0.999999 0.500000 0.782441 -0.197711
C221  C     C_1   0.500001 0.000001 0.782441 -0.197684
C222  C     C_R   0.876435 0.986270 0.439446 0.170103
C223  C     C_R   0.013734 0.876436 0.439437 0.170113
C224  C     C_R   0.123564 0.013728 0.439430 0.170120
H1    H     H_    0.826735 0.977030 0.392671 0.145296
H2    H     H_    0.523018 0.326737 0.892710 0.145288
H3    H     H_    0.726243 0.092986 0.464067 0.239210
H4    H     H_    0.928710 0.725707 0.592411 0.235377
H5    H     H_    0.895437 0.688905 0.517567 0.239719
H6    H     H_    0.929966 0.686025 0.452489 0.266602
H7    H     H_    0.907017 0.726229 0.464005 0.239216
H8    H     H_    0.274291 0.928740 0.592509 0.235380
H9    H     H_    0.311090 0.895437 0.517716 0.239722
H10   H     H_    0.313971 0.929943 0.452582 0.266608
H11   H     H_    0.273765 0.907000 0.464138 0.239217
H12   H     H_    0.071244 0.274298 0.592553 0.235384
H13   H     H_    0.673266 0.522904 0.892599 0.145267
H14   H     H_    0.104560 0.311092 0.517766 0.239731
H15   H     H_    0.070070 0.313951 0.452592 0.266625
H16   H     H_    0.093015 0.273752 0.464217 0.239209
H17   H     H_    0.274298 0.071248 0.407448 0.235383
H18   H     H_    0.311093 0.104552 0.482249 0.239730
H19   H     H_    0.313961 0.070049 0.547392 0.266610
H20   H     H_    0.273760 0.092995 0.535809 0.239212
H21   H     H_    0.071290 0.725709 0.407575 0.235373
H22   H     H_    0.104563 0.688909 0.482417 0.239712
H23   H     H_    0.070030 0.686019 0.547484 0.266596
H24   H     H_    0.476998 0.673252 0.892661 0.145240
H25   H     H_    0.092975 0.726227 0.535994 0.239223
H26   H     H_    0.725710 0.928712 0.407594 0.235377
H27   H     H_    0.688905 0.895437 0.482430 0.239722
H28   H     H_    0.686022 0.929966 0.547509 0.266602
H29   H     H_    0.726227 0.907017 0.536001 0.239219
H30   H     H_    0.928772 0.274298 0.407382 0.235383
H31   H     H_    0.895453 0.311091 0.482161 0.239727
H32   H     H_    0.929941 0.313956 0.547338 0.266615
H33   H     H_    0.906998 0.273755 0.535720 0.239211
H34   H     H_    0.225695 0.571157 0.092894 0.235381
H35   H     H_    0.673259 0.477095 0.107414 0.145260
H36   H     H_    0.188894 0.604552 0.018292 0.239718
H37   H     H_    0.186023 0.570130 0.952954 0.266602
H38   H     H_    0.226223 0.593065 0.964651 0.239204
H39   H     H_    0.428689 0.225706 0.092345 0.235379
H40   H     H_    0.395435 0.188905 0.017459 0.239723
H41   H     H_    0.429982 0.186026 0.952423 0.266601
H42   H     H_    0.407029 0.226230 0.963913 0.239217
H43   H     H_    0.774300 0.428832 0.092835 0.235383
H44   H     H_    0.811092 0.395460 0.018164 0.239723
H45   H     H_    0.813961 0.429905 0.952878 0.266610
H46   H     H_    0.476976 0.326742 0.107301 0.145276
H47   H     H_    0.773759 0.406970 0.964562 0.239206
H48   H     H_    0.571237 0.774296 0.092553 0.235378
H49   H     H_    0.604560 0.811089 0.017785 0.239718
H50   H     H_    0.570071 0.813964 0.952612 0.266613
H51   H     H_    0.593011 0.773760 0.964206 0.239207
H52   H     H_    0.774300 0.571177 0.907212 0.235387
H53   H     H_    0.811091 0.604548 0.981887 0.239730
H54   H     H_    0.813953 0.570105 0.047174 0.266620
H55   H     H_    0.773753 0.593040 0.035480 0.239205
H56   H     H_    0.571314 0.225709 0.907678 0.235380
H57   H     H_    0.326726 0.522850 0.107446 0.145276
H58   H     H_    0.604570 0.188911 0.982565 0.239724
H59   H     H_    0.570025 0.186033 0.047605 0.266605
H60   H     H_    0.592975 0.226238 0.036108 0.239213
H61   H     H_    0.225707 0.428885 0.906990 0.235378
H62   H     H_    0.188916 0.395480 0.981599 0.239715
H63   H     H_    0.186042 0.429898 0.046945 0.266597
H64   H     H_    0.226247 0.406972 0.035228 0.239206
H65   H     H_    0.428778 0.774307 0.907340 0.235392
H66   H     H_    0.395441 0.811084 0.982128 0.239729
H67   H     H_    0.429917 0.813934 0.047340 0.266624
H68   H     H_    0.522987 0.673265 0.107303 0.145258
H69   H     H_    0.406976 0.773736 0.035656 0.239188
H70   H     H_    0.582828 0.022384 0.367239 0.233412
H71   H     H_    0.584558 0.979232 0.274546 0.239462
H72   H     H_    0.578069 0.958680 0.362247 0.235557
H73   H     H_    0.620311 0.959066 0.320312 0.265677
H74   H     H_    0.977628 0.582816 0.367226 0.233406
H75   H     H_    0.041335 0.578070 0.362248 0.235562
H76   H     H_    0.040940 0.620307 0.320289 0.265674
H77   H     H_    0.020783 0.584541 0.274543 0.239458
H78   H     H_    0.417184 0.977571 0.367264 0.233447
H79   H     H_    0.780802 0.051738 0.542058 0.142967
H80   H     H_    0.415462 0.020697 0.274516 0.239471
H81   H     H_    0.421943 0.041274 0.362192 0.235536
H82   H     H_    0.379704 0.040876 0.320244 0.265688
H83   H     H_    0.022458 0.417184 0.367289 0.233473
H84   H     H_    0.958753 0.421938 0.362177 0.235526
H85   H     H_    0.959164 0.379706 0.320198 0.265686
H86   H     H_    0.979349 0.415473 0.274514 0.239487
H87   H     H_    0.417171 0.022433 0.632726 0.233451
H88   H     H_    0.421935 0.958730 0.637806 0.235532
H89   H     H_    0.379694 0.959126 0.679744 0.265685
H90   H     H_    0.948259 0.780802 0.542022 0.142966
H91   H     H_    0.415447 0.979309 0.725478 0.239480
H92   H     H_    0.022375 0.582823 0.632771 0.233406
H93   H     H_    0.979219 0.584552 0.725456 0.239461
H94   H     H_    0.958671 0.578066 0.637751 0.235561
H95   H     H_    0.959057 0.620308 0.679689 0.265672
H96   H     H_    0.582812 0.977622 0.632769 0.233410
H97   H     H_    0.578066 0.041328 0.637757 0.235562
H98   H     H_    0.620302 0.040933 0.679713 0.265684
H99   H     H_    0.584538 0.020774 0.725460 0.239450
H100  H     H_    0.977544 0.417171 0.632706 0.233466
H101  H     H_    0.219197 0.948268 0.542079 0.142960
H102  H     H_    0.020652 0.415450 0.725488 0.239494
H103  H     H_    0.041246 0.421937 0.637831 0.235515
H104  H     H_    0.040844 0.379696 0.679771 0.265683
H105  H     H_    0.082816 0.522592 0.867365 0.233589
H106  H     H_    0.084526 0.479561 0.774412 0.239534
H107  H     H_    0.078044 0.458895 0.861995 0.235441
H108  H     H_    0.120281 0.459328 0.820037 0.265700
H109  H     H_    0.477659 0.082820 0.867209 0.233377
H110  H     H_    0.541366 0.078073 0.862288 0.235582
H111  H     H_    0.540983 0.120312 0.820343 0.265678
H112  H     H_    0.022971 0.826738 0.392651 0.145293
H113  H     H_    0.051726 0.219199 0.542112 0.142962
H114  H     H_    0.520834 0.084551 0.774564 0.239437
H115  H     H_    0.917170 0.477452 0.867348 0.233543
H116  H     H_    0.915458 0.520507 0.774451 0.239515
H117  H     H_    0.921949 0.541150 0.862055 0.235463
H118  H     H_    0.879708 0.540732 0.820117 0.265701
H119  H     H_    0.522482 0.917181 0.867293 0.233495
H120  H     H_    0.458780 0.921953 0.862127 0.235512
H121  H     H_    0.459187 0.879718 0.820158 0.265694
H122  H     H_    0.479389 0.915477 0.774479 0.239485
H123  H     H_    0.917177 0.522555 0.132647 0.233556
H124  H     H_    0.219200 0.051724 0.457882 0.142962
H125  H     H_    0.921946 0.458855 0.137945 0.235468
H126  H     H_    0.879711 0.459282 0.179911 0.265702
H127  H     H_    0.915470 0.479503 0.225548 0.239521
H128  H     H_    0.522344 0.082818 0.132794 0.233381
H129  H     H_    0.479169 0.084547 0.225441 0.239443
H130  H     H_    0.458638 0.078064 0.137716 0.235583
H131  H     H_    0.459018 0.120305 0.179659 0.265674
H132  H     H_    0.082838 0.477406 0.132620 0.233583
H133  H     H_    0.078052 0.541101 0.138009 0.235430
H134  H     H_    0.120296 0.540675 0.179935 0.265707
H135  H     H_    0.051740 0.780803 0.457962 0.142967
H136  H     H_    0.084551 0.520432 0.225582 0.239530
H137  H     H_    0.477521 0.917167 0.132702 0.233487
H138  H     H_    0.520618 0.915447 0.225510 0.239490
H139  H     H_    0.541220 0.921942 0.137863 0.235506
H140  H     H_    0.540820 0.879699 0.179792 0.265692
H141  H     H_    0.780803 0.948260 0.457984 0.142964
H142  H     H_    0.948283 0.219199 0.457845 0.142965
H143  H     H_    0.280794 0.551699 0.042346 0.142959
H144  H     H_    0.448248 0.280801 0.041973 0.142964
H145  H     H_    0.719202 0.448305 0.042296 0.142954
H146  H     H_    0.551723 0.719200 0.042086 0.142948
H147  H     H_    0.719201 0.551697 0.957732 0.142952
H148  H     H_    0.173261 0.022957 0.392633 0.145279
H149  H     H_    0.551754 0.280804 0.958053 0.142962
H150  H     H_    0.280803 0.448352 0.957539 0.142966
H151  H     H_    0.448275 0.719202 0.957841 0.142955
H152  H     H_    0.881087 0.975046 0.328877 0.223755
H153  H     H_    0.880945 0.919557 0.396382 0.225244
H154  H     H_    0.921113 0.933627 0.436937 0.229950
H155  H     H_    0.918260 0.927045 0.339517 0.239145
H156  H     H_    0.024966 0.881089 0.328872 0.223752
H157  H     H_    0.080449 0.880955 0.396400 0.225243
H158  H     H_    0.066372 0.921121 0.436948 0.229944
H159  H     H_    0.977067 0.173260 0.392613 0.145284
H160  H     H_    0.072962 0.918268 0.339530 0.239143
H161  H     H_    0.118908 0.024955 0.328863 0.223747
H162  H     H_    0.119054 0.080442 0.396370 0.225239
H163  H     H_    0.078891 0.066373 0.436950 0.229939
H164  H     H_    0.081732 0.072954 0.339527 0.239143
H165  H     H_    0.975096 0.118905 0.328835 0.223743
H166  H     H_    0.919586 0.119063 0.396251 0.225233
H167  H     H_    0.933634 0.078902 0.436868 0.229959
H168  H     H_    0.927087 0.081735 0.339434 0.239139
H169  H     H_    0.118913 0.975061 0.671134 0.223750
H170  H     H_    0.173263 0.977041 0.607342 0.145286
H171  H     H_    0.119054 0.919566 0.603653 0.225240
H172  H     H_    0.078888 0.933631 0.563087 0.229954
H173  H     H_    0.081737 0.927060 0.660510 0.239142
H174  H     H_    0.975043 0.881087 0.671127 0.223754
H175  H     H_    0.919556 0.880948 0.603611 0.225244
H176  H     H_    0.933628 0.921118 0.563068 0.229952
H177  H     H_    0.927043 0.918260 0.660486 0.239142
H178  H     H_    0.881091 0.024975 0.671127 0.223750
H179  H     H_    0.880957 0.080454 0.603588 0.225242
H180  H     H_    0.921121 0.066374 0.563031 0.229935
H181  H     H_    0.977030 0.826736 0.607338 0.145297
H182  H     H_    0.918273 0.072969 0.660448 0.239146
H183  H     H_    0.024913 0.118914 0.671152 0.223746
H184  H     H_    0.080418 0.119063 0.603707 0.225236
H185  H     H_    0.066362 0.078896 0.563123 0.229963
H186  H     H_    0.072919 0.081743 0.660552 0.239137
H187  H     H_    0.381148 0.475405 0.828651 0.223699
H188  H     H_    0.380774 0.419733 0.895130 0.225149
H189  H     H_    0.420800 0.433581 0.936684 0.229800
H190  H     H_    0.418337 0.427334 0.839092 0.239222
H191  H     H_    0.525037 0.381086 0.828925 0.223758
H192  H     H_    0.826739 0.022973 0.607355 0.145288
H193  H     H_    0.580491 0.380964 0.896558 0.225263
H194  H     H_    0.566391 0.421129 0.937074 0.229912
H195  H     H_    0.573022 0.418274 0.839669 0.239158
H196  H     H_    0.618914 0.524872 0.828814 0.223734
H197  H     H_    0.619073 0.580393 0.896203 0.225232
H198  H     H_    0.578905 0.566353 0.936806 0.229981
H199  H     H_    0.581752 0.572887 0.839369 0.239123
H200  H     H_    0.474946 0.618896 0.828919 0.223741
H201  H     H_    0.419498 0.619029 0.896559 0.225246
H202  H     H_    0.433602 0.578881 0.937144 0.229878
H203  H     H_    0.022939 0.173266 0.607363 0.145287
H204  H     H_    0.426967 0.581696 0.839734 0.239143
H205  H     H_    0.618908 0.475130 0.171191 0.223733
H206  H     H_    0.619060 0.419607 0.103808 0.225228
H207  H     H_    0.578893 0.433650 0.063214 0.229980
H208  H     H_    0.581742 0.427119 0.160650 0.239124
H209  H     H_    0.474925 0.381093 0.171061 0.223753
H210  H     H_    0.419489 0.380984 0.103370 0.225241
H211  H     H_    0.433612 0.421140 0.062844 0.229852
H212  H     H_    0.426956 0.418300 0.160245 0.239163
H213  H     H_    0.381075 0.524777 0.171252 0.223714
H214  H     H_    0.326742 0.477216 0.892455 0.145299
H215  H     H_    0.380925 0.580341 0.104044 0.225207
H216  H     H_    0.421088 0.566325 0.063383 0.230014
H217  H     H_    0.418248 0.572793 0.160843 0.239105
H218  H     H_    0.525011 0.618919 0.171087 0.223753
H219  H     H_    0.580471 0.619043 0.103453 0.225250
H220  H     H_    0.566376 0.578868 0.062971 0.229942
H221  H     H_    0.573001 0.581742 0.160373 0.239141
H222  H     H_    0.725704 0.071280 0.592461 0.235383
H223  H     H_    0.688911 0.104561 0.517612 0.239728
H224  H     H_    0.686040 0.070038 0.452518 0.266606
I1    I     I_    0.684657 0.010430 0.331750 -0.374220
I2    I     I_    0.489623 0.184652 0.831726 -0.374226
I3    I     I_    0.815347 0.489376 0.831808 -0.374202
I4    I     I_    0.510531 0.815360 0.831725 -0.374230
I5    I     I_    0.815356 0.510637 0.168229 -0.374209
I6    I     I_    0.510382 0.184647 0.168293 -0.374220
I7    I     I_    0.184659 0.489321 0.168155 -0.374192
I8    I     I_    0.489470 0.815341 0.168212 -0.374209
I9    I     I_    0.989577 0.684645 0.331720 -0.374198
I10   I     I_    0.315358 0.989510 0.331732 -0.374208
I11   I     I_    0.010521 0.315358 0.331732 -0.374208
I12   I     I_    0.315344 0.010482 0.668236 -0.374220
I13   I     I_    0.010422 0.684652 0.668264 -0.374194
I14   I     I_    0.684641 0.989569 0.668287 -0.374218
I15   I     I_    0.989492 0.315343 0.668219 -0.374211
I16   I     I_    0.184634 0.510706 0.831759 -0.374202
N1    N     N_2   0.893717 0.971503 0.378121 -0.282268
N2    N     N_2   0.528552 0.393720 0.878175 -0.282301
N3    N     N_2   0.606287 0.528442 0.878056 -0.282255
N4    N     N_2   0.471438 0.606269 0.878181 -0.282271
N5    N     N_2   0.606281 0.471561 0.121951 -0.282248
N6    N     N_2   0.471427 0.393726 0.121805 -0.282279
N7    N     N_2   0.393705 0.528376 0.122024 -0.282250
N8    N     N_2   0.528531 0.606285 0.121839 -0.282275
N9    N     N_2   0.713338 0.058977 0.549787 -0.298972
N10   N     N_2   0.941018 0.713338 0.549747 -0.298973
N11   N     N_2   0.286660 0.941032 0.549824 -0.298976
N12   N     N_2   0.028504 0.893720 0.378118 -0.282265
N13   N     N_2   0.058962 0.286663 0.549851 -0.298984
N14   N     N_2   0.286664 0.058958 0.450138 -0.298975
N15   N     N_2   0.058980 0.713339 0.450236 -0.298973
N16   N     N_2   0.713340 0.941020 0.450258 -0.298974
N17   N     N_2   0.941053 0.286663 0.450086 -0.298981
N18   N     N_2   0.213330 0.558919 0.050134 -0.298969
N19   N     N_2   0.441008 0.213338 0.049695 -0.298973
N20   N     N_2   0.786664 0.441084 0.050091 -0.298978
N21   N     N_2   0.558956 0.786662 0.049851 -0.298978
N22   N     N_2   0.786664 0.558926 0.949955 -0.298978
N23   N     N_2   0.106280 0.028497 0.378112 -0.282264
N24   N     N_2   0.558996 0.213341 0.950330 -0.298972
N25   N     N_2   0.213341 0.441118 0.949756 -0.298968
N26   N     N_2   0.441049 0.786665 0.950067 -0.298978
N27   N     N_2   0.603877 0.006319 0.365136 -0.278380
N28   N     N_2   0.993691 0.603867 0.365124 -0.278381
N29   N     N_2   0.396135 0.993636 0.365134 -0.278374
N30   N     N_2   0.006392 0.396135 0.365140 -0.278383
N31   N     N_2   0.396124 0.006365 0.634853 -0.278383
N32   N     N_2   0.006310 0.603873 0.634871 -0.278377
N33   N     N_2   0.603864 0.993684 0.634877 -0.278370
N34   N     N_2   0.971535 0.106279 0.378080 -0.282259
N35   N     N_2   0.993611 0.396124 0.634845 -0.278385
N36   N     N_2   0.103861 0.506524 0.865157 -0.278382
N37   N     N_2   0.493723 0.103872 0.865123 -0.278373
N38   N     N_2   0.896126 0.493522 0.865168 -0.278380
N39   N     N_2   0.506412 0.896137 0.865137 -0.278385
N40   N     N_2   0.896132 0.506486 0.134838 -0.278386
N41   N     N_2   0.506280 0.103868 0.134882 -0.278376
N42   N     N_2   0.103880 0.493478 0.134816 -0.278379
N43   N     N_2   0.493591 0.896122 0.134844 -0.278382
N44   N     N_2   0.106282 0.971513 0.621891 -0.282265
N45   N     N_2   0.971501 0.893718 0.621883 -0.282265
N46   N     N_2   0.893721 0.028509 0.621878 -0.282266
N47   N     N_2   0.028469 0.106285 0.621910 -0.282263
N48   N     N_2   0.393724 0.471709 0.877911 -0.282256
O1    O     O_R   0.550910 0.028770 0.500030 -0.621341
O2    O     O_R   0.471230 0.050910 0.000030 -0.621339
O3    O     O_R   0.949090 0.471230 0.000030 -0.621364
O4    O     O_R   0.528770 0.949090 0.000030 -0.621356
O5    O     O_R   0.949090 0.528770 0.999970 -0.621365
O6    O     O_R   0.528770 0.050910 0.999970 -0.621339
O7    O     O_R   0.050910 0.471230 0.999970 -0.621371
O8    O     O_R   0.471230 0.949090 0.999970 -0.621353
O9    O     O_R   0.499990 0.028770 0.607330 -0.620134
O10   O     O_R   0.971230 0.499990 0.607330 -0.620169
O11   O     O_R   0.500010 0.971230 0.607330 -0.620167
O12   O     O_R   0.971230 0.550910 0.500030 -0.621343
O13   O     O_R   0.028770 0.500010 0.607330 -0.620172
O14   O     O_R   0.500010 0.028770 0.392670 -0.620132
O15   O     O_R   0.028770 0.499990 0.392670 -0.620182
O16   O     O_R   0.499990 0.971230 0.392670 -0.620171
O17   O     O_R   0.971230 0.500010 0.392670 -0.620161
O18   O     O_R   0.999990 0.528770 0.107330 -0.620148
O19   O     O_R   0.471230 0.999990 0.107330 -0.620160
O20   O     O_R   0.000010 0.471230 0.107330 -0.620165
O21   O     O_R   0.528770 0.000010 0.107330 -0.620141
O22   O     O_R   0.000010 0.528770 0.892670 -0.620154
O23   O     O_R   0.449090 0.971230 0.500030 -0.621351
O24   O     O_R   0.528770 0.999990 0.892670 -0.620149
O25   O     O_R   0.999990 0.471230 0.892670 -0.620166
O26   O     O_R   0.471230 0.000010 0.892670 -0.620152
O27   O     O_R   0.000000 0.949040 0.560460 -0.595033
O28   O     O_R   0.050960 0.000000 0.560460 -0.595033
O29   O     O_R   0.000000 0.050960 0.560460 -0.595018
O30   O     O_R   0.949040 0.000000 0.560460 -0.595028
O31   O     O_R   0.000000 0.949040 0.439540 -0.595028
O32   O     O_R   0.949040 0.000000 0.439540 -0.595035
O33   O     O_R   0.000000 0.050960 0.439540 -0.595018
O34   O     O_R   0.028770 0.449090 0.500030 -0.621352
O35   O     O_R   0.050960 0.000000 0.439540 -0.595023
O36   O     O_R   0.500000 0.449040 0.060460 -0.595073
O37   O     O_R   0.550960 0.500000 0.060460 -0.595012
O38   O     O_R   0.500000 0.550960 0.060460 -0.595083
O39   O     O_R   0.449040 0.500000 0.060460 -0.594994
O40   O     O_R   0.500000 0.449040 0.939540 -0.595037
O41   O     O_R   0.449040 0.500000 0.939540 -0.594927
O42   O     O_R   0.500000 0.550960 0.939540 -0.595050
O43   O     O_R   0.550960 0.500000 0.939540 -0.595013
O44   O     O_R   0.449090 0.028770 0.499970 -0.621349
O45   O     O_R   0.028770 0.550910 0.499970 -0.621344
O46   O     O_R   0.550910 0.971230 0.499970 -0.621345
O47   O     O_R   0.971230 0.449090 0.499970 -0.621353
O48   O     O_R   0.050910 0.528770 0.000030 -0.621369
Zn1   Zn    Zn3+2 0.500000 0.038410 0.500000 0.972691
Zn2   Zn    Zn3+2 0.000000 0.000000 0.419090 0.993988
Zn3   Zn    Zn3+2 0.500000 0.500000 0.080910 0.993976
Zn4   Zn    Zn3+2 0.500000 0.500000 0.919090 0.993945
Zn5   Zn    Zn3+2 0.961590 0.500000 0.500000 0.972622
Zn6   Zn    Zn3+2 0.500000 0.961590 0.500000 0.972643
Zn7   Zn    Zn3+2 0.038410 0.500000 0.500000 0.972602
Zn8   Zn    Zn3+2 0.000000 0.538410 0.000000 0.972703
Zn9   Zn    Zn3+2 0.461590 0.000000 0.000000 0.972660
Zn10  Zn    Zn3+2 0.000000 0.461590 0.000000 0.972674
Zn11  Zn    Zn3+2 0.538410 0.000000 0.000000 0.972676
Zn12  Zn    Zn3+2 0.000000 1.000000 0.580910 0.993989

loop_
_geom_bond_atom_site_label_1
_geom_bond_atom_site_label_2
_ccdc_geom_bond_type
C88   H157  S    
C29   C42   A    
C8    C26   A    
H200  N4    S    
O5    Zn8   S    
C161  N27   S    
C216  C219  T    
C172  N38   S    
C131  H104  S    
C15   C32   A    
C211  C220  S    
C9    C27   A    
C98   H198  S    
H191  N2    S    
C204  O39   A    
C61   C124  A    
C157  C193  A    
C154  I3    S    
C15   C48   A    
C208  O17   A    
C148  O44   A    
C205  O9    A    
C56   C101  A    
C157  I6    S    
C97   H193  S    
O27   Zn12  S    
C164  N30   S    
C138  H131  S    
C181  C184  S    
C139  N42   S    
H100  N35   S    
C92   H172  S    
C103  N7    S    
C208  C217  S    
C199  O30   A    
C115  H37   S    
C152  I16   S    
H218  N8    S    
C57   C83   A    
C47   C198  S    
C148  O23   A    
O47   Zn5   S    
C95   H186  S    
C145  C189  A    
C223  N12   S    
C107  H9    S    
O34   Zn7   S    
C125  N28   S    
C87   H155  S    
C108  N13   S    
C91   H166  S    
C104  H221  S    
C158  I7    S    
C110  H25   S    
C204  O41   A    
C127  H85   S    
C40   C135  S    
C67   C85   A    
H30   N17   S    
C60   H142  S    
C153  I2    S    
C144  I9    S    
C70   C214  A    
C10   N3    S    
C43   C222  A    
H137  N43   S    
C206  O13   A    
O22   Zn8   S    
C97   H195  S    
O33   Zn2   S    
C126  N29   S    
C177  C186  A    
C106  H6    S    
C133  H114  S    
C81   N20   S    
C28   H13   S    
C133  H111  S    
C137  H127  S    
O46   Zn6   S    
C91   H167  S    
H213  N7    S    
C44   C223  A    
H12   N13   S    
C46   C84   A    
C147  I12   S    
C145  I10   S    
C175  N41   S    
C17   C34   A    
O31   Zn2   S    
C2    C71   A    
C53   C71   A    
C198  O33   A    
C131  H102  S    
C14   N6    S    
C185  C192  S    
H183  N47   S    
H152  N1    S    
H161  N23   S    
C192  O5    A    
C119  N22   S    
C45   C224  A    
C19   C224  A    
C205  O11   A    
C167  N33   S    
C66   H149  S    
C7    C25   A    
C119  H53   S    
C138  H129  S    
C117  H45   S    
C93   H177  S    
O38   Zn3   S    
C13   C72   A    
C22   C36   A    
C112  O12   A    
C35   C78   A    
C93   H175  S    
C162  N28   S    
C173  N39   S    
C111  H28   S    
C22   H181  S    
C75   N15   S    
C129  N32   S    
C215  C220  T    
C119  H55   S    
C102  H211  S    
C87   N1    S    
C21   H170  S    
C127  H84   S    
H115  N38   S    
C207  C216  S    
C132  H108  S    
C68   C195  S    
C121  H62   S    
C136  H122  S    
C26   C39   A    
O26   Zn9   S    
C165  N31   S    
C117  H44   S    
C116  N19   S    
C24   C77   A    
C167  C178  A    
C149  C188  A    
C87   H153  S    
C24   C190  S    
H87   N31   S    
C143  C161  A    
C2    C75   A    
C88   N12   S    
O42   Zn4   S    
C130  H98   S    
C110  H23   S    
C111  H29   S    
H156  N12   S    
C200  O40   A    
C54   C101  A    
C96   H190  S    
C122  H66   S    
C91   N34   S    
C14   C31   A    
C208  O15   A    
C123  H71   S    
H26   N16   S    
C31   C40   A    
C77   N17   S    
H174  N45   S    
C123  N27   S    
C33   C42   A    
C109  H18   S    
C62   C80   A    
C106  N10   S    
C116  H42   S    
C58   H135  S    
C25   C38   A    
C1    O46   A    
O14   Zn1   S    
H196  N3    S    
C45   C197  S    
C128  H89   S    
C61   H143  S    
C95   N47   S    
C203  O4    A    
C94   H179  S    
C72   N11   S    
C147  C165  A    
C7    N47   S    
C17   H1    S    
C120  H59   S    
O30   Zn12  S    
C108  H15   S    
C30   C41   A    
C201  O43   A    
C52   C79   A    
C19   C37   A    
C74   N14   S    
O7    Zn10  S    
C51   C202  S    
O18   Zn8   S    
C211  O22   A    
C125  H77   S    
C129  H94   S    
C23   C34   A    
C131  N35   S    
H178  N46   S    
C52   H79   S    
C123  H73   S    
C54   H101  S    
H128  N41   S    
C117  H47   S    
O16   Zn6   S    
C4    C45   A    
O28   Zn12  S    
H21   N15   S    
C197  O28   A    
C154  C172  A    
C62   H144  S    
C126  H81   S    
C18   H112  S    
C209  O18   A    
H70   N27   S    
C125  H76   S    
C132  H107  S    
H96   N33   S    
C145  C163  A    
C109  H20   S    
C217  C218  T    
C146  C164  A    
C210  C219  S    
C121  H64   S    
O15   Zn7   S    
C62   C135  A    
C78   N18   S    
C156  C194  A    
C125  H75   S    
C139  H136  S    
C34   C79   S    
C65   C141  A    
C1    C178  S    
O29   Zn12  S    
C172  C185  A    
C138  N41   S    
O32   Zn2   S    
C31   H46   S    
C174  N40   S    
C160  I8    S    
C76   N16   S    
C89   H164  S    
H61   N25   S    
O36   Zn3   S    
C103  H215  S    
C157  C175  A    
C94   N46   S    
C130  N33   S    
C85   N25   S    
C168  N35   S    
O25   Zn10  S    
C166  N32   S    
C177  N43   S    
C118  H50   S    
C33   H68   S    
C6    N46   S    
C222  N1    S    
C36   C90   S    
O48   Zn8   S    
H123  N40   S    
C35   C191  S    
O6    Zn11  S    
C136  H120  S    
C12   C50   A    
H119  N39   S    
C211  O25   A    
C128  H91   S    
C48   C204  S    
C98   H199  S    
C57   C194  S    
C68   C82   A    
O10   Zn5   S    
C11   C29   A    
C46   C80   A    
C35   C85   A    
C105  H224  S    
C140  N43   S    
H39   N19   S    
C147  C189  A    
O24   Zn11  S    
C110  N15   S    
C3    C47   A    
C29   H24   S    
C186  C203  S    
C181  O6    A    
C1    O1    A    
C99   N4    S    
C105  H3    S    
C114  H33   S    
C159  O34   A    
C97   N2    S    
C89   H162  S    
C55   C73   A    
C76   C214  A    
C153  C193  A    
C115  N18   S    
C88   H160  S    
C70   N9    S    
O20   Zn10  S    
C59   C76   A    
C69   H151  S    
H65   N26   S    
C95   H185  S    
C143  I1    S    
C206  C215  S    
C140  H139  S    
C146  I11   S    
O39   Zn3   S    
C134  H118  S    
C209  O20   A    
C23   H192  S    
C100  H207  S    
C210  O19   A    
C200  O36   A    
C173  C186  A    
O19   Zn9   S    
C114  H31   S    
C134  H117  S    
C156  C174  A    
O23   Zn6   S    
C26   H214  S    
O21   Zn11  S    
C139  H134  S    
C174  C185  A    
C11   N4    S    
C24   C73   A    
C28   C41   A    
C106  H7    S    
C16   N8    S    
C32   C39   A    
C104  H219  S    
C136  H121  S    
C133  H110  S    
C213  C221  T    
C137  H126  S    
C151  C190  A    
H43   N20   S    
C88   H158  S    
C53   H90   S    
C16   C51   A    
H8    N11   S    
H92   N32   S    
C94   H182  S    
C120  H58   S    
C187  C214  S    
C205  C213  S    
C148  C180  S    
C170  O48   A    
C143  C187  A    
C59   H141  S    
C102  N6    S    
C111  N16   S    
C84   N24   S    
C67   H150  S    
C98   H197  S    
C56   C74   A    
C149  C166  A    
C64   H146  S    
C171  C184  A    
C56   H124  S    
C127  N30   S    
C97   H194  S    
C59   C79   A    
C138  H130  S    
C38   C113  S    
C12   N5    S    
C95   H184  S    
C92   H171  S    
C7    C47   A    
C196  O27   A    
H205  N5    S    
C8    C48   A    
H56   N24   S    
C115  H38   S    
C102  H212  S    
C131  H103  S    
C156  I5    S    
C103  H217  S    
C192  O3    A    
C120  N24   S    
C63   C141  A    
C3    C20   A    
C128  N31   S    
C58   C90   A    
C160  C195  A    
C107  H10   S    
C108  H14   S    
C168  C182  A    
C6    C43   A    
C176  N42   S    
C134  H116  S    
C10   C50   A    
H222  N9    S    
O17   Zn5   S    
C202  O38   A    
H169  N44   S    
H34   N18   S    
C130  H99   S    
C50   C201  S    
C10   C28   A    
C127  H86   S    
C96   N48   S    
C155  I4    S    
C27   C40   A    
C12   C30   A    
C132  N36   S    
C122  H67   S    
C196  O31   A    
C121  N25   S    
C163  N29   S    
C106  H5    S    
C198  O29   A    
C69   C142  A    
C158  C191  A    
C152  C169  A    
C25   H203  S    
H105  N36   S    
C64   C142  A    
C102  H210  S    
C150  C167  A    
C92   N44   S    
C159  C182  S    
C94   H180  S    
C2    C188  S    
C160  C177  A    
C164  C182  A    
C109  N14   S    
C66   C135  A    
O3    Zn10  S    
C120  H60   S    
C21   C37   A    
C13   C74   A    
C104  N8    S    
C15   N7    S    
C224  N23   S    
C53   C90   A    
C137  N40   S    
C181  O2    A    
C161  C178  A    
H132  N42   S    
C18   C36   A    
C99   H201  S    
C136  N39   S    
C175  C184  A    
O13   Zn7   S    
C129  H93   S    
O44   Zn1   S    
C176  C183  A    
C37   C101  S    
C170  C183  S    
C68   C86   A    
C207  O16   A    
C9    N2    S    
C67   C124  A    
C119  H54   S    
C112  O45   A    
O2    Zn9   S    
H4    N10   S    
C159  O47   A    
C89   N23   S    
C140  H138  S    
C92   H173  S    
C93   H176  S    
C63   C81   A    
C107  N11   S    
C209  C218  S    
C212  O24   A    
C122  N26   S    
C82   N21   S    
C126  H82   S    
C152  C191  A    
C105  N9    S    
C115  H36   S    
C100  H206  S    
O8    Zn9   S    
O43   Zn4   S    
C65   C83   A    
C14   C49   A    
C109  H19   S    
C169  N36   S    
C111  H27   S    
C151  C168  A    
H48   N21   S    
C13   C189  S    
O37   Zn3   S    
C99   H202  S    
C121  H63   S    
H78   N29   S    
C169  C183  A    
C17   C222  A    
C132  H106  S    
C5    C22   A    
C108  H16   S    
C42   C142  S    
C87   H154  S    
C9    C49   A    
C83   N22   S    
C98   N3    S    
H109  N37   S    
O12   Zn5   S    
C89   H163  S    
C73   N13   S    
C130  H97   S    
C155  C173  A    
C114  N17   S    
C60   C113  A    
C96   H188  S    
H74   N28   S    
C19   H148  S    
C123  H72   S    
C206  O10   A    
C118  H51   S    
C58   C75   A    
C212  C221  S    
C80   N19   S    
C60   C77   A    
H52   N22   S    
C44   C196  S    
C30   H35   S    
C63   H145  S    
C11   C51   A    
C201  O37   A    
C116  H41   S    
C150  C187  A    
C122  H69   S    
O9    Zn1   S    
C55   C113  A    
C151  I15   S    
C4    N44   S    
O40   Zn4   S    
C134  N38   S    
C133  N37   S    
C117  N20   S    
C41   C141  S    
C18   C223  A    
H165  N34   S    
C20   C38   A    
H187  N48   S    
C105  H223  S    
C61   C78   A    
C153  C171  A    
O35   Zn2   S    
C126  H80   S    
C199  O32   A    
C64   C82   A    
C162  C179  A    
C86   N26   S    
C71   N10   S    
C171  N37   S    
C112  C179  S    
C129  H95   S    
C158  C176  A    
C93   N45   S    
H17   N14   S    
C207  O14   A    
C118  N21   S    
C39   C124  S    
C46   C193  S    
C144  C188  A    
C5    N45   S    
C140  H140  S    
C107  H11   S    
C150  I14   S    
O41   Zn4   S    
C144  C162  A    
C212  O26   A    
H209  N6    S    
C5    C44   A    
C91   H168  S    
C197  O35   A    
C57   C81   A    
C100  H208  S    
C27   H2    S    
C99   H204  S    
C55   H113  S    
C114  H32   S    
C128  H88   S    
O11   Zn6   S    
C96   H189  S    
C139  H133  S    
C16   C33   A    
C116  H40   S    
C4    C21   A    
C65   H147  S    
C110  H22   S    
C6    C23   A    
O4    Zn11  S    
C8    N48   S    
H83   N30   S    
C118  H49   S    
C104  H220  S    
C100  N5    S    
C202  O42   A    
C210  O21   A    
C52   C70   A    
C66   C84   A    
C103  H216  S    
C154  C194  A    
C137  H125  S    
C54   C72   A    
O45   Zn7   S    
C20   H159  S    
C149  I13   S    
C163  C180  A    
C165  C180  A    
C203  O8    A    
C146  C190  A    
C43   C199  S    
C166  C179  A    
O1    Zn1   S    
C49   C200  S    
C155  C195  A    
C69   C86   A    
C32   H57   S    
C170  O7    A    
C3    N34   S    
