data_mof_unit_20731.cif
_audit_creation_date              2012-12-10T18:10:54-0500
_audit_creation_method            fapswitch 2.2
_symmetry_space_group_name_H-M    P1
_symmetry_Int_Tables_number       1
_space_group_crystal_system       triclinic
_cell_length_a                    12.675066
_cell_length_b                    13.087756
_cell_length_c                    15.747835
_cell_angle_alpha                 90.623222
_cell_angle_beta                  103.250247
_cell_angle_gamma                 82.076061
_cell_volume                      2517.97261557

loop_
_atom_site_label
_atom_site_type_symbol
_atom_type_description
_atom_site_fract_x
_atom_site_fract_y
_atom_site_fract_z
_atom_type_partial_charge
C1    C     C_R   0.438485 0.691428 0.486959 0.859673
C2    C     C_R   0.598287 0.199216 0.506233 -0.055603
C3    C     C_R   0.298967 0.839735 0.496035 -0.199097
C4    C     C_R   0.501390 0.500317 0.661491 0.904573
C5    C     C_R   0.269966 0.945352 0.502085 -0.161357
C6    C     C_R   0.344191 0.011904 0.494736 -0.176518
C7    C     C_R   0.447072 0.973318 0.477895 0.044171
C8    C     C_R   0.463152 0.870673 0.450162 0.071296
C9    C     C_R   0.531295 0.035085 0.482092 0.051404
C10   C     C_R   0.616396 0.002384 0.438686 0.089016
C11   C     C_R   0.620225 0.907905 0.397414 -0.252594
C12   C     C_3   0.372408 0.522547 0.025403 -0.045238
C13   C     C_R   0.543060 0.842641 0.400448 0.181789
C14   C     C_R   0.534240 0.128781 0.527288 0.146673
C15   C     C_R   0.681733 0.166915 0.463421 -0.257056
C16   C     C_R   0.561211 0.308661 0.510672 0.864758
C17   C     C_R   0.397538 0.801401 0.473164 -0.112228
C18   C     C_R   0.076542 0.371559 0.359328 0.031498
C19   C     C_R   0.797860 0.631405 0.601184 0.000868
C20   C     C_R   0.898275 0.667396 0.617629 -0.311115
C21   C     C_R   0.979560 0.623400 0.576078 0.121914
C22   C     C_R   0.961005 0.537017 0.521148 0.032302
C23   C     C_3   0.492156 0.495455 0.081488 0.290171
C24   C     C_R   0.854507 0.507201 0.504220 0.168951
C25   C     C_R   0.039574 0.482189 0.478682 -0.088417
C26   C     C_R   0.003665 0.414318 0.409605 0.103257
C27   C     C_R   0.896193 0.389150 0.393741 0.071995
C28   C     C_R   0.498940 0.498513 0.338596 0.886491
C29   C     C_R   0.826685 0.431252 0.444498 -0.272179
C30   C     C_R   0.152607 0.490178 0.502898 -0.077212
C31   C     C_R   0.186805 0.386340 0.384170 0.271228
C32   C     C_3   0.376966 0.538018 0.927789 0.049662
C33   C     C_3   0.571882 0.572584 0.966862 -0.542996
C34   C     C_3   0.542664 0.388006 0.056468 -0.425318
C35   C     C_3   0.562914 0.576733 0.062969 -0.459850
C36   C     C_1   0.495802 0.496936 0.249122 -0.195239
C37   C     C_3   0.495683 0.498011 0.916371 0.314856
C38   C     C_3   0.282017 0.500629 0.859748 -0.893324
C39   C     C_3   0.486144 0.149467 0.606669 -0.921735
C40   C     C_3   0.539202 0.754260 0.338251 -0.849368
C41   C     C_3   0.261953 0.341771 0.326849 -0.838840
C42   C     C_3   0.540063 0.387670 0.957342 -0.027116
C43   C     C_1   0.493760 0.495970 0.173432 -0.113583
C44   C     C_1   0.501765 0.499957 0.825868 -0.064907
C45   C     C_1   0.503840 0.500643 0.750909 -0.192838
C46   C     C_R   0.693701 0.067173 0.432905 -0.196715
H1    H     H_    0.335097 0.596952 0.048335 0.102685
H2    H     H_    0.188472 0.529499 0.560207 0.180075
H3    H     H_    0.734304 0.667523 0.631652 0.147821
H4    H     H_    0.911540 0.732419 0.659994 0.150213
H5    H     H_    0.748633 0.405403 0.433379 0.214457
H6    H     H_    0.658350 0.546343 0.963922 0.192759
H7    H     H_    0.549530 0.651632 0.937008 0.183147
H8    H     H_    0.525485 0.655352 0.076866 0.176245
H9    H     H_    0.646514 0.562359 0.106322 0.196135
H10   H     H_    0.626277 0.368454 0.950516 0.134472
H11   H     H_    0.499267 0.326549 0.075162 0.178295
H12   H     H_    0.629114 0.370556 0.094150 0.155212
H13   H     H_    0.281328 0.416565 0.863881 0.269325
H14   H     H_    0.202526 0.540341 0.869467 0.224290
H15   H     H_    0.286045 0.521126 0.792474 0.241546
H16   H     H_    0.310377 0.429461 0.101943 0.181964
H17   H     H_    0.222761 0.471808 0.010458 0.186262
H18   H     H_    0.545365 0.183422 0.658720 0.234309
H19   H     H_    0.409370 0.204680 0.590580 0.256988
H20   H     H_    0.471093 0.077193 0.635197 0.245972
H21   H     H_    0.537616 0.783341 0.271881 0.215216
H22   H     H_    0.613985 0.697467 0.359398 0.270480
H23   H     H_    0.733847 0.220305 0.449987 0.148769
H24   H     H_    0.464518 0.717051 0.331651 0.217154
H25   H     H_    0.257282 0.397022 0.272698 0.230028
H26   H     H_    0.346518 0.319759 0.362030 0.282474
H27   H     H_    0.240164 0.267886 0.297980 0.187079
H28   H     H_    0.839894 0.253539 0.358288 0.169949
H29   H     H_    0.784211 0.353530 0.287217 0.185580
H30   H     H_    0.071510 0.239678 0.288828 0.189407
H31   H     H_    0.057585 0.350930 0.227966 0.187709
H32   H     H_    0.112725 0.676237 0.649839 0.176155
H33   H     H_    0.048519 0.750393 0.560701 0.185726
H34   H     H_    0.681543 0.886165 0.359964 0.153006
H35   H     H_    0.411095 0.301177 0.937706 0.212753
H36   H     H_    0.528475 0.237305 0.922767 0.171603
H37   H     H_    0.758160 0.043517 0.399006 0.140347
H38   H     H_    0.245699 0.788074 0.511228 0.163236
H39   H     H_    0.319169 0.093440 0.500215 0.158778
H40   H     H_    0.192400 0.975280 0.516935 0.141319
H41   H     H_    0.363764 0.623103 0.915422 0.123577
N1    N     N_R   0.222200 0.444690 0.455710 -0.116030
N2    N     N_R   0.776960 0.554780 0.543830 -0.123104
N3    N     N_3   0.304930 0.442533 0.035634 -0.457213
N4    N     N_3   0.856851 0.317900 0.327993 -0.434976
N5    N     N_3   0.037327 0.317313 0.280959 -0.437235
N6    N     N_3   0.074215 0.674278 0.583683 -0.490011
N7    N     N_3   0.478247 0.308536 0.911419 -0.451040
O1    O     O_R   0.366740 0.627160 0.478850 -0.607802
O2    O     O_R   0.544830 0.662520 0.507140 -0.602432
O3    O     O_R   0.410920 0.482310 0.608710 -0.613224
O4    O     O_R   0.589010 0.517670 0.637000 -0.614196
O5    O     O_R   0.455170 0.337480 0.492860 -0.617433
O6    O     O_R   0.633260 0.372840 0.521150 -0.633819
O7    O     O_R   0.410990 0.482330 0.363000 -0.612431
O8    O     O_R   0.589080 0.517690 0.391290 -0.634892
Zn1   Zn    Zn3+2 0.381090 0.476390 0.481110 0.933224
Zn2   Zn    Zn3+2 0.618910 0.523610 0.518890 0.923991

loop_
_geom_bond_atom_site_label_1
_geom_bond_atom_site_label_2
_ccdc_geom_bond_type
O5    Zn1   S    
H31   N5    S    
C8    C13   A    
H36   N7    S    
C4    O4    A    
C27   C29   A    
C19   C20   A    
C18   C26   A    
C24   N2    A    
C7    C8    A    
C33   H6    S    
C39   H18   S    
C12   C23   S    
C26   C27   A    
C6    H39   S    
C40   H24   S    
C30   H2    S    
H33   N6    S    
C5    C6    A    
H32   N6    S    
O6    Zn2   S    
C23   C43   S    
C37   C42   S    
C24   C29   A    
C13   C40   S    
C20   H4    S    
C42   H10   S    
C14   C39   S    
C28   O7    A    
C22   C25   A    
C34   C42   S    
C10   C46   A    
C34   H11   S    
C27   N4    S    
C32   C38   S    
C2    C16   S    
C9    C10   A    
H29   N4    S    
C41   H25   S    
C38   H15   S    
O7    Zn1   S    
C4    O3    A    
C12   C32   S    
C35   H8    S    
C39   H19   S    
C12   H1    S    
O1    Zn1   S    
C4    C45   S    
C33   H7    S    
C15   H23   S    
C35   H9    S    
C10   C11   A    
C16   O6    A    
C25   C26   A    
C32   H41   S    
C40   H21   S    
C33   C37   S    
C38   H13   S    
H28   N4    S    
C9    C14   A    
C19   N2    A    
C19   H3    S    
C1    O1    A    
C23   C34   S    
C32   C37   S    
O8    Zn2   S    
C2    C15   A    
O3    Zn1   S    
H30   N5    S    
C41   H26   S    
C38   H14   S    
C5    H40   S    
C23   C35   S    
O2    Zn2   S    
N2    Zn2   S    
C39   H20   S    
C22   C24   A    
C30   N1    A    
N1    Zn1   S    
C44   C45   T    
C29   H5    S    
C12   N3    S    
C25   C30   A    
C7    C9    A    
C31   N1    A    
C31   C41   S    
C42   N7    S    
C3    C5    A    
C16   O5    A    
C6    C7    A    
C1    C17   S    
C8    C17   A    
C18   N5    S    
C37   C44   S    
H35   N7    S    
C11   C13   A    
C21   N6    S    
C1    O2    A    
O4    Zn2   S    
H16   N3    S    
H17   N3    S    
C33   C35   S    
C3    C17   A    
C2    C14   A    
C11   H34   S    
C41   H27   S    
C46   H37   S    
C28   O8    A    
C20   C21   A    
C28   C36   S    
C40   H22   S    
C3    H38   S    
C34   H12   S    
C36   C43   T    
C18   C31   A    
C15   C46   A    
C21   C22   A    
