data_mof_unit_51930.cif
_audit_creation_date              2012-12-11T14:08:21-0500
_audit_creation_method            fapswitch 2.2
_symmetry_space_group_name_H-M    P1
_symmetry_Int_Tables_number       1
_space_group_crystal_system       triclinic
_cell_length_a                    11.017802
_cell_length_b                    10.987651
_cell_length_c                    18.70017
_cell_angle_alpha                 90.790687
_cell_angle_beta                  90.134807
_cell_angle_gamma                 60.275868
_cell_volume                      1965.75510107

loop_
_atom_site_label
_atom_site_type_symbol
_atom_type_description
_atom_site_fract_x
_atom_site_fract_y
_atom_site_fract_z
_atom_type_partial_charge
C1    C     C_R   0.231820 0.648139 0.607268 0.574446
C2    C     C_3   0.634720 0.620746 0.802384 -0.217050
C3    C     C_3   0.720769 0.696013 0.807869 -0.004997
C4    C     C_3   0.676798 0.664072 0.673033 0.016622
C5    C     C_3   0.834469 0.578953 0.690739 -0.242235
C6    C     C_3   0.598575 0.614308 0.723684 -0.224721
C7    C     C_2   0.614636 0.282902 0.686002 0.109527
C8    C     C_2   0.688281 0.157797 0.827098 -0.034609
C9    C     C_2   0.769484 0.197780 0.792410 0.233922
C10   C     C_2   0.744209 0.224307 0.714750 -0.133949
C11   C     C_2   0.155997 0.678487 0.675495 0.211679
C12   C     C_R   0.655970 0.627040 0.599309 0.533548
C13   C     C_2   0.189223 0.661336 0.837877 -0.040353
C14   C     C_2   0.159662 0.579416 0.795981 -0.053565
C15   C     C_2   0.166599 0.573257 0.717017 0.208424
C16   C     C_2   0.666250 0.664080 0.327641 -0.091902
C17   C     C_2   0.625304 0.664153 0.154134 -0.092054
C18   C     C_2   0.695462 0.578763 0.207654 0.238863
C19   C     C_2   0.623606 0.610838 0.275471 -0.091193
C20   C     C_2   0.676311 0.132532 0.335821 -0.054508
C21   C     C_2   0.649092 0.149850 0.178023 0.258471
C22   C     C_2   0.625854 0.067130 0.222078 -0.141653
C23   C     C_R   0.590830 0.297049 0.608727 0.597379
C24   C     C_2   0.595021 0.099694 0.297235 -0.150090
C25   C     C_2   0.122154 0.683459 0.344347 -0.105295
C26   C     C_2   0.121273 0.686435 0.188231 -0.060655
C27   C     C_2   0.031559 0.788322 0.232541 -0.141739
C28   C     C_2   0.075211 0.798142 0.303976 0.167461
C29   C     C_R   0.703157 0.102006 0.898232 0.572000
C30   C     C_R   0.753332 0.710175 0.883157 0.544715
C31   C     C_R   0.119639 0.705258 0.907635 0.550307
C32   C     C_R   0.675272 0.106378 0.104503 0.588098
C33   C     C_R   0.692577 0.688436 0.094006 0.563553
C34   C     C_R   0.217503 0.651097 0.403526 0.555177
C35   C     C_R   0.091722 0.710422 0.113592 0.550089
C36   C     C_R   0.646939 0.627913 0.398008 0.541529
C37   C     C_R   0.621091 0.222149 0.398046 0.587433
C38   C     C_3   0.634465 0.841463 0.771513 -0.210893
C39   C     C_3   0.630672 0.822029 0.689131 0.064588
C40   C     C_3   0.859107 0.611556 0.766944 -0.258949
Cr1   Cr    Cr6+3 0.393010 0.398050 0.501480 1.136435
Cr2   Cr    Cr6+3 0.398820 0.707980 0.501630 1.196509
Cr3   Cr    Cr6+3 0.708140 0.393940 0.496850 1.117789
Cr4   Cr    Cr6+3 0.937950 0.938450 0.008940 1.148387
Cr5   Cr    Cr6+3 0.626180 0.937030 0.994750 1.063912
Cr6   Cr    Cr6+3 0.937790 0.625760 0.001410 1.134429
H1    H     H_    0.679413 0.909272 0.784223 0.080478
H2    H     H_    0.631093 0.504664 0.710126 0.155995
H3    H     H_    0.929527 0.512040 0.794064 0.229319
H4    H     H_    0.873679 0.464447 0.685820 0.226353
H5    H     H_    0.835107 0.188027 0.680511 0.202832
H6    H     H_    0.609414 0.147894 0.797053 0.122232
H7    H     H_    0.125700 0.512839 0.820835 0.175560
H8    H     H_    0.239401 0.716196 0.816445 0.177499
H9    H     H_    0.526467 0.895612 0.793949 0.208135
H10   H     H_    0.550071 0.573846 0.285326 0.169833
H11   H     H_    0.515024 0.740384 0.162035 0.090965
H12   H     H_    0.746170 0.692786 0.318250 0.094460
H13   H     H_    0.624093 0.974849 0.201583 0.116883
H14   H     H_    0.497660 0.111491 0.317949 0.187801
H15   H     H_    0.775162 0.114583 0.314276 0.221163
H16   H     H_    0.938403 0.878816 0.212150 0.148884
H17   H     H_    0.218078 0.597229 0.206144 0.121311
H18   H     H_    0.103822 0.599104 0.326562 0.104730
H19   H     H_    0.709770 0.843968 0.664740 0.106794
H20   H     H_    0.908047 0.677517 0.764803 0.143988
H21   H     H_    0.895379 0.605001 0.652606 0.158472
H22   H     H_    0.695125 0.513068 0.823595 0.214222
H23   H     H_    0.536762 0.677229 0.834490 0.152515
H24   H     H_    0.483674 0.676593 0.716283 0.197918
O1    O     O_R   0.507110 0.256280 0.580300 -0.415880
O2    O     O_R   0.524640 0.695370 0.425100 -0.469671
O3    O     O_R   0.735890 0.504390 0.415980 -0.481951
O4    O     O_R   0.690560 0.277820 0.422350 -0.446323
O5    O     O_3   0.499990 0.499990 0.499980 -0.338404
O6    O     O_R   0.089190 0.825870 0.932320 -0.443256
O7    O     O_R   0.819070 0.053960 0.931440 -0.420487
O8    O     O_R   0.607070 0.076440 0.916460 -0.517497
O9    O     O_R   0.647110 0.806550 0.917690 -0.503772
O10   O     O_R   0.837080 0.593860 0.915300 -0.471622
O11   O     O_R   0.064770 0.636080 0.932550 -0.529245
O12   O     O_R   0.280830 0.527190 0.577940 -0.477526
O13   O     O_R   0.068250 0.829200 0.092940 -0.520594
O14   O     O_R   0.799650 0.057040 0.080330 -0.479006
O15   O     O_R   0.586130 0.079760 0.077080 -0.519386
O16   O     O_R   0.627700 0.809630 0.066580 -0.517968
O17   O     O_R   0.816140 0.597180 0.075920 -0.407607
O18   O     O_R   0.045360 0.639170 0.081440 -0.455838
O19   O     O_3   0.833980 0.833750 0.001700 -0.321813
O20   O     O_R   0.261360 0.738990 0.584270 -0.428085
O21   O     O_R   0.532590 0.694780 0.574370 -0.441684
O22   O     O_R   0.744470 0.503750 0.577000 -0.538929
O23   O     O_R   0.698520 0.277230 0.571620 -0.509529
O24   O     O_R   0.498530 0.256920 0.419280 -0.501254
O25   O     O_R   0.272880 0.527780 0.428680 -0.514583
O26   O     O_R   0.252780 0.739630 0.423250 -0.416301
S1    S     S_3+6 0.912739 0.203544 0.832233 0.066918
O27   O     O_2   0.863408 0.297232 0.897473 -0.254214
O28   O     O_2   0.022712 0.059950 0.854428 -0.170997
O29   O     O_3   0.984646 0.265176 0.774225 -0.530821
H25   H     H_    0.039709 0.186652 0.740410 0.407241
Cl1   Cl    Cl    0.469625 0.387778 0.740131 -0.686193
Cl2   Cl    Cl    0.184133 0.416290 0.679265 -0.485875
S2    S     S_3+6 0.059918 0.857664 0.701173 -0.021416
O30   O     O_2   0.155803 0.904493 0.732219 -0.210352
O31   O     O_2   0.992820 0.942322 0.635569 -0.294946
O32   O     O_3   0.936095 0.885792 0.761286 -0.581372
H26   H     H_    0.849919 0.923102 0.732591 0.322261
S3    S     S_3+6 0.875702 0.448905 0.207213 0.087284
O33   O     O_2   0.907402 0.348967 0.145194 -0.169400
O34   O     O_2   0.964036 0.517480 0.201219 -0.328211
O35   O     O_3   0.915372 0.358150 0.283623 -0.408268
H27   H     H_    0.957526 0.400448 0.314993 0.351690
Cl3   Cl    Cl    0.635335 0.311098 0.202998 -0.580451
S4    S     S_3+6 0.466339 0.953569 0.653035 0.053927
O36   O     O_2   0.484820 0.976189 0.575638 -0.250831
O37   O     O_2   0.356676 0.911612 0.659311 -0.177051
O38   O     O_3   0.411232 0.104690 0.698443 -0.410025
H28   H     H_    0.492261 0.119975 0.697724 0.353464
S5    S     S_3+6 0.090334 0.949049 0.322813 0.044696
O39   O     O_2   0.029142 0.008566 0.395238 -0.219949
O40   O     O_2   0.241441 0.911598 0.321408 -0.263509
O41   O     O_3   0.004490 0.071138 0.260561 -0.449300
H29   H     H_    0.064954 0.037522 0.217421 0.370683

loop_
_geom_bond_atom_site_label_1
_geom_bond_atom_site_label_2
_ccdc_geom_bond_type
C19   H10   S    
Cr3   O3    S    
C7    C10   D    
C37   O4    A    
C1    O20   A    
C12   O21   A    
C1    C11   S    
C18   S3    S    
C5    H21   S    
Cr4   O13   S    
S2    O31   D    
S1    O27   D    
Cr6   O17   S    
O41   H29   S    
Cr6   O19   S    
C25   C28   D    
Cr2   O5    S    
C6    H2    S    
Cr2   O26   S    
C8    C29   S    
Cr4   O7    S    
C34   O26   A    
C18   C19   S    
C2    H22   S    
S3    O34   D    
C38   C39   S    
Cr1   O12   S    
C40   H3    S    
Cr2   O21   S    
C20   H15   S    
Cr4   O6    S    
O38   H28   S    
O35   H27   S    
C11   C15   D    
C29   O8    A    
C20   C24   D    
C3    C38   S    
C8    C9    D    
S4    O37   D    
C7    Cl1   S    
O32   H26   S    
Cr5   O8    S    
C4    C12   S    
C2    H23   S    
Cr5   O19   S    
C9    C10   S    
C8    H6    S    
S5    O41   S    
C12   O22   A    
C25   C34   S    
Cr1   O1    S    
C30   O10   A    
Cr3   O4    S    
C40   H20   S    
C21   C22   D    
C39   H19   S    
C2    C6    S    
C17   C33   S    
C10   H5    S    
S2    O30   D    
S1    O28   D    
S5    O40   D    
Cr6   O18   S    
Cr3   O5    S    
C32   O14   A    
C21   C32   S    
C38   H9    S    
C23   O1    A    
C34   O25   A    
C4    C6    S    
C28   S5    S    
S3    O35   S    
C22   H13   S    
C35   O13   A    
C4    C5    S    
C1    O12   A    
C23   O23   A    
Cr2   O20   S    
C25   H18   S    
C3    C30   S    
Cr5   O15   S    
C26   H17   S    
C27   H16   S    
Cr1   O5    S    
Cr6   O11   S    
C35   O18   A    
Cr1   O24   S    
C4    C39   S    
S4    O36   D    
C24   H14   S    
S4    O38   S    
Cr2   O2    S    
C17   C18   D    
C26   C27   D    
Cr5   O9    S    
C16   H12   S    
C38   H1    S    
C11   S2    S    
C30   O9    A    
C3    C40   S    
C39   S4    S    
C22   C24   S    
C5    H4    S    
S1    O29   S    
S5    O39   D    
C13   H8    S    
C6    H24   S    
C9    S1    S    
C13   C31   S    
C21   Cl3   S    
Cr4   O14   S    
Cr3   O22   S    
C31   O11   A    
C2    C3    S    
C33   O17   A    
S3    O33   D    
C16   C36   S    
Cr6   O10   S    
C20   C37   S    
C31   O6    A    
Cr1   O25   S    
C16   C19   D    
C7    C23   S    
C32   O15   A    
O29   H25   S    
Cr3   O23   S    
C37   O24   A    
Cr5   O16   S    
S2    O32   S    
C36   O3    A    
C26   C35   S    
C14   H7    S    
C29   O7    A    
C5    C40   S    
C27   C28   S    
C14   C15   S    
C15   Cl2   S    
C13   C14   D    
C33   O16   A    
Cr4   O19   S    
C36   O2    A    
C17   H11   S    
