data_mof_unit_7980.cif
_audit_creation_date              2012-12-10T18:43:47-0500
_audit_creation_method            fapswitch 2.2
_symmetry_space_group_name_H-M    P1
_symmetry_Int_Tables_number       1
_space_group_crystal_system       triclinic
_cell_length_a                    10.856026
_cell_length_b                    10.61511
_cell_length_c                    9.907061
_cell_angle_alpha                 91.29192
_cell_angle_beta                  103.197949
_cell_angle_gamma                 90.823521
_cell_volume                      1111.00814761

loop_
_atom_site_label
_atom_site_type_symbol
_atom_type_description
_atom_site_fract_x
_atom_site_fract_y
_atom_site_fract_z
_atom_type_partial_charge
C1    C     C_R   0.511731 0.258842 0.500533 0.990079
C2    C     C_2   0.878872 0.498500 0.583032 -0.279272
C3    C     C_2   0.042776 0.510954 0.446977 -0.064530
C4    C     C_2   0.930144 0.451073 0.479861 -0.152791
C5    C     C_R   0.492678 0.052504 0.368802 0.351982
C6    C     C_R   0.466915 0.940304 0.617161 0.339499
C7    C     C_R   0.439640 0.931616 0.365750 -0.189226
C8    C     C_R   0.522255 0.059824 0.623416 -0.188882
C9    C     C_R   0.448578 0.870908 0.491987 -0.156145
C10   C     C_R   0.520771 0.121589 0.497750 -0.214063
C11   C     C_2   0.863160 0.348217 0.384916 0.573419
C12   C     C_R   0.479059 0.737933 0.496451 0.961828
C13   C     C_2   0.045573 0.652150 0.440722 0.657999
C14   C     C_2   0.680476 0.647818 0.195884 0.560998
C15   C     C_2   0.311874 0.360901 0.803408 0.538110
C16   C     C_2   0.950433 0.578267 0.700987 0.479298
C17   C     C_2   0.135100 0.298149 0.425998 0.480426
C18   C     C_2   0.694563 0.631457 0.905350 0.519202
C19   C     C_2   0.301456 0.374500 0.093148 0.569577
C20   C     C_2   0.371449 0.869283 0.231806 0.587299
C21   C     C_2   0.593724 0.112498 0.760355 0.587267
C22   C     C_R   0.260796 0.492727 0.443332 1.008035
C23   C     C_R   0.741004 0.497414 0.556874 0.807274
C24   C     C_R   0.591737 0.564972 0.096957 0.046369
C25   C     C_R   0.407230 0.436663 0.902977 0.002742
C26   C     C_R   0.593470 0.562962 0.952991 0.043104
C27   C     C_R   0.405537 0.438724 0.046682 -0.047502
C28   C     C_2   0.135915 0.438664 0.419380 -0.170937
H1    H     H_    0.806076 0.279869 0.424499 0.079367
H2    H     H_    0.292433 0.724251 0.791536 0.392555
H3    H     H_    0.389062 0.895923 0.133160 0.165629
H4    H     H_    0.571046 0.083824 0.856050 0.153719
H5    H     H_    0.969719 0.705753 0.467338 0.056066
H6    H     H_    0.646729 0.731933 0.238324 0.068992
H7    H     H_    0.218228 0.396998 0.764358 0.134368
H8    H     H_    0.900269 0.642884 0.754307 0.113801
H9    H     H_    0.075907 0.248541 0.482689 0.081881
H10   H     H_    0.672575 0.687157 0.813581 0.098669
H11   H     H_    0.321194 0.321034 0.186525 0.173235
H12   H     H_    0.448981 0.160130 0.013978 0.397048
N1    N     N_R   0.499970 0.499970 0.857200 -0.155556
N2    N     N_R   0.500030 0.500030 0.142800 -0.161528
O1    O     O_R   0.499990 0.316750 0.614620 -0.564171
O2    O     O_2   0.128723 0.709937 0.402200 -0.499942
O3    O     O_2   0.792351 0.622994 0.230301 -0.519052
O4    O     O_2   0.335787 0.254989 0.768474 -0.557788
O5    O     O_2   0.065132 0.572434 0.740115 -0.565719
O6    O     O_2   0.205042 0.236036 0.371267 -0.556397
O7    O     O_2   0.805098 0.624064 0.966789 -0.499575
O8    O     O_2   0.191867 0.381659 0.028160 -0.514329
O9    O     O_2   0.628857 0.212729 0.238046 -0.279086
O10   O     O_2   0.612747 0.991450 0.169269 -0.306883
O11   O     O_3   0.414732 0.126307 0.090445 -0.564527
O12   O     O_R   0.500010 0.683250 0.385380 -0.656352
O13   O     O_2   0.508019 0.847168 0.873742 -0.389567
O14   O     O_2   0.332909 0.991925 0.807767 -0.219882
O15   O     O_3   0.300385 0.765104 0.704931 -0.492788
O16   O     O_2   0.290185 0.788184 0.230027 -0.483058
O17   O     O_2   0.684287 0.184125 0.768005 -0.539914
O18   O     O_R   0.499990 0.316780 0.385290 -0.603179
O19   O     O_R   0.500010 0.683220 0.614710 -0.604012
O20   O     O_R   0.317810 0.500000 0.571850 -0.642114
O21   O     O_R   0.682190 0.500000 0.428150 -0.605917
O22   O     O_R   0.317810 0.500030 0.342520 -0.599033
O23   O     O_R   0.682190 0.499970 0.657480 -0.620554
O24   O     O_2   0.872065 0.339591 0.264330 -0.445378
S1    S     S_3+6 0.542859 0.098959 0.216571 0.004123
S2    S     S_3+6 0.402776 0.886634 0.756750 0.039144
Zn1   Zn    Zn3+2 0.500000 0.499980 0.653120 1.024475
Zn2   Zn    Zn3+2 0.500000 0.500020 0.346880 1.022068

loop_
_geom_bond_atom_site_label_1
_geom_bond_atom_site_label_2
_ccdc_geom_bond_type
C3    C13   S    
C14   H6    S    
C2    C4    D    
C17   O6    D    
C13   H5    S    
O22   Zn2   S    
C22   O20   A    
C2    C16   S    
O12   Zn2   S    
C11   O24   D    
O18   Zn2   S    
C5    S1    S    
C23   O23   A    
C6    C9    A    
C6    S2    S    
C8    C21   S    
C18   H10   S    
C5    C10   A    
O1    Zn1   S    
C17   H9    S    
C16   H8    S    
C4    C11   S    
C12   O19   A    
C19   O8    D    
C11   H1    S    
O9    S1    D    
O10   S1    D    
C19   H11   S    
O23   Zn1   S    
O20   Zn1   S    
C16   O5    D    
C15   H7    S    
C3    C28   D    
C22   C28   S    
C24   C26   A    
C21   O17   D    
C14   O3    D    
C13   O2    D    
O11   S1    S    
C21   H4    S    
C23   O21   A    
C15   C25   S    
C25   C27   A    
C9    C12   S    
C1    C10   S    
O15   S2    S    
C14   C24   S    
C3    C4    S    
H2    O15   S    
C7    C9    A    
N2    Zn2   S    
C20   O16   D    
C24   N2    A    
C26   N1    A    
N1    Zn1   S    
C7    C20   S    
H12   O11   S    
C1    O18   A    
O19   Zn1   S    
C2    C23   S    
C5    C7    A    
O13   S2    D    
C25   N1    A    
C6    C8    A    
C15   O4    D    
O21   Zn2   S    
O14   S2    D    
C17   C28   S    
C22   O22   A    
C1    O1    A    
C8    C10   A    
C12   O12   A    
C27   N2    A    
C18   O7    D    
C19   C27   S    
C20   H3    S    
C18   C26   S    
