data_mof_unit_65554.cif
_audit_creation_date              2012-12-11T15:33:48-0500
_audit_creation_method            fapswitch 2.2
_symmetry_space_group_name_H-M    P1
_symmetry_Int_Tables_number       1
_space_group_crystal_system       triclinic
_cell_length_a                    27.225995
_cell_length_b                    7.194521
_cell_length_c                    22.714484
_cell_angle_alpha                 89.999623
_cell_angle_beta                  100.959321
_cell_angle_gamma                 89.999616
_cell_volume                      4368.12360248

loop_
_atom_site_label
_atom_site_type_symbol
_atom_type_description
_atom_site_fract_x
_atom_site_fract_y
_atom_site_fract_z
_atom_type_partial_charge
O1    O     O_R   0.207310 0.594030 0.676830 -0.529588
O2    O     O_R   0.792690 0.405970 0.323170 -0.529588
O3    O     O_R   0.292690 0.094030 0.823170 -0.529582
O4    O     O_R   0.707310 0.905970 0.176830 -0.529582
O5    O     O_R   0.197320 0.262370 0.795700 -0.533587
O6    O     O_R   0.802680 0.737630 0.204300 -0.533587
O7    O     O_R   0.302680 0.762370 0.704300 -0.533587
O8    O     O_R   0.697320 0.237630 0.295700 -0.533587
C1    C     C_R   0.185457 0.431708 0.813012 0.728283
C2    C     C_R   0.814543 0.568292 0.186988 0.728284
C3    C     C_R   0.314544 0.931707 0.686989 0.728271
C4    C     C_R   0.685456 0.068293 0.313011 0.728270
O9    O     O_R   0.201410 0.264250 0.675590 -0.525072
O10   O     O_R   0.798590 0.735750 0.324410 -0.525073
O11   O     O_R   0.298590 0.764250 0.824410 -0.525070
O12   O     O_R   0.701410 0.235750 0.175590 -0.525069
O13   O     O_R   0.296810 0.094940 0.702210 -0.526296
O14   O     O_R   0.703190 0.905060 0.297790 -0.526297
O15   O     O_R   0.203190 0.594940 0.797790 -0.526297
O16   O     O_R   0.796810 0.405060 0.202210 -0.526297
C5    C     C_R   0.189745 0.431916 0.653410 0.833657
C6    C     C_R   0.810255 0.568084 0.346590 0.833658
C7    C     C_R   0.310255 0.931913 0.846590 0.833651
C8    C     C_R   0.689745 0.068086 0.153410 0.833651
O17   O     O_3   0.281300 0.427390 0.758870 -0.375285
O18   O     O_3   0.718700 0.572610 0.241130 -0.375285
O19   O     O_3   0.218700 0.927390 0.741130 -0.375291
O20   O     O_3   0.781300 0.072610 0.258870 -0.375292
V1    V     V_3+5 0.244190 0.152150 0.748350 1.586638
V2    V     V_3+5 0.755810 0.847850 0.251650 1.586636
V3    V     V_3+5 0.255810 0.652150 0.751650 1.586643
V4    V     V_3+5 0.744190 0.347850 0.248350 1.586642
C9    C     C_R   0.653542 0.069828 0.095659 -0.239880
C10   C     C_R   0.346458 0.930172 0.904341 -0.239879
C11   C     C_R   0.846458 0.569817 0.404341 -0.239886
C12   C     C_R   0.153543 0.430183 0.595658 -0.239888
C13   C     C_R   0.630753 0.234126 0.000790 0.179292
C14   C     C_R   0.369247 0.765874 0.999210 0.179291
C15   C     C_R   0.869238 0.734049 0.499222 0.179302
C16   C     C_R   0.130762 0.265946 0.500778 0.179303
C17   C     C_R   0.666841 0.173594 0.048974 0.551489
C18   C     C_R   0.333158 0.826405 0.951026 0.551489
C19   C     C_R   0.833153 0.673540 0.451031 0.551475
C20   C     C_R   0.166847 0.326454 0.548969 0.551475
C21   C     C_R   0.603643 0.006574 0.090607 0.042610
C22   C     C_R   0.396357 0.993426 0.909393 0.042610
C23   C     C_R   0.896359 0.506592 0.409390 0.042601
C24   C     C_R   0.103642 0.493412 0.590609 0.042604
C25   C     C_R   0.567740 0.044021 0.036832 -0.005872
C26   C     C_R   0.432260 0.955979 0.963167 -0.005872
C27   C     C_R   0.932259 0.544015 0.463168 -0.005880
C28   C     C_R   0.067742 0.455989 0.536831 -0.005879
C29   C     C_R   0.580233 0.180425 0.996639 -0.188765
C30   C     C_R   0.419767 0.819574 0.003361 -0.188765
C31   C     C_R   0.919760 0.680374 0.503372 -0.188775
C32   C     C_R   0.080241 0.319627 0.496627 -0.188777
C33   C     C_R   0.518897 0.961313 0.022846 0.023199
C34   C     C_R   0.481102 0.038687 0.977154 0.023199
C35   C     C_R   0.981105 0.461326 0.477149 0.023196
C36   C     C_R   0.018896 0.538680 0.522849 0.023196
C37   C     C_R   0.492359 0.203777 0.949968 -0.151539
C38   C     C_R   0.507641 0.796223 0.050032 -0.151539
C39   C     C_R   0.007632 0.703738 0.550048 -0.151599
C40   C     C_R   0.992369 0.296268 0.449950 -0.151600
C41   C     C_R   0.541279 0.266810 0.956127 0.675324
C42   C     C_R   0.458720 0.733190 0.043873 0.675324
C43   C     C_R   0.958709 0.766743 0.543894 0.675333
C44   C     C_R   0.041291 0.233260 0.456105 0.675332
H1    H     H_    0.463220 0.287387 0.923822 0.181351
H2    H     H_    0.536780 0.712613 0.076178 0.181351
H3    H     H_    0.036768 0.787344 0.576201 0.181356
H4    H     H_    0.963233 0.212664 0.423796 0.181356
C45   C     C_R   0.616124 0.901476 0.349417 -0.109910
C46   C     C_R   0.383875 0.098524 0.650582 -0.109912
C47   C     C_R   0.883876 0.401476 0.150583 -0.109910
C48   C     C_R   0.116124 0.598524 0.849417 -0.109910
H5    H     H_    0.619742 0.788647 0.318965 0.162420
H6    H     H_    0.380258 0.211352 0.681035 0.162419
H7    H     H_    0.880259 0.288647 0.181036 0.162416
H8    H     H_    0.119740 0.711352 0.818964 0.162416
C49   C     C_R   0.579823 0.886581 0.385405 -0.092194
C50   C     C_R   0.420176 0.113419 0.614594 -0.092194
C51   C     C_R   0.920177 0.386581 0.114595 -0.092190
C52   C     C_R   0.079823 0.613419 0.885405 -0.092191
H9    H     H_    0.556900 0.762607 0.381777 0.158413
H10   H     H_    0.443100 0.237392 0.618222 0.158413
H11   H     H_    0.943101 0.262608 0.118223 0.158415
H12   H     H_    0.056898 0.737392 0.881776 0.158415
C53   C     C_R   0.573267 0.029298 0.425449 -0.026135
C54   C     C_R   0.426732 0.970702 0.574551 -0.026135
C55   C     C_R   0.926732 0.529298 0.074550 -0.026135
C56   C     C_R   0.073268 0.470702 0.925450 -0.026135
C57   C     C_R   0.604143 0.186825 0.428584 -0.126718
C58   C     C_R   0.395856 0.813175 0.571415 -0.126718
C59   C     C_R   0.895854 0.686824 0.071413 -0.126716
C60   C     C_R   0.104146 0.313176 0.928587 -0.126716
H13   H     H_    0.600357 0.297979 0.459543 0.168847
H14   H     H_    0.399642 0.702021 0.540455 0.168847
H15   H     H_    0.899640 0.797977 0.040453 0.168846
H16   H     H_    0.100360 0.202023 0.959547 0.168846
C61   C     C_R   0.640799 0.202886 0.392984 0.153040
C62   C     C_R   0.359200 0.797115 0.607016 0.153041
C63   C     C_R   0.859199 0.702884 0.107014 0.153040
C64   C     C_R   0.140801 0.297116 0.892986 0.153040
C65   C     C_R   0.647068 0.059413 0.352119 -0.076052
C66   C     C_R   0.352931 0.940587 0.647881 -0.076051
C67   C     C_R   0.852931 0.559412 0.147880 -0.076045
C68   C     C_R   0.147069 0.440588 0.852120 -0.076045
N1    N     N_R   0.528530 0.153164 0.502652 -0.262648
N2    N     N_R   0.471469 0.846836 0.497348 -0.262648
N3    N     N_R   0.971468 0.653163 0.997346 -0.262646
N4    N     N_R   0.028532 0.346837 0.002654 -0.262647
N5    N     N_R   0.494406 0.139627 0.537526 -0.264427
N6    N     N_R   0.505594 0.860372 0.462473 -0.264427
N7    N     N_R   0.005593 0.639626 0.962472 -0.264426
N8    N     N_R   0.994407 0.360373 0.037527 -0.264426
C69   C     C_R   0.465066 0.986074 0.535704 0.547754
C70   C     C_R   0.534933 0.013925 0.464295 0.547755
C71   C     C_R   0.034934 0.486074 0.964296 0.547754
C72   C     C_R   0.965066 0.513925 0.035704 0.547754
F1    F     F_    0.548820 0.423177 0.925791 -0.640271
F2    F     F_    0.451180 0.576823 0.074209 -0.640271
F3    F     F_    0.951162 0.923074 0.574244 -0.640247
F4    F     F_    0.048838 0.076928 0.425755 -0.640247
I1    I     I_    0.418574 0.075523 0.827122 -0.374644
I2    I     I_    0.581426 0.924478 0.172878 -0.374643
I3    I     I_    0.081420 0.575427 0.672887 -0.374644
I4    I     I_    0.918580 0.424586 0.327112 -0.374644
F5    F     F_    0.285169 0.767319 0.946462 -0.641021
F6    F     F_    0.714831 0.232681 0.053537 -0.641021
F7    F     F_    0.214838 0.267380 0.553532 -0.641021
F8    F     F_    0.785161 0.732608 0.446469 -0.641022
I5    I     I_    0.657579 0.401277 0.935855 -0.053066
I6    I     I_    0.342420 0.598721 0.064145 -0.053066
I7    I     I_    0.842403 0.901128 0.564169 -0.053031
I8    I     I_    0.157598 0.098856 0.435834 -0.053032
I9    I     I_    0.686667 0.443564 0.409104 -0.249328
I10   I     I_    0.313332 0.556438 0.590895 -0.249330
I11   I     I_    0.813328 0.943560 0.090892 -0.249336
I12   I     I_    0.186672 0.056440 0.909108 -0.249337

loop_
_geom_bond_atom_site_label_1
_geom_bond_atom_site_label_2
_ccdc_geom_bond_type
O17   V3    S    
C51   H11   S    
O1    C5    A    
O19   V1    S    
C9    C21   A    
C22   I1    S    
O3    C7    A    
C10   C18   A    
O1    V3    S    
O15   V3    S    
C44   F4    S    
C25   C33   A    
C23   I4    S    
C5    C12   S    
C15   I7    S    
C20   F7    S    
O7    C3    A    
C6    C11   S    
C16   I8    S    
C35   C40   A    
C26   C30   A    
C36   C39   A    
C40   C44   A    
O9    V1    S    
C19   F8    S    
C56   C71   S    
C46   C50   A    
C14   C18   A    
C4    C65   S    
O4    C8    A    
C59   H15   S    
N4    N8    A    
C58   H14   S    
C56   C60   A    
O13   V1    S    
C31   C43   A    
C38   H2    S    
O2    V4    S    
C62   I10   S    
O3    V1    S    
C28   C36   A    
C1    O15   A    
C15   C31   A    
C2    O16   A    
C16   C32   A    
O2    C6    A    
C42   F2    S    
C12   C24   A    
C10   C22   A    
C41   F1    S    
C11   C19   A    
N2    N6    A    
C16   C20   A    
N1    N5    A    
C13   C29   A    
C34   C37   A    
O11   C7    A    
C11   C23   A    
C35   C36   A    
C48   C68   A    
C53   C57   A    
C48   C52   A    
C2    C67   S    
O10   V2    S    
N2    C69   A    
C45   C49   A    
C59   C63   A    
N1    C70   A    
C54   C58   A    
O5    V1    S    
C61   C65   A    
C39   C43   A    
O7    V3    S    
C38   C42   A    
C26   C34   A    
C54   C69   S    
C52   H12   S    
C47   C67   A    
C33   C38   A    
C57   C61   A    
C61   I9    S    
O18   V4    S    
C23   C27   A    
C50   H10   S    
N8    C72   A    
N3    C72   A    
C1    C68   S    
O8    V4    S    
O5    C1    A    
C63   I11   S    
C46   C66   A    
N3    N7    A    
C45   C65   A    
C14   C30   A    
C21   C25   A    
C21   I2    S    
O8    C4    A    
C7    C10   S    
C3    C66   S    
O9    C5    A    
N6    C70   A    
N5    C69   A    
O6    V2    S    
C39   H3    S    
N7    C71   A    
C60   C64   A    
O14   V2    S    
C13   I5    S    
C12   C20   A    
C27   C35   A    
C57   H13   S    
C64   C68   A    
C29   C41   A    
O16   V4    S    
C37   H1    S    
C3    O13   A    
C14   I6    S    
C48   H8    S    
C43   F3    S    
O6    C2    A    
N4    C71   A    
C15   C19   A    
O11   V3    S    
C30   C42   A    
O12   V4    S    
C51   C55   A    
C22   C26   A    
C8    C9    S    
C50   C54   A    
C9    C17   A    
O10   C6    A    
O20   V2    S    
C49   C53   A    
C32   C44   A    
C24   I3    S    
C47   C51   A    
C33   C34   A    
C17   F6    S    
C25   C29   A    
C60   H16   S    
C62   C66   A    
C18   F5    S    
C27   C31   A    
C40   H4    S    
C37   C41   A    
C13   C17   A    
O4    V2    S    
C55   C59   A    
C64   I12   S    
C24   C28   A    
C53   C70   S    
C58   C62   A    
O12   C8    A    
C46   H6    S    
C4    O14   A    
C45   H5    S    
C55   C72   S    
C63   C67   A    
C52   C56   A    
C47   H7    S    
C49   H9    S    
C28   C32   A    
