data_mof_unit_26023.cif
_audit_creation_date              2012-12-10T20:44:40-0500
_audit_creation_method            fapswitch 2.2
_symmetry_space_group_name_H-M    P1
_symmetry_Int_Tables_number       1
_space_group_crystal_system       triclinic
_cell_length_a                    9.863882
_cell_length_b                    10.669947
_cell_length_c                    16.867065
_cell_angle_alpha                 88.802988
_cell_angle_beta                  94.648689
_cell_angle_gamma                 89.92448
_cell_volume                      1768.97565886

loop_
_atom_site_label
_atom_site_type_symbol
_atom_type_description
_atom_site_fract_x
_atom_site_fract_y
_atom_site_fract_z
_atom_type_partial_charge
C1    C     C_R   0.499647 0.259995 0.496605 0.875881
C2    C     C_R   0.610040 0.397111 0.774911 -0.262524
C3    C     C_R   0.573907 0.440656 0.141763 -0.192894
C4    C     C_R   0.583900 0.453251 0.222987 -0.206181
C5    C     C_R   0.449159 0.463797 0.096735 0.271416
C6    C     C_R   0.469829 0.487766 0.261123 -0.062584
C7    C     C_R   0.343816 0.506029 0.217728 -0.225809
C8    C     C_R   0.331745 0.494360 0.134831 0.096532
C9    C     C_R   0.617899 0.064319 0.473339 0.102915
C10   C     C_R   0.497293 0.129353 0.481457 -0.134934
C11   C     C_R   0.372602 0.065851 0.472841 -0.216694
C12   C     C_R   0.518051 0.500196 0.652744 0.864442
C13   C     C_R   0.372342 0.936284 0.472950 -0.237878
C14   C     C_R   0.496769 0.871808 0.483361 -0.097103
C15   C     C_R   0.617705 0.936314 0.476482 0.149854
C16   C     C_3   0.751255 0.928090 0.525162 -0.482440
C17   C     C_3   0.754685 0.070603 0.518907 -0.129264
C18   C     C_R   0.078079 0.420668 0.549893 0.206881
C19   C     C_R   0.065490 0.570263 0.446321 -0.184731
C20   C     C_R   0.921975 0.571044 0.446203 0.286661
C21   C     C_R   0.935749 0.421304 0.550149 0.118843
C22   C     C_3   0.941631 0.417863 0.638622 -0.490697
C23   C     C_R   0.499382 0.740157 0.497226 0.899330
C24   C     C_3   0.095584 0.417513 0.638634 -0.480383
C25   C     C_R   0.481941 0.499445 0.346822 0.901788
C26   C     C_R   0.531140 0.494468 0.738209 -0.039565
C27   C     C_R   0.463998 0.581208 0.783498 0.058192
C28   C     C_R   0.470169 0.561945 0.865538 -0.192850
C29   C     C_R   0.542844 0.459400 0.901672 0.301812
C30   C     C_R   0.616574 0.380329 0.856661 -0.197312
H1    H     H_    0.681429 0.436124 0.255823 0.185658
H2    H     H_    0.275772 0.887826 0.471871 0.175846
H3    H     H_    0.739904 0.892642 0.586760 0.173793
H4    H     H_    0.830898 0.879074 0.494809 0.234119
H5    H     H_    0.750438 0.115498 0.577646 0.148796
H6    H     H_    0.115047 0.629054 0.404390 0.172300
H7    H     H_    0.900634 0.504625 0.663317 0.221332
H8    H     H_    0.900295 0.328856 0.662039 0.190765
H9    H     H_    0.143105 0.504134 0.663454 0.210961
H10   H     H_    0.665463 0.416082 0.114259 0.160887
H11   H     H_    0.143184 0.328542 0.662470 0.198650
H12   H     H_    0.675759 0.303653 0.884821 0.144170
H13   H     H_    0.663393 0.331941 0.739915 0.148706
H14   H     H_    0.256788 0.531106 0.249094 0.158951
H15   H     H_    0.419983 0.627610 0.901731 0.142530
H16   H     H_    0.276299 0.114766 0.472528 0.169859
N1    N     N_2   0.548724 0.438398 0.984186 -0.202256
N2    N     N_2   0.441445 0.468928 0.012825 -0.211198
N3    N     N_R   0.142860 0.499130 0.500540 -0.123494
N4    N     N_R   0.857210 0.499170 0.500530 -0.127848
O1    O     O_R   0.614690 0.316790 0.499990 -0.629378
O2    O     O_R   0.385350 0.316760 0.500000 -0.616779
O3    O     O_R   0.627460 0.498860 0.616130 -0.625177
O4    O     O_R   0.398120 0.498820 0.616130 -0.619695
O5    O     O_R   0.614650 0.683240 0.500000 -0.581650
O6    O     O_R   0.385310 0.683210 0.500010 -0.629033
O7    O     O_R   0.601880 0.501180 0.383870 -0.575874
O8    O     O_R   0.372540 0.501140 0.383870 -0.633206
Zn1   Zn    Zn3+2 0.653130 0.500020 0.499990 0.968005
Zn2   Zn    Zn3+2 0.346870 0.499980 0.500010 0.938705
C31   C     C_3   0.867654 0.125970 0.470160 -0.365275
C32   C     C_3   0.868717 0.080834 0.383978 -0.304795
C33   C     C_3   0.978002 0.148771 0.340591 -0.894859
H17   H     H_    0.959054 0.251529 0.338735 0.260471
H18   H     H_    0.080178 0.129435 0.370962 0.260837
H19   H     H_    0.976281 0.115427 0.278597 0.259384
H20   H     H_    0.889407 0.978699 0.383209 0.249087
H21   H     H_    0.768673 0.099844 0.350736 0.230543
H22   H     H_    0.853685 0.228843 0.467382 0.221564
H23   H     H_    0.967931 0.105720 0.502906 0.191819
Br1   Br    Br    0.825011 0.681066 0.370656 -0.578859
C34   C     C_3   0.197719 0.515827 0.084686 -0.418824
C35   C     C_3   0.073457 0.543585 0.131094 -0.357461
C36   C     C_3   0.944605 0.559126 0.075171 -0.853464
H24   H     H_    0.956862 0.636918 0.031557 0.261005
H25   H     H_    0.921758 0.471101 0.042737 0.256044
H26   H     H_    0.857469 0.581451 0.110238 0.261686
H27   H     H_    0.057553 0.465133 0.173756 0.227639
H28   H     H_    0.090307 0.631742 0.164437 0.233904
H29   H     H_    0.211334 0.595451 0.042487 0.206946
H30   H     H_    0.175564 0.430572 0.049120 0.211614
C37   C     C_3   0.390645 0.696344 0.747088 -0.434959
C38   C     C_3   0.491761 0.793416 0.718664 -0.338969
C39   C     C_3   0.418794 0.912482 0.686705 -0.880225
H31   H     H_    0.340128 0.889711 0.638356 0.270188
H32   H     H_    0.369440 0.959358 0.735074 0.258894
H33   H     H_    0.493310 0.978126 0.662601 0.247977
H34   H     H_    0.566027 0.818180 0.768997 0.223726
H35   H     H_    0.549017 0.754124 0.670870 0.209657
H36   H     H_    0.316929 0.669751 0.697169 0.217328
H37   H     H_    0.329833 0.740860 0.791654 0.198224

loop_
_geom_bond_atom_site_label_1
_geom_bond_atom_site_label_2
_ccdc_geom_bond_type
C31   H23   S    
C33   H18   S    
O5    Zn1   S    
C18   C21   A    
C35   C36   S    
C13   H2    S    
C19   C20   A    
C39   H33   S    
O3    Zn1   S    
C7    C8    A    
O4    Zn2   S    
C26   C27   A    
C32   C33   S    
N3    Zn2   S    
C36   H25   S    
C32   H20   S    
C29   N1    S    
C18   C24   S    
N4    Zn1   S    
C28   C29   A    
C39   H32   S    
C19   H6    S    
O7    Zn1   S    
C6    C25   S    
O8    Zn2   S    
C15   C16   S    
C22   H8    S    
C24   H9    S    
C20   N4    A    
O2    Zn2   S    
C17   C31   S    
N1    N2    D    
C16   C17   S    
C36   H26   S    
C35   H27   S    
C20   Br1   S    
C9    C10   A    
C12   O3    A    
C16   H4    S    
C38   H34   S    
C33   H19   S    
C21   C22   S    
C24   H11   S    
C25   O7    A    
C21   N4    A    
C38   H35   S    
C5    N2    S    
C28   H15   S    
C8    C34   S    
C36   H24   S    
C23   O6    A    
C39   H31   S    
C4    C6    A    
C22   H7    S    
C37   H37   S    
O6    Zn2   S    
C12   C26   S    
C14   C23   S    
C29   C30   A    
C16   H3    S    
C19   N3    A    
C38   C39   S    
C2    H13   S    
C35   H28   S    
C2    C26   A    
C7    H14   S    
C1    O1    A    
C9    C17   S    
C3    H10   S    
C22   C24   S    
O1    Zn1   S    
C25   O8    A    
C3    C4    A    
C31   H22   S    
C27   C37   S    
C1    C10   S    
C34   H30   S    
C34   C35   S    
C3    C5    A    
C5    C8    A    
C23   O5    A    
C6    C7    A    
C37   H36   S    
C32   H21   S    
C2    C30   A    
C9    C15   A    
C34   H29   S    
C11   C13   A    
C31   C32   S    
C1    O2    A    
C4    H1    S    
C10   C11   A    
C33   H17   S    
C37   C38   S    
C27   C28   A    
C14   C15   A    
C30   H12   S    
C11   H16   S    
C17   H5    S    
C13   C14   A    
C12   O4    A    
C18   N3    A    
