data_mof_unit_9154.cif
_audit_creation_date              2012-12-10T22:11:12-0500
_audit_creation_method            fapswitch 2.2
_symmetry_space_group_name_H-M    P1
_symmetry_Int_Tables_number       1
_space_group_crystal_system       triclinic
_cell_length_a                    12.117572
_cell_length_b                    12.285578
_cell_length_c                    23.026808
_cell_angle_alpha                 90.165589
_cell_angle_beta                  90.396105
_cell_angle_gamma                 90.613677
_cell_volume                      3427.73898777

loop_
_atom_site_label
_atom_site_type_symbol
_atom_type_description
_atom_site_fract_x
_atom_site_fract_y
_atom_site_fract_z
_atom_type_partial_charge
C1    C     C_R   0.657770 0.997615 0.579082 0.894873
C2    C     C_R   0.343605 0.002457 0.420185 0.886251
C3    C     C_R   0.892353 0.804178 0.131648 0.450268
C4    C     C_R   0.109481 0.224984 0.852616 0.453911
C5    C     C_R   0.090902 0.854394 0.190081 -0.190536
C6    C     C_R   0.910302 0.117571 0.824889 -0.166097
C7    C     C_R   0.088632 0.774768 0.147877 -0.277722
C8    C     C_R   0.912276 0.196908 0.867300 -0.276434
C9    C     C_R   0.898584 0.155805 0.192383 -0.184213
C10   C     C_R   0.099313 0.873363 0.823966 -0.163070
C11   C     C_R   0.900055 0.239181 0.152234 -0.191085
C12   C     C_R   0.099387 0.789832 0.863910 -0.192337
C13   C     C_R   0.120114 0.908363 0.319280 -0.160392
C14   C     C_R   0.851604 0.092936 0.695598 -0.187132
C15   C     C_R   0.201744 0.908648 0.361396 -0.278616
C16   C     C_R   0.770596 0.091925 0.653092 -0.272081
C17   C     C_R   0.879105 0.099414 0.321008 -0.279629
C18   C     C_R   0.153660 0.898548 0.695900 -0.305207
C19   C     C_R   0.799753 0.101153 0.364423 0.455937
C20   C     C_R   0.236140 0.897508 0.654086 0.457488
C21   C     C_3   0.996303 0.003736 0.247461 -0.038686
C22   C     C_3   0.003644 0.996392 0.752428 -0.039147
C23   C     C_R   0.655770 0.002248 0.421026 0.895198
C24   C     C_R   0.345878 0.997661 0.579821 0.886775
C25   C     C_R   0.095613 0.003748 0.288445 0.080280
C26   C     C_R   0.905492 0.996343 0.710855 0.079511
C27   C     C_R   0.259105 0.004965 0.374960 -0.074165
C28   C     C_R   0.743956 0.995393 0.623414 -0.073787
C29   C     C_R   0.899733 0.003921 0.289274 0.084913
C30   C     C_R   0.101183 0.995964 0.711159 0.086349
C31   C     C_R   0.741034 0.004433 0.376870 -0.074111
C32   C     C_R   0.262585 0.995132 0.624968 -0.074911
C33   C     C_R   0.996463 0.100704 0.206500 0.131978
C34   C     C_R   0.002118 0.899536 0.793461 0.131122
C35   C     C_R   0.998432 0.266909 0.124258 -0.021763
C36   C     C_R   0.001277 0.733656 0.875935 -0.024207
C37   C     C_R   0.993605 0.907569 0.205805 0.078930
C38   C     C_R   0.006256 0.092722 0.793985 0.077133
C39   C     C_R   0.990028 0.748378 0.118721 -0.074780
C40   C     C_R   0.010866 0.251890 0.881101 -0.077326
C41   C     C_R   0.992368 0.662401 0.075159 0.900985
C42   C     C_R   0.007755 0.338065 0.924558 0.899303
C43   C     C_R   0.998968 0.351849 0.080900 0.854119
C44   C     C_R   0.000983 0.648357 0.919168 0.864190
C45   C     C_R   0.150681 0.101210 0.303767 -0.303204
C46   C     C_R   0.881357 0.900596 0.679384 -0.277344
C47   C     C_R   0.234058 0.102439 0.345755 0.456833
C48   C     C_R   0.800531 0.898637 0.636105 0.455540
C49   C     C_R   0.844074 0.907266 0.304460 -0.184118
C50   C     C_R   0.126940 0.091472 0.680409 -0.156648
C51   C     C_R   0.764414 0.908086 0.347023 -0.274203
C52   C     C_R   0.207584 0.091367 0.638425 -0.280634
C53   C     C_R   0.093456 0.125800 0.175692 -0.161594
C54   C     C_R   0.902804 0.845908 0.808088 -0.184167
C55   C     C_R   0.095034 0.209664 0.135902 -0.196678
C56   C     C_R   0.902841 0.762567 0.848275 -0.185974
C57   C     C_R   0.895586 0.884329 0.174742 -0.278412
C58   C     C_R   0.106453 0.143944 0.810039 -0.299513
H1    H     H_    0.863484 0.829895 0.284734 0.155633
H2    H     H_    0.083374 0.166393 0.688634 0.154636
H3    H     H_    0.168454 0.080450 0.182785 0.141875
H4    H     H_    0.824342 0.869244 0.789551 0.144099
H5    H     H_    0.170094 0.875692 0.209082 0.155640
H6    H     H_    0.833416 0.074506 0.816396 0.152401
H7    H     H_    0.820069 0.133549 0.211234 0.144417
H8    H     H_    0.175652 0.917592 0.816542 0.142836
H9    H     H_    0.074624 0.833460 0.311143 0.154528
H10   H     H_    0.873554 0.170369 0.715151 0.156676
H11   H     H_    0.721791 0.832496 0.356901 0.185614
H12   H     H_    0.225360 0.166591 0.615738 0.186739
H13   H     H_    0.171166 0.227914 0.113369 0.163445
H14   H     H_    0.825517 0.721880 0.858173 0.163897
H15   H     H_    0.165242 0.734375 0.137858 0.184636
H16   H     H_    0.836088 0.214459 0.889632 0.184681
H17   H     H_    0.823858 0.281041 0.142670 0.162076
H18   H     H_    0.175889 0.770758 0.886060 0.164402
H19   H     H_    0.218403 0.833464 0.384133 0.186218
H20   H     H_    0.729565 0.167561 0.643075 0.185444
H21   H     H_    0.127231 0.177743 0.284505 0.139439
H22   H     H_    0.927210 0.827217 0.688144 0.137690
O1    O     O_R   0.621380 0.090460 0.561410 -0.642629
O2    O     O_R   0.378620 0.909540 0.438590 -0.648970
O3    O     O_R   0.617150 0.909540 0.438590 -0.642703
O4    O     O_R   0.382850 0.090460 0.561410 -0.648832
O5    O     O_R   0.619720 0.093230 0.440890 -0.550383
O6    O     O_R   0.380280 0.906770 0.559110 -0.553614
O7    O     O_R   0.618800 0.906770 0.559110 -0.550274
O8    O     O_R   0.381200 0.093230 0.440890 -0.553736
O9    O     O_R   0.087590 0.627480 0.058790 -0.647457
O10   O     O_R   0.912410 0.372520 0.941210 -0.645990
O11   O     O_R   0.905660 0.383870 0.059980 -0.630076
O12   O     O_R   0.094340 0.616130 0.940020 -0.626211
O13   O     O_R   0.092570 0.390420 0.063230 -0.630654
O14   O     O_R   0.907430 0.609580 0.936770 -0.624630
O15   O     O_R   0.900680 0.620930 0.055550 -0.553602
O16   O     O_R   0.099320 0.379070 0.944450 -0.550177
Zn1   Zn    Zn3+2 0.501730 0.123520 0.501540 1.033681
Zn2   Zn    Zn3+2 0.498270 0.876480 0.498460 1.033716
Zn3   Zn    Zn3+2 0.125690 0.504390 0.002180 0.988106
Zn4   Zn    Zn3+2 0.874310 0.495610 0.997820 0.987650
O17   O     O_3   0.290837 0.197733 0.358876 -0.748284
H23   H     H_    0.263456 0.257483 0.333943 0.326915
O18   O     O_3   0.778200 0.804321 0.605068 -0.744532
H24   H     H_    0.825410 0.744803 0.619734 0.328660
H25   H     H_    0.821665 0.929957 0.183790 0.135915
H26   H     H_    0.183378 0.119565 0.790662 0.139257
H27   H     H_    0.926495 0.172722 0.312338 0.137570
H28   H     H_    0.129004 0.822030 0.715163 0.140238
O19   O     O_3   0.796131 0.781529 0.101154 -0.752436
H29   H     H_    0.736155 0.828193 0.115919 0.326344
O20   O     O_3   0.207307 0.277950 0.866780 -0.753092
H30   H     H_    0.267591 0.249571 0.842276 0.326199
O21   O     O_3   0.780874 0.195214 0.395792 -0.744396
H31   H     H_    0.829186 0.254696 0.381258 0.328532
O22   O     O_3   0.290775 0.802294 0.641095 -0.747169
H32   H     H_    0.262643 0.742481 0.665953 0.328076

loop_
_geom_bond_atom_site_label_1
_geom_bond_atom_site_label_2
_ccdc_geom_bond_type
C16   C28   A    
C57   H25   S    
C52   H12   S    
C1    O7    A    
O17   H23   S    
C47   O17   S    
C5    C37   A    
C17   C29   A    
C41   O9    A    
O20   H30   S    
C19   C31   A    
C7    H15   S    
C29   C49   A    
C10   H8    S    
C23   O3    A    
O9    Zn3   S    
C42   O16   A    
O4    Zn1   S    
C17   H27   S    
C20   C32   A    
C21   C33   S    
C19   O21   S    
C1    O1    A    
O22   H32   S    
C22   C38   S    
O16   Zn3   S    
C5    H5    S    
C6    H6    S    
C32   C52   A    
C43   O13   A    
C38   C58   A    
C53   H3    S    
C4    C40   A    
C56   H14   S    
O3    Zn2   S    
C1    C28   S    
C50   C52   A    
C6    C38   A    
C2    O8    A    
C2    C27   S    
C18   C30   A    
O11   Zn4   S    
C12   C36   A    
C35   C43   S    
O13   Zn3   S    
C16   H20   S    
O8    Zn1   S    
C44   O12   A    
C36   C44   S    
O7    Zn2   S    
C18   H28   S    
C45   C47   A    
C30   C50   A    
C3    C39   A    
C15   H19   S    
C9    C33   A    
O2    Zn2   S    
C13   C25   A    
O10   Zn4   S    
C54   C56   A    
C53   C55   A    
C33   C53   A    
C22   C34   S    
C46   C48   A    
C35   C55   A    
C44   O14   A    
C39   C41   S    
C5    C7    A    
O15   Zn4   S    
C6    C8    A    
C54   H4    S    
C49   C51   A    
C48   O18   S    
C21   C29   S    
C43   O11   A    
C58   H26   S    
C23   C31   S    
C55   H13   S    
C24   C32   S    
C36   C56   A    
C15   C27   A    
O14   Zn4   S    
C8    H16   S    
C10   C34   A    
C14   C26   A    
C9    C11   A    
C45   H21   S    
C10   C12   A    
C3    C57   A    
C4    O20   S    
C34   C54   A    
C13   C15   A    
C23   O5    A    
C14   C16   A    
C2    O2    A    
C25   C45   A    
O21   H31   S    
C13   H9    S    
C27   C47   A    
C21   C25   S    
C28   C48   A    
C14   H10   S    
C22   C30   S    
C31   C51   A    
C40   C42   S    
C20   O22   S    
C51   H11   S    
C49   H1    S    
C50   H2    S    
C12   H18   S    
C24   O4    A    
C11   H17   S    
O19   H29   S    
C46   H22   S    
C41   O15   A    
O1    Zn1   S    
C3    O19   S    
C11   C35   A    
C17   C19   A    
C18   C20   A    
O6    Zn2   S    
C9    H7    S    
O5    Zn1   S    
C26   C46   A    
C21   C37   S    
C22   C26   S    
C4    C58   A    
O18   H24   S    
C7    C39   A    
C8    C40   A    
C42   O10   A    
C24   O6    A    
C37   C57   A    
O12   Zn3   S    
