data_mof_unit_66105.cif
_audit_creation_date              2013-03-05T16:03:45-0500
_audit_creation_method            fapswitch 2.2
_symmetry_space_group_name_H-M    P1
_symmetry_Int_Tables_number       1
_space_group_crystal_system       triclinic
_cell_length_a                    22.320901
_cell_length_b                    22.37029
_cell_length_c                    22.417996
_cell_angle_alpha                 59.204151
_cell_angle_beta                  119.862438
_cell_angle_gamma                 90.704598
_cell_volume                      7884.09628502

loop_
_atom_site_label
_atom_site_type_symbol
_atom_site_description
_atom_site_fract_x
_atom_site_fract_y
_atom_site_fract_z
_atom_type_partial_charge
O1    O     O_R   0.592630 0.447740 0.499990 -0.598189
O2    O     O_R   0.592590 0.552250 0.500040 -0.548961
C1    C     C_R   0.619613 0.500353 0.500262 1.007538
O3    O     O_R   0.438420 0.509360 0.376750 -0.621659
O4    O     O_R   0.438370 0.613870 0.376810 -0.561771
C2    C     C_R   0.419240 0.580887 0.338763 0.863971
Zn1   Zn    Zn3+2 0.500030 0.430220 0.499960 1.103986
Zn2   Zn    Zn3+2 0.499970 0.569780 0.500040 1.234493
O5    O     O_R   0.407410 0.447750 0.499960 -0.596394
O6    O     O_R   0.407370 0.552260 0.500010 -0.561941
O7    O     O_R   0.561630 0.386130 0.623190 -0.622731
O8    O     O_R   0.561580 0.490640 0.623250 -0.561955
C3    C     C_R   0.378368 0.501274 0.496059 0.957446
C4    C     C_R   0.580671 0.419081 0.661268 0.934043
C5    C     C_3   0.272821 0.724096 0.971771 0.095753
C6    C     C_3   0.317750 0.751006 0.025714 0.297384
C7    C     C_1   0.374924 0.626067 0.249781 -0.009452
C8    C     C_1   0.124353 0.875444 0.750211 -0.022352
C9    C     C_3   0.246469 0.683036 0.029747 -0.230871
C10   C     C_3   0.292115 0.710617 0.083531 -0.092395
C11   C     C_3   0.179838 0.753571 0.972823 -0.213540
C12   C     C_3   0.207401 0.793559 0.916275 0.067631
C13   C     C_3   0.226691 0.780030 0.027061 0.299719
C14   C     C_3   0.252736 0.821031 0.969640 -0.069465
C15   C     C_1   0.337517 0.664378 0.174545 0.126166
C16   C     C_1   0.161689 0.838301 0.825377 0.044680
H1    H     H_    0.122356 0.755855 0.950073 0.200790
H2    H     H_    0.244695 0.625965 0.055180 0.202178
C17   C     C_3   0.740145 0.418992 0.561635 -0.210367
H3    H     H_    0.719333 0.400352 0.521575 0.261194
C18   C     C_3   0.819811 0.417092 0.583453 0.418134
C19   C     C_3   0.662559 0.537757 0.406511 0.344801
C20   C     C_3   0.729639 0.543351 0.543908 0.285590
C21   C     C_3   0.686425 0.501478 0.502015 -0.397088
C22   C     C_3   0.809404 0.499501 0.506332 -0.346976
C23   C     C_3   0.736489 0.524389 0.411647 0.104017
C24   C     C_3   0.793295 0.556432 0.527177 0.222772
C25   C     C_3   0.751056 0.178611 0.029422 -0.171204
C26   C     C_3   0.682374 0.246256 0.972675 0.027071
H4    H     H_    0.752459 0.120714 0.054414 0.201283
C27   C     C_1   0.625432 0.373975 0.750297 -0.040598
C28   C     C_1   0.875431 0.124720 0.249531 -0.039635
C29   C     C_3   0.776939 0.224244 0.972416 0.177882
C30   C     C_3   0.708644 0.290635 0.916609 0.099257
C31   C     C_3   0.818826 0.251830 0.027355 -0.181499
C32   C     C_3   0.791826 0.207411 0.083163 -0.006369
C33   C     C_3   0.749366 0.319392 0.970332 -0.240586
C34   C     C_3   0.723698 0.273657 0.026981 0.338132
C35   C     C_1   0.663197 0.336140 0.825547 0.027925
C36   C     C_1   0.837772 0.161997 0.174233 0.078599
H5    H     H_    0.747493 0.377378 0.945379 0.206494
H6    H     H_    0.875643 0.252883 0.050996 0.195262
C37   C     C_3   0.245179 0.515394 0.410737 -0.175062
H7    H     H_    0.233467 0.574369 0.366334 0.219781
C38   C     C_3   0.174428 0.508509 0.411611 0.345945
C39   C     C_3   0.328856 0.417993 0.574695 0.376475
C40   C     C_3   0.291260 0.560109 0.504069 -0.042549
C41   C     C_3   0.311812 0.498232 0.496238 -0.341684
H8    H     H_    0.335243 0.537982 0.570036 0.209697
C42   C     C_3   0.192018 0.499296 0.498049 -0.336030
C43   C     C_3   0.262455 0.421419 0.585440 0.127981
C44   C     C_3   0.217353 0.568920 0.495380 0.303523
O9    O     O_R   0.052240 0.907300 0.499970 -0.628384
O10   O     O_R   0.947670 0.907410 0.499960 -0.554898
C45   C     C_R   0.999875 0.880804 0.499043 1.039484
O11   O     O_R   0.113890 0.938270 0.623230 -0.614425
O12   O     O_R   0.009320 0.938380 0.623210 -0.587889
C46   C     C_R   0.080415 0.919622 0.661265 0.995182
Zn3   Zn    Zn3+2 0.069820 0.999850 0.500010 1.104367
Zn4   Zn    Zn3+2 0.930180 0.000000 0.499990 1.110572
O13   O     O_R   0.052330 0.092440 0.500040 -0.560674
O14   O     O_R   0.947760 0.092550 0.500030 -0.655056
O15   O     O_R   0.990680 0.061470 0.376790 -0.592398
O16   O     O_R   0.886110 0.061580 0.376770 -0.605852
C47   C     C_R   0.000680 0.119301 0.501127 0.941808
C48   C     C_R   0.919539 0.080679 0.338633 0.891322
O17   O     O_R   0.034860 0.372650 0.569600 -0.564363
O18   O     O_R   0.965300 0.442140 0.430470 -0.591861
C49   C     C_R   0.008054 0.377049 0.501322 0.932184
O19   O     O_R   0.942170 0.465260 0.569550 -0.525913
O20   O     O_R   0.872610 0.534760 0.430420 -0.626568
C50   C     C_R   0.877675 0.500233 0.501498 1.012945
Zn5   Zn    Zn3+2 0.046440 0.453600 0.592900 1.270147
Zn6   Zn    Zn3+2 0.953560 0.546400 0.407100 1.120235
O21   O     O_R   0.034700 0.557860 0.569530 -0.528692
O22   O     O_R   0.965140 0.627350 0.430400 -0.583435
O23   O     O_R   0.127390 0.465250 0.569580 -0.564294
O24   O     O_R   0.057830 0.534740 0.430450 -0.591175
C51   C     C_R   0.001414 0.622716 0.500438 0.910179
C52   C     C_R   0.122566 0.499756 0.499485 1.062655
C53   C     C_3   0.086475 0.773888 0.534067 0.205336
C54   C     C_3   0.087947 0.698730 0.538732 0.253428
C55   C     C_3   0.982522 0.758513 0.567782 0.294358
C56   C     C_3   0.945388 0.834960 0.410803 -0.013272
C57   C     C_3   0.004473 0.812586 0.503339 -0.306862
H9    H     H_    0.895167 0.852735 0.399979 0.229046
C58   C     C_3   0.005565 0.691829 0.503530 -0.275336
C59   C     C_3   0.989178 0.684435 0.570966 0.041900
C60   C     C_3   0.944682 0.766989 0.405593 0.218263
C61   C     C_3   0.086738 0.165164 0.583040 0.366272
C62   C     C_3   0.093612 0.242422 0.571237 0.096103
H10   H     H_    0.027906 0.241347 0.411185 0.274593
C63   C     C_3   0.986144 0.250334 0.420841 -0.557784
C64   C     C_3   0.941381 0.204273 0.517002 0.334467
C65   C     C_3   0.004211 0.182802 0.507255 -0.165633
C66   C     C_3   0.010596 0.304023 0.506596 -0.191824
C67   C     C_3   0.974925 0.322728 0.413722 0.079754
C68   C     C_3   0.957460 0.266827 0.533599 0.180369
H11   H     H_    0.936401 0.255647 0.366604 0.195041
H12   H     H_    0.915908 0.347064 0.377558 0.159548
N1    N     N_R   0.392380 0.750227 0.052848 0.231404
O25   O     O_R   0.406427 0.787081 0.996608 -0.329005
O26   O     O_R   0.445155 0.713034 0.132884 -0.273544
N2    N     N_R   0.849703 0.357122 0.586097 0.158077
O27   O     O_R   0.821866 0.304149 0.593596 -0.446232
O28   O     O_R   0.918188 0.341042 0.616298 -0.402888
N3    N     N_R   0.612815 0.506062 0.364020 0.207664
O29   O     O_R   0.613041 0.438573 0.403620 -0.378930
O30   O     O_R   0.572121 0.545442 0.281543 -0.312948
C69   C     C_3   0.745029 0.462415 0.399514 -0.802311
H13   H     H_    0.794071 0.456093 0.400246 0.224590
H14   H     H_    0.746090 0.408193 0.443077 0.270886
H15   H     H_    0.700021 0.477755 0.336020 0.280141
N4    N     N_R   0.685850 0.615186 0.513648 0.275903
O31   O     O_R   0.628815 0.662812 0.437253 -0.236778
O32   O     O_R   0.704650 0.631920 0.566958 -0.210538
N5    N     N_R   0.755593 0.493733 0.635868 0.225898
O33   O     O_R   0.706489 0.482910 0.652107 -0.398994
O34   O     O_R   0.819240 0.480054 0.699314 -0.205607
N6    N     N_R   0.855403 0.549410 0.601437 0.208000
O35   O     O_R   0.922210 0.514502 0.638032 -0.297594
O36   O     O_R   0.844097 0.589467 0.623592 -0.259967
N7    N     N_R   0.773726 0.632820 0.455577 0.210974
O37   O     O_R   0.812249 0.644147 0.425176 -0.403504
O38   O     O_R   0.747349 0.689042 0.449043 -0.212829
N8    N     N_R   0.616872 0.616255 0.352460 0.236621
O39   O     O_R   0.638256 0.672412 0.323518 -0.279547
O40   O     O_R   0.548883 0.630714 0.327335 -0.302079
C70   C     C_3   0.725039 0.591087 0.326496 -0.490742
H16   H     H_    0.758994 0.577743 0.309137 0.214868
H17   H     H_    0.668778 0.607355 0.271766 0.243178
H18   H     H_    0.731317 0.642315 0.318885 0.306281
C71   C     C_3   0.604796 0.244096 0.940864 -0.662949
H19   H     H_    0.601446 0.208634 0.995534 0.255163
H20   H     H_    0.566429 0.300580 0.900343 0.277556
H21   H     H_    0.589414 0.221457 0.903215 0.257911
C72   C     C_3   0.298718 0.692639 0.939314 -0.711337
H22   H     H_    0.347513 0.642794 0.993649 0.261639
H23   H     H_    0.254547 0.677736 0.902323 0.255462
H24   H     H_    0.313060 0.734264 0.898029 0.258072
N9    N     N_R   0.693376 0.301642 0.055762 0.224818
O41   O     O_R   0.635475 0.359677 0.000579 -0.322238
O42   O     O_R   0.723945 0.269491 0.136146 -0.364571
C73   C     C_3   0.806850 0.196871 0.939799 -0.776696
H25   H     H_    0.856824 0.148233 0.994088 0.261412
H26   H     H_    0.765204 0.181146 0.901493 0.244277
H27   H     H_    0.820504 0.241086 0.899794 0.262689
C74   C     C_3   0.259926 0.490915 0.364247 -0.628066
H28   H     H_    0.296797 0.517571 0.347753 0.187169
H29   H     H_    0.285399 0.431169 0.400953 0.312071
H30   H     H_    0.208875 0.510410 0.302408 0.246901
C75   C     C_3   0.110501 0.577583 0.321461 -0.617848
H31   H     H_    0.101823 0.570494 0.272465 0.222325
H32   H     H_    0.056548 0.584432 0.311099 0.291401
H33   H     H_    0.121499 0.630600 0.301277 0.248927
N10   N     N_R   0.150268 0.447294 0.410075 0.246763
O43   O     O_R   0.162547 0.422560 0.374482 -0.293606
O44   O     O_R   0.089966 0.444597 0.404795 -0.391877
N11   N     N_R   0.337230 0.362587 0.558293 0.254046
O45   O     O_R   0.282388 0.346297 0.517579 -0.321192
O46   O     O_R   0.402065 0.321099 0.594871 -0.267787
C76   C     C_3   0.255681 0.899049 0.935201 -0.577751
H34   H     H_    0.292837 0.902517 0.988584 0.258407
H35   H     H_    0.276139 0.914039 0.894963 0.268658
H36   H     H_    0.200138 0.938030 0.896563 0.273296
N12   N     N_R   0.242430 0.353316 0.605575 0.231989
O47   O     O_R   0.188045 0.348843 0.612364 -0.373911
O48   O     O_R   0.294498 0.290664 0.656146 -0.244774
N13   N     N_R   0.298128 0.632254 0.453441 0.294411
O49   O     O_R   0.335559 0.661895 0.490789 -0.251264
O50   O     O_R   0.270135 0.666266 0.373213 -0.336025
N14   N     N_R   0.161622 0.641938 0.416921 0.188420
O51   O     O_R   0.092312 0.650212 0.378243 -0.467793
O52   O     O_R   0.177400 0.702275 0.401362 -0.299057
N15   N     N_R   0.233855 0.569352 0.567598 0.153070
O53   O     O_R   0.200673 0.542183 0.603787 -0.378735
O54   O     O_R   0.279970 0.600596 0.594326 -0.304498
N16   N     N_R   0.400463 0.394079 0.655210 0.175800
O55   O     O_R   0.429162 0.325505 0.720608 -0.309619
O56   O     O_R   0.438238 0.437659 0.662456 -0.437748
C77   C     C_3   0.292740 0.414263 0.669854 -0.550252
H37   H     H_    0.331640 0.358361 0.725986 0.265891
H38   H     H_    0.324062 0.451438 0.677307 0.243863
H39   H     H_    0.251088 0.416622 0.682136 0.288629
C78   C     C_3   0.148161 0.759340 0.621270 -0.613088
H40   H     H_    0.152152 0.712415 0.676476 0.284001
H41   H     H_    0.203073 0.749377 0.633706 0.248572
H42   H     H_    0.144210 0.806198 0.624925 0.241450
C79   C     C_3   0.111039 0.825584 0.474946 -0.651443
H43   H     H_    0.124542 0.872378 0.476915 0.269143
H44   H     H_    0.164768 0.795786 0.496568 0.222675
H45   H     H_    0.072927 0.846819 0.408274 0.252559
C80   C     C_3   0.111517 0.697297 0.485825 -0.664911
H46   H     H_    0.169667 0.691286 0.515134 0.309499
H47   H     H_    0.101691 0.650404 0.483590 0.258524
H48   H     H_    0.089696 0.745173 0.422574 0.228855
N17   N     N_R   0.200311 0.811640 0.055946 0.232143
O57   O     O_R   0.142977 0.870217 0.000919 -0.326881
O58   O     O_R   0.233285 0.781589 0.136304 -0.324887
N18   N     N_R   0.148555 0.633829 0.626291 0.268770
O59   O     O_R   0.215391 0.635326 0.659098 -0.307854
O60   O     O_R   0.143852 0.568149 0.660594 -0.226134
N19   N     N_R   0.031857 0.742583 0.653841 0.234672
O61   O     O_R   0.025233 0.695377 0.714313 -0.229660
O62   O     O_R   0.059317 0.791116 0.662973 -0.471625
N20   N     N_R   0.043334 0.617325 0.660340 0.288560
O63   O     O_R   0.103116 0.617841 0.716028 -0.297659
O64   O     O_R   0.032238 0.554163 0.687235 -0.224775
N21   N     N_R   0.936190 0.903900 0.336955 0.192012
O65   O     O_R   0.876774 0.931489 0.262171 -0.340182
O66   O     O_R   0.975868 0.945898 0.344351 -0.405288
C81   C     C_3   0.958343 0.783781 0.336666 -0.618306
H49   H     H_    0.982015 0.734071 0.346356 0.259244
H50   H     H_    0.906139 0.814464 0.272570 0.279645
H51   H     H_    0.989573 0.821831 0.325872 0.214876
N22   N     N_R   0.868671 0.761799 0.368212 0.232826
O67   O     O_R   0.814275 0.807431 0.346968 -0.281652
O68   O     O_R   0.849603 0.729655 0.329880 -0.290733
N23   N     N_R   0.907036 0.790196 0.542700 0.207175
O69   O     O_R   0.892508 0.760434 0.599318 -0.248026
O70   O     O_R   0.853728 0.846315 0.468410 -0.332497
C82   C     C_3   0.916619 0.671130 0.546900 -0.530233
H52   H     H_    0.912898 0.655810 0.599476 0.312642
H53   H     H_    0.867992 0.718365 0.490037 0.285013
H54   H     H_    0.916619 0.626666 0.539678 0.253483
N24   N     N_R   0.146056 0.132863 0.583941 0.229720
O71   O     O_R   0.205184 0.080729 0.656065 -0.246195
O72   O     O_R   0.144576 0.157679 0.516315 -0.382782
N25   N     N_R   0.098274 0.105731 0.664851 0.166369
O73   O     O_R   0.144599 0.097293 0.735728 -0.302976
O74   O     O_R   0.085396 0.045989 0.673124 -0.448249
N26   N     N_R   0.144832 0.227173 0.656461 0.286967
O75   O     O_R   0.213073 0.187517 0.702361 -0.215566
O76   O     O_R   0.127826 0.253223 0.687927 -0.315163
C83   C     C_3   0.134812 0.273996 0.528680 -0.516244
H55   H     H_    0.114431 0.277973 0.471167 0.264007
H56   H     H_    0.131104 0.328657 0.512025 0.266434
H57   H     H_    0.193765 0.242047 0.570218 0.298444
N27   N     N_R   0.991762 0.379893 0.356860 0.258518
O77   O     O_R   0.949785 0.447898 0.307557 -0.306610
O78   O     O_R   0.024913 0.363456 0.330493 -0.310946
C84   C     C_3   0.861640 0.231802 0.434450 -0.787234
H58   H     H_    0.847822 0.282500 0.375050 0.219233
H59   H     H_    0.849623 0.191596 0.419250 0.266191
H60   H     H_    0.818380 0.242222 0.442267 0.245015
C85   C     C_3   0.935053 0.138890 0.587857 -0.715924
H61   H     H_    0.892809 0.161475 0.590161 0.223478
H62   H     H_    0.914430 0.098416 0.575976 0.267957
H63   H     H_    0.984453 0.107312 0.652926 0.261522
C86   C     C_3   0.990879 0.233828 0.628335 -0.595095
H64   H     H_    0.037585 0.184018 0.673709 0.242140
H65   H     H_    0.010658 0.270938 0.645262 0.318049
H66   H     H_    0.950855 0.219719 0.644582 0.269200
C87   C     C_3   0.884082 0.326992 0.483024 -0.790473
H67   H     H_    0.848607 0.302695 0.503123 0.292193
H68   H     H_    0.894452 0.370260 0.492565 0.256072
H69   H     H_    0.850476 0.356924 0.413686 0.206964
C88   C     C_3   0.734204 0.355819 0.633139 -0.585491
H70   H     H_    0.730431 0.370025 0.671747 0.258117
H71   H     H_    0.686799 0.337808 0.607817 0.235176
H72   H     H_    0.780661 0.304353 0.676109 0.283289
N28   N     N_R   0.872556 0.396515 0.671746 0.276138
O79   O     O_R   0.860794 0.359139 0.729926 -0.327725
O80   O     O_R   0.941656 0.385795 0.702458 -0.206148

loop_
_geom_bond_atom_site_label_1
_geom_bond_atom_site_label_2
_geom_bond_distance
_ccdc_geom_bond_type
C30   C35   1.438051 S    
C71   H21   1.109761 S    
O11   C46   1.312223 A    
C80   H46   1.095022 S    
O9    C45   1.299741 A    
C64   C84   1.597461 S    
N7    O37   1.292066 A    
C39   N11   1.499068 S    
C70   H17   1.111094 S    
N11   O45   1.296641 A    
C37   C38   1.593674 S    
C54   N18   1.508887 S    
N25   O73   1.300397 A    
C8    C16   1.187138 T    
C19   N3    1.503944 S    
C62   C83   1.556454 S    
N3    O30   1.303506 A    
C77   H38   1.104499 S    
N2    O27   1.304040 A    
N15   O53   1.287841 A    
C62   C66   1.666278 S    
C40   C44   1.564242 S    
C31   C32   1.542395 S    
C24   N6    1.468761 S    
Zn1   O7    1.988923 S    
C80   H47   1.090056 S    
C61   C65   1.627954 S    
N23   O69   1.303347 A    
O16   C48   1.312897 A    
C19   C23   1.616621 S    
C42   C44   1.632734 S    
C67   H12   1.091391 S    
C72   H23   1.109831 S    
Zn6   O22   2.107490 S    
C43   C77   1.575532 S    
N4    O32   1.303591 A    
O19   Zn5   2.102550 S    
O4    C2    1.314608 A    
C70   H18   1.087053 S    
C71   H19   1.109616 S    
N15   O54   1.305366 A    
O11   Zn3   1.981602 S    
C44   N14   1.496144 S    
C10   C15   1.437216 S    
O17   Zn5   2.107490 S    
C8    C46   1.404669 S    
C5    C6    1.534058 S    
C78   H41   1.110181 S    
C85   H63   1.097703 S    
C71   H20   1.109851 S    
C20   N5    1.516908 S    
N24   O71   1.303153 A    
C61   N25   1.496309 S    
N16   O56   1.301281 A    
C84   H58   1.098987 S    
Zn3   O13   2.112848 S    
O5    C3    1.310311 A    
N14   O51   1.298591 A    
C56   N21   1.488713 S    
C74   H30   1.109303 S    
C11   C12   1.545233 S    
C9    C11   1.560773 S    
C74   H29   1.101529 S    
C5    C12   1.536826 S    
C72   H22   1.109621 S    
C69   H14   1.091012 S    
C87   H67   1.104249 S    
C85   H62   1.103272 S    
Zn4   O16   1.981601 S    
C79   H45   1.095469 S    
N26   O76   1.293964 A    
N9    O41   1.300272 A    
C88   H72   1.108042 S    
Zn3   O15   1.988140 S    
N6    O36   1.303618 A    
O10   Zn4   2.112848 S    
C39   C41   1.605583 S    
C29   C73   1.519888 S    
C18   N2    1.466171 S    
C73   H26   1.109778 S    
C53   C54   1.629948 S    
C30   C33   1.542504 S    
C6    C10   1.533115 S    
C78   H42   1.100305 S    
C53   C79   1.591602 S    
O17   C49   1.282870 A    
C11   H1    1.110051 S    
C60   C81   1.579189 S    
C79   H43   1.102207 S    
C6    C14   1.537183 S    
C25   H4    1.110328 S    
O13   C47   1.323169 A    
C38   C42   1.669435 S    
N10   O44   1.294612 A    
N11   O46   1.303873 A    
C56   C57   1.588039 S    
C43   N12   1.484770 S    
C84   H60   1.110553 S    
O3    Zn1   1.981106 S    
C23   C69   1.573715 S    
C27   C35   1.188339 T    
C64   C65   1.635390 S    
C58   C60   1.673061 S    
C22   C50   1.579955 S    
C76   H35   1.109671 S    
C54   C58   1.643353 S    
C58   C59   1.655220 S    
C75   H32   1.103263 S    
C31   C33   1.558121 S    
C88   H71   1.108952 S    
O22   C51   1.304218 A    
C80   H48   1.079327 S    
C32   C34   1.527019 S    
O23   C52   1.291584 A    
N27   O78   1.302665 A    
C25   C32   1.543786 S    
N22   O67   1.303799 A    
C67   N27   1.482414 S    
C45   C57   1.480599 S    
C55   N19   1.500565 S    
N17   O57   1.300213 A    
O9    Zn3   2.102851 S    
C72   H24   1.109686 S    
N20   O63   1.301808 A    
C40   H8    1.101094 S    
C73   H27   1.109958 S    
C86   H65   1.083895 S    
N21   O65   1.302652 A    
C19   N8    1.492157 S    
O21   C51   1.278876 A    
O18   C49   1.307782 A    
N28   O79   1.299256 A    
C33   H5    1.110105 S    
C3    C41   1.488223 S    
C31   H6    1.110189 S    
N19   O61   1.305656 A    
C53   C57   1.657374 S    
C17   C21   1.600670 S    
N25   O74   1.301126 A    
C82   H54   1.086513 S    
O20   C50   1.308008 A    
O12   C46   1.312931 A    
C49   C66   1.575982 S    
C51   C58   1.582265 S    
C42   C43   1.688263 S    
O1    C1    1.316931 A    
C22   C23   1.684150 S    
C19   C21   1.619249 S    
C74   H28   1.111211 S    
C5    C9    1.550666 S    
C29   C30   1.532527 S    
N5    O34   1.299130 A    
C17   H3    1.076754 S    
C9    H2    1.110183 S    
N21   O66   1.298984 A    
C75   H33   1.107054 S    
C53   C78   1.581928 S    
C84   H59   1.101752 S    
C33   C34   1.538675 S    
C10   C13   1.532395 S    
C86   H66   1.108955 S    
Zn2   O8    1.981106 S    
C85   H61   1.110839 S    
C82   H53   1.091193 S    
C20   C21   1.632882 S    
N27   O77   1.302259 A    
N1    O26   1.299968 A    
C17   C88   1.572179 S    
C56   H9    1.055903 S    
C62   N26   1.496883 S    
C29   C31   1.545703 S    
C79   H44   1.107922 S    
C73   H25   1.109640 S    
C54   C80   1.531426 S    
C28   C36   1.189224 T    
C4    C27   1.405952 S    
C59   C82   1.511656 S    
N18   O60   1.296466 A    
N8    O40   1.303529 A    
N12   O47   1.293133 A    
Zn5   O21   2.100001 S    
O24   C52   1.286929 A    
C47   C65   1.493077 S    
N22   O68   1.302942 A    
C83   H56   1.070347 S    
C12   C16   1.435770 S    
N10   O43   1.300606 A    
N23   O70   1.299210 A    
O15   C48   1.313617 A    
C24   N7    1.482855 S    
C61   N24   1.502509 S    
O3    C2    1.314261 A    
N5    O33   1.301175 A    
C87   H68   1.092421 S    
C64   C68   1.616534 S    
O20   Zn6   2.096579 S    
C69   H13   1.096405 S    
C22   C24   1.660614 S    
C76   H36   1.109720 S    
C40   N13   1.485928 S    
C75   H31   1.111244 S    
C55   N23   1.528163 S    
C77   H37   1.108405 S    
Zn1   O5    2.108959 S    
C2    C7    1.405112 S    
C59   N20   1.510682 S    
C81   H50   1.111759 S    
N1    O25   1.300213 A    
C13   N17   1.457673 S    
O1    Zn1   2.098739 S    
Zn2   O6    2.098739 S    
O2    Zn2   2.108959 S    
Zn6   O24   2.102550 S    
C38   C75   1.578887 S    
C26   C71   1.520815 S    
N8    O39   1.298459 A    
O6    C3    1.325143 A    
C64   C85   1.588001 S    
Zn5   O23   2.096574 S    
C81   H51   1.100674 S    
O4    Zn2   1.988925 S    
N2    O28   1.287657 A    
C37   C41   1.566865 S    
C69   H15   1.112373 S    
C37   H7    1.097437 S    
C26   C30   1.533324 S    
C42   C52   1.566790 S    
N13   O49   1.302678 A    
C78   H40   1.097167 S    
C32   C36   1.438320 S    
C28   C48   1.407215 S    
C1    C21   1.472370 S    
C63   H11   1.111832 S    
O12   Zn4   1.988139 S    
C7    C15   1.188046 T    
O10   C45   1.328880 A    
C55   C59   1.627170 S    
C9    C10   1.547736 S    
C11   C13   1.542035 S    
O2    C1    1.311485 A    
O8    C4    1.314760 A    
N19   O62   1.297163 A    
N17   O58   1.300259 A    
C17   C18   1.586660 S    
N3    O29   1.300313 A    
C86   H64   1.083996 S    
C5    C72   1.520489 S    
C70   H16   1.110503 S    
O14   C47   1.312542 A    
C40   C41   1.581742 S    
C25   C26   1.549911 S    
C66   C68   1.624947 S    
C56   C60   1.582816 S    
C87   H69   1.101223 S    
N26   O75   1.305229 A    
C18   C22   1.669893 S    
N12   O48   1.304324 A    
C61   C62   1.626714 S    
O7    C4    1.314529 A    
O19   C50   1.276863 A    
N24   O72   1.302489 A    
C20   C24   1.628884 S    
N6    O35   1.288744 A    
C12   C14   1.537798 S    
N9    O42   1.300257 A    
C37   C74   1.557185 S    
H10   C63   1.098334 S    
C14   C76   1.521301 S    
C23   C70   1.594543 S    
N14   O52   1.302351 A    
C77   H39   1.101816 S    
C60   N22   1.507710 S    
C68   C86   1.562832 S    
C34   N9    1.457823 S    
C13   C14   1.536051 S    
C44   N15   1.476127 S    
C76   H34   1.109564 S    
O18   Zn6   2.100001 S    
C25   C29   1.547245 S    
Zn4   O14   2.102851 S    
C88   H70   1.100940 S    
C6    N1    1.458090 S    
C55   C57   1.640510 S    
N18   O59   1.303444 A    
C66   C67   1.615309 S    
C83   H57   1.109458 S    
C18   N28   1.508480 S    
N7    O38   1.301370 A    
C20   N4    1.503303 S    
C39   C43   1.624151 S    
C26   C34   1.529900 S    
C63   C67   1.554477 S    
C39   N16   1.502709 S    
C38   N10   1.476119 S    
N13   O50   1.302088 A    
C83   H55   1.084756 S    
C68   C87   1.556278 S    
C81   H49   1.102612 S    
N16   O55   1.303459 A    
N20   O64   1.299647 A    
N28   O80   1.301157 A    
C82   H52   1.093944 S    
N4    O31   1.297171 A    
C63   C65   1.561414 S    
