data_mof_unit_37787.cif
_audit_creation_date              2012-12-11T15:54:49-0500
_audit_creation_method            fapswitch 2.2
_symmetry_space_group_name_H-M    P1
_symmetry_Int_Tables_number       1
_space_group_crystal_system       triclinic
_cell_length_a                    17.63308
_cell_length_b                    24.441015
_cell_length_c                    15.122159
_cell_angle_alpha                 90.019674
_cell_angle_beta                  126.036751
_cell_angle_gamma                 89.998983
_cell_volume                      5270.0689271

loop_
_atom_site_label
_atom_site_type_symbol
_atom_type_description
_atom_site_fract_x
_atom_site_fract_y
_atom_site_fract_z
_atom_type_partial_charge
C1    C     C_R   0.907692 0.869471 0.091517 -0.139192
C2    C     C_R   0.907521 0.130415 0.091476 -0.135801
C3    C     C_R   0.407702 0.369465 0.091520 -0.139205
C4    C     C_R   0.407526 0.630417 0.091479 -0.135786
C5    C     C_R   0.057797 0.848559 0.908089 -0.147016
C6    C     C_R   0.057874 0.151421 0.908169 -0.146630
C7    C     C_R   0.557796 0.348560 0.908086 -0.147003
C8    C     C_R   0.557858 0.651426 0.908172 -0.146625
C9    C     C_R   0.147199 0.152172 0.090823 -0.166915
C10   C     C_R   0.147014 0.847778 0.090707 -0.166850
C11   C     C_R   0.647186 0.652177 0.090822 -0.166904
C12   C     C_R   0.647013 0.347777 0.090703 -0.166873
C13   C     C_R   0.322652 0.999904 0.269417 0.026448
C14   C     C_R   0.822652 0.499901 0.269418 0.026437
C15   C     C_R   0.939618 0.000014 0.637144 -0.004361
C16   C     C_R   0.439613 0.500001 0.637141 -0.004366
C17   C     C_R   0.117713 0.817110 0.999244 0.041016
C18   C     C_R   0.117916 0.182829 0.999394 0.039018
C19   C     C_R   0.617711 0.317110 0.999238 0.041018
C20   C     C_R   0.617885 0.682842 0.999396 0.039031
C21   C     C_3   0.914133 0.051563 0.383348 -0.403745
C22   C     C_3   0.912728 0.949028 0.382121 -0.403422
C23   C     C_3   0.413771 0.551422 0.383049 -0.403689
C24   C     C_3   0.413027 0.448887 0.382373 -0.403517
C25   C     C_3   0.899673 0.051692 0.473570 -0.416222
C26   C     C_3   0.898380 0.948834 0.472472 -0.415862
C27   C     C_3   0.399330 0.551558 0.473298 -0.416170
C28   C     C_3   0.398683 0.448698 0.472719 -0.415873
C29   C     C_3   0.067001 0.999599 0.507387 -0.391809
C30   C     C_3   0.566977 0.499797 0.507362 -0.391787
C31   C     C_3   0.971033 0.000059 0.394641 0.385599
C32   C     C_3   0.471004 0.500034 0.394616 0.385593
C33   C     C_3   0.946080 0.000040 0.545997 0.405029
C34   C     C_3   0.446065 0.500017 0.545985 0.405017
C35   C     C_R   0.814470 0.129890 0.907456 -0.078185
C36   C     C_R   0.814613 0.869938 0.907476 -0.081666
C37   C     C_R   0.314470 0.629890 0.907459 -0.078179
C38   C     C_R   0.314612 0.369939 0.907479 -0.081649
C39   C     C_3   0.052397 0.999621 0.596929 -0.379712
C40   C     C_3   0.552382 0.499814 0.596911 -0.379716
C41   C     C_3   0.658999 0.183039 0.902608 -0.372987
C42   C     C_3   0.659254 0.816851 0.902896 -0.395612
C43   C     C_3   0.158998 0.683026 0.902644 -0.372987
C44   C     C_3   0.159258 0.316865 0.902956 -0.395654
C45   C     C_3   0.100937 0.728521 0.906830 -0.428599
C46   C     C_3   0.101165 0.271441 0.907237 -0.438423
C47   C     C_3   0.600932 0.228524 0.906813 -0.428596
C48   C     C_3   0.601161 0.771407 0.907118 -0.438475
C49   C     C_3   0.299580 0.745323 0.985640 0.090384
C50   C     C_3   0.299677 0.254505 0.985502 0.089794
C51   C     C_3   0.799601 0.245325 0.985675 0.090413
C52   C     C_3   0.799703 0.754505 0.985592 0.089779
C53   C     C_3   0.771693 0.189151 0.109681 0.181865
C54   C     C_3   0.772154 0.810691 0.109948 0.173625
C55   C     C_3   0.271730 0.689164 0.109710 0.181891
C56   C     C_3   0.272239 0.310646 0.109996 0.173695
C57   C     C_3   0.764361 0.189385 0.000717 0.237298
C58   C     C_3   0.764629 0.810452 0.000853 0.255033
C59   C     C_3   0.264366 0.689385 0.000726 0.237289
C60   C     C_3   0.264647 0.310443 0.000859 0.255086
C61   C     C_3   0.167568 0.769408 0.999814 0.301875
C62   C     C_3   0.167815 0.230487 0.999982 0.312883
C63   C     C_3   0.667563 0.269409 0.999803 0.301929
C64   C     C_3   0.667789 0.730501 0.999987 0.312773
C65   C     C_3   0.240721 0.791918 0.983720 -0.419717
C66   C     C_3   0.240735 0.207943 0.983510 -0.419940
C67   C     C_3   0.740719 0.291919 0.983715 -0.419719
C68   C     C_3   0.740826 0.707942 0.983726 -0.419954
C69   C     C_3   0.218765 0.738714 0.110570 -0.440525
C70   C     C_3   0.219291 0.261106 0.110880 -0.441557
C71   C     C_3   0.718756 0.238713 0.110557 -0.440546
C72   C     C_3   0.719133 0.761181 0.110810 -0.441506
C73   C     C_3   0.472512 0.946781 0.372751 -0.372979
C74   C     C_3   0.475893 0.049395 0.366012 -0.386259
C75   C     C_3   0.972487 0.446754 0.372802 -0.372968
C76   C     C_3   0.975916 0.549362 0.365962 -0.386279
C77   C     C_R   0.739505 0.954004 0.702209 -0.014400
C78   C     C_R   0.738882 0.045694 0.702228 0.009089
C79   C     C_R   0.239508 0.454002 0.702211 -0.014418
C80   C     C_R   0.238877 0.545693 0.702229 0.009096
C81   C     C_3   0.574031 0.948098 0.475173 -0.413326
C82   C     C_3   0.576159 0.048871 0.471374 -0.434916
C83   C     C_3   0.074004 0.448067 0.475224 -0.413352
C84   C     C_3   0.076181 0.548840 0.471332 -0.434924
C85   C     C_3   0.418482 0.004052 0.466767 -0.528828
C86   C     C_3   0.918486 0.504103 0.466765 -0.528845
C87   C     C_3   0.421092 0.999905 0.365859 0.268629
C88   C     C_3   0.921092 0.499901 0.365859 0.268655
C89   C     C_3   0.590412 0.999491 0.545926 0.084358
C90   C     C_3   0.090411 0.499487 0.545929 0.084320
C91   C     C_3   0.517293 0.000983 0.575766 0.872948
C92   C     C_3   0.017292 0.501023 0.575767 0.872996
C93   C     C_R   0.008684 0.045937 0.276806 -0.129096
C94   C     C_R   0.008645 0.954112 0.276805 -0.128977
C95   C     C_R   0.508656 0.545928 0.276795 -0.129119
C96   C     C_R   0.508635 0.454103 0.276786 -0.128924
C97   C     C_R   0.821098 0.853877 0.999646 0.048854
C98   C     C_R   0.820869 0.145932 0.999589 0.045633
C99   C     C_R   0.321107 0.353872 0.999654 0.048745
C100  C     C_R   0.320874 0.645933 0.999594 0.045663
C101  C     C_R   0.686845 0.999699 0.646126 0.039886
C102  C     C_R   0.186843 0.499696 0.646129 0.039922
C103  C     C_R   0.989156 0.000043 0.312895 -0.002074
C104  C     C_R   0.489124 0.500026 0.312868 -0.002079
C105  C     C_R   0.266339 0.954065 0.242728 -0.124815
C106  C     C_R   0.266492 0.045850 0.242662 -0.127422
C107  C     C_R   0.766337 0.454064 0.242728 -0.124776
C108  C     C_R   0.766493 0.545848 0.242660 -0.127443
C109  C     C_R   0.953794 0.045849 0.698282 -0.158110
C110  C     C_R   0.953839 0.954161 0.698239 -0.156620
C111  C     C_R   0.453803 0.545843 0.698276 -0.158139
C112  C     C_R   0.453828 0.454155 0.698244 -0.156590
H1    H     H_    0.940853 0.856795 0.174506 0.096706
H2    H     H_    0.940586 0.143108 0.174454 0.096338
H3    H     H_    0.440878 0.356782 0.174507 0.096692
H4    H     H_    0.440596 0.643108 0.174459 0.096341
H5    H     H_    0.844910 0.051555 0.302061 0.170497
H6    H     H_    0.843460 0.949757 0.300890 0.170494
H7    H     H_    0.344538 0.551242 0.301771 0.170521
H8    H     H_    0.343756 0.449456 0.301142 0.170489
H9    H     H_    0.823441 0.052595 0.437089 0.155332
H10   H     H_    0.822149 0.948532 0.436055 0.155443
H11   H     H_    0.323095 0.552299 0.436825 0.155331
H12   H     H_    0.322455 0.448237 0.436309 0.155442
H13   H     H_    0.931597 0.089808 0.521791 0.150873
H14   H     H_    0.929361 0.910430 0.519881 0.152155
H15   H     H_    0.431010 0.589750 0.521326 0.150841
H16   H     H_    0.429916 0.410367 0.520318 0.152187
H17   H     H_    0.108823 0.036196 0.516753 0.169264
H18   H     H_    0.107806 0.962639 0.515940 0.168811
H19   H     H_    0.608564 0.536481 0.516542 0.169153
H20   H     H_    0.608019 0.462921 0.516100 0.168908
H21   H     H_    0.087528 0.036204 0.649961 0.162432
H22   H     H_    0.086654 0.962741 0.649233 0.162436
H23   H     H_    0.587296 0.536477 0.649764 0.162360
H24   H     H_    0.586864 0.463014 0.649397 0.162494
H25   H     H_    0.649796 0.186470 0.823515 0.185343
H26   H     H_    0.649969 0.813377 0.823758 0.157612
H27   H     H_    0.149773 0.686433 0.823536 0.185447
H28   H     H_    0.149924 0.313383 0.823791 0.157632
H29   H     H_    0.631381 0.142218 0.902675 0.221944
H30   H     H_    0.631779 0.857712 0.903101 0.233201
H31   H     H_    0.131393 0.642210 0.902762 0.221839
H32   H     H_    0.131826 0.357736 0.903191 0.233160
H33   H     H_    0.551297 0.210410 0.921422 0.180834
H34   H     H_    0.551634 0.789553 0.921876 0.181906
H35   H     H_    0.051290 0.710417 0.921431 0.180825
H36   H     H_    0.051762 0.289601 0.922179 0.181902
H37   H     H_    0.058515 0.749049 0.825870 0.166444
H38   H     H_    0.058472 0.250970 0.826195 0.157698
H39   H     H_    0.558498 0.249054 0.825856 0.166429
H40   H     H_    0.558600 0.750899 0.826108 0.157700
H41   H     H_    0.286998 0.744741 0.904222 0.131413
H42   H     H_    0.287019 0.255109 0.904045 0.130951
H43   H     H_    0.787062 0.244747 0.904280 0.131391
H44   H     H_    0.787014 0.755071 0.904118 0.130992
H45   H     H_    0.760463 0.139758 0.823131 0.120329
H46   H     H_    0.760783 0.859877 0.823181 0.108782
H47   H     H_    0.260462 0.639758 0.823134 0.120371
H48   H     H_    0.260773 0.359879 0.823186 0.108745
H49   H     H_    0.204835 0.813640 0.903862 0.145620
H50   H     H_    0.204636 0.186300 0.903515 0.144518
H51   H     H_    0.704832 0.313628 0.903845 0.145604
H52   H     H_    0.704840 0.686207 0.903837 0.144584
H53   H     H_    0.845679 0.194185 0.181361 0.110522
H54   H     H_    0.846162 0.805588 0.181512 0.110792
H55   H     H_    0.345720 0.694222 0.181366 0.110519
H56   H     H_    0.346258 0.305558 0.181537 0.110795
H57   H     H_    0.667385 0.226683 0.127317 0.178194
H58   H     H_    0.667842 0.773260 0.127671 0.178210
H59   H     H_    0.167391 0.726674 0.127318 0.178210
H60   H     H_    0.168098 0.273141 0.127921 0.178161
H61   H     H_    0.271358 0.765951 0.178584 0.132261
H62   H     H_    0.271919 0.233822 0.178702 0.132593
H63   H     H_    0.771365 0.265946 0.178568 0.132268
H64   H     H_    0.771706 0.733929 0.178744 0.132564
H65   H     H_    0.285788 0.822862 0.048335 0.182087
H66   H     H_    0.285767 0.176928 0.047909 0.181783
H67   H     H_    0.785770 0.322873 0.048312 0.182083
H68   H     H_    0.785893 0.677003 0.048289 0.181771
H69   H     H_    0.438529 0.910009 0.378076 0.196433
H70   H     H_    0.442809 0.088766 0.362496 0.170853
H71   H     H_    0.938487 0.410002 0.378160 0.196490
H72   H     H_    0.942845 0.588748 0.362395 0.170814
H73   H     H_    0.471050 0.942434 0.298498 0.154054
H74   H     H_    0.477265 0.047604 0.293424 0.163875
H75   H     H_    0.971025 0.442373 0.298555 0.154035
H76   H     H_    0.977293 0.547530 0.293380 0.163887
H77   H     H_    0.622240 0.949113 0.450297 0.158001
H78   H     H_    0.626418 0.045701 0.449679 0.162457
H79   H     H_    0.122218 0.449044 0.450352 0.158006
H80   H     H_    0.126441 0.545635 0.449644 0.162467
H81   H     H_    0.725685 0.911774 0.676694 0.080152
H82   H     H_    0.723975 0.087842 0.676273 0.088622
H83   H     H_    0.225694 0.411772 0.676696 0.080063
H84   H     H_    0.223965 0.587840 0.676270 0.088729
H85   H     H_    0.589467 0.909155 0.519705 0.215761
H86   H     H_    0.590811 0.088991 0.511780 0.209484
H87   H     H_    0.089412 0.409139 0.519795 0.215759
H88   H     H_    0.090849 0.588971 0.511700 0.209477
H89   H     H_    0.372265 0.971389 0.462117 0.210710
H90   H     H_    0.383404 0.043054 0.461327 0.197961
H91   H     H_    0.872232 0.471472 0.462137 0.210742
H92   H     H_    0.883454 0.543130 0.461300 0.197932
H93   H     H_    0.018421 0.087238 0.306399 0.086029
H94   H     H_    0.018280 0.912828 0.306412 0.086125
H95   H     H_    0.518370 0.587226 0.306403 0.086019
H96   H     H_    0.518297 0.412818 0.306387 0.086130
H97   H     H_    0.286888 0.911644 0.256878 0.099382
H98   H     H_    0.287776 0.088181 0.258268 0.098150
H99   H     H_    0.786879 0.411641 0.256866 0.099372
H100  H     H_    0.787784 0.588179 0.258273 0.098154
H101  H     H_    0.944415 0.088382 0.674747 0.089050
H102  H     H_    0.944642 0.911631 0.674647 0.090088
H103  H     H_    0.444471 0.588374 0.674738 0.089050
H104  H     H_    0.444589 0.411623 0.674657 0.090087
H105  H     H_    0.018785 0.836859 0.823065 0.089719
H106  H     H_    0.018877 0.163123 0.823165 0.087640
H107  H     H_    0.518784 0.336862 0.823060 0.089707
H108  H     H_    0.518851 0.663127 0.823167 0.087653
H109  H     H_    0.188049 0.165331 0.175116 0.099240
H110  H     H_    0.187709 0.834574 0.174945 0.099461
H111  H     H_    0.688037 0.665334 0.175116 0.099240
H112  H     H_    0.687709 0.334571 0.174941 0.099457
H113  H     H_    0.950982 0.089979 0.390453 0.151771
H114  H     H_    0.948439 0.910311 0.388095 0.152516
H115  H     H_    0.450355 0.589913 0.389904 0.151797
H116  H     H_    0.448985 0.410239 0.388569 0.152510
N1    N     N_R   0.950530 0.896220 0.057200 -0.039934
N2    N     N_R   0.950530 0.103780 0.057200 -0.040354
N3    N     N_R   0.450530 0.396220 0.057200 -0.039930
N4    N     N_R   0.450530 0.603780 0.057200 -0.040351
N5    N     N_R   0.893330 0.103780 0.942800 -0.047081
N6    N     N_R   0.893330 0.896220 0.942800 -0.046171
N7    N     N_R   0.393330 0.603780 0.942800 -0.047085
N8    N     N_R   0.393330 0.396220 0.942800 -0.046157
N9    N     N_R   0.818150 0.971400 0.792440 -0.045511
N10   N     N_R   0.818150 0.028600 0.792440 -0.046673
N11   N     N_R   0.318150 0.471400 0.792440 -0.045498
N12   N     N_R   0.318150 0.528600 0.792440 -0.046678
N13   N     N_R   0.025710 0.028600 0.207560 -0.033120
N14   N     N_R   0.025710 0.971400 0.207560 -0.032996
N15   N     N_R   0.525710 0.528600 0.207560 -0.033113
N16   N     N_R   0.525710 0.471400 0.207560 -0.033004
N17   N     N_R   0.181850 0.971400 0.207560 -0.040640
N18   N     N_R   0.181850 0.028600 0.207560 -0.040292
N19   N     N_R   0.681850 0.471400 0.207560 -0.040647
N20   N     N_R   0.681850 0.528600 0.207560 -0.040291
N21   N     N_R   0.974290 0.028600 0.792440 -0.037633
N22   N     N_R   0.974290 0.971400 0.792440 -0.037354
N23   N     N_R   0.474290 0.528600 0.792440 -0.037631
N24   N     N_R   0.474290 0.471400 0.792440 -0.037360
N25   N     N_R   0.049470 0.896220 0.942800 -0.037421
N26   N     N_R   0.049470 0.103780 0.942800 -0.037410
N27   N     N_R   0.549470 0.396220 0.942800 -0.037422
N28   N     N_R   0.549470 0.603780 0.942800 -0.037417
N29   N     N_R   0.106670 0.103780 0.057200 -0.035902
N30   N     N_R   0.106670 0.896220 0.057200 -0.036353
N31   N     N_R   0.606670 0.603780 0.057200 -0.035903
N32   N     N_R   0.606670 0.396220 0.057200 -0.036356
Ni1   Ni    Ni4+2 0.065600 0.934400 0.131190 0.218975
Ni2   Ni    Ni4+2 0.065600 0.065600 0.131190 0.218397
Ni3   Ni    Ni4+2 0.565600 0.434400 0.131190 0.218969
Ni4   Ni    Ni4+2 0.565600 0.565600 0.131190 0.218410
Ni5   Ni    Ni4+2 0.934400 0.065600 0.868810 0.208443
Ni6   Ni    Ni4+2 0.934400 0.934400 0.868810 0.209018
Ni7   Ni    Ni4+2 0.434400 0.565600 0.868810 0.208459
Ni8   Ni    Ni4+2 0.434400 0.434400 0.868810 0.209020
C113  C     C_3   0.737069 0.135671 0.129269 -1.048822
H117  H     H_    0.771963 0.099477 0.123619 0.260848
H118  H     H_    0.753899 0.136380 0.212527 0.249875
H119  H     H_    0.660011 0.130842 0.069807 0.270239
C114  C     C_3   0.737792 0.864199 0.129843 -1.036235
H120  H     H_    0.772728 0.900368 0.124201 0.261040
H121  H     H_    0.660734 0.869084 0.070530 0.271711
H122  H     H_    0.754794 0.863486 0.213184 0.247993
C115  C     C_3   0.237167 0.635679 0.129368 -1.048937
H123  H     H_    0.272071 0.599490 0.123717 0.260864
H124  H     H_    0.254039 0.636395 0.212646 0.249937
H125  H     H_    0.160110 0.630830 0.069941 0.270232
C116  C     C_3   0.237846 0.364126 0.129937 -1.036267
H126  H     H_    0.272732 0.400316 0.124273 0.261026
H127  H     H_    0.160780 0.368989 0.070661 0.271703
H128  H     H_    0.254885 0.363393 0.213294 0.247961
C117  C     C_3   0.405278 0.757638 0.069456 -1.046237
H129  H     H_    0.421287 0.799162 0.054607 0.260413
H130  H     H_    0.426723 0.756208 0.154599 0.252030
H131  H     H_    0.448670 0.728823 0.060047 0.261830
C118  C     C_3   0.405359 0.242141 0.069195 -1.048928
H132  H     H_    0.421274 0.200645 0.054082 0.261042
H133  H     H_    0.448779 0.270999 0.059924 0.262170
H134  H     H_    0.426850 0.243466 0.154363 0.252573
C119  C     C_3   0.905292 0.257638 0.069544 -1.046239
H135  H     H_    0.921319 0.299164 0.054723 0.260403
H136  H     H_    0.926695 0.256204 0.154670 0.252027
H137  H     H_    0.948707 0.228826 0.060168 0.261824
C120  C     C_3   0.905402 0.742179 0.069269 -1.048934
H138  H     H_    0.948773 0.771014 0.059869 0.262180
H139  H     H_    0.926936 0.743578 0.154452 0.252567
H140  H     H_    0.921337 0.700664 0.054261 0.261050
S1    S     S_3+6 0.521310 0.940564 0.650089 -0.076948
O1    O     O_2   0.615557 0.935051 0.758067 -0.334453
O2    O     O_2   0.448988 0.946932 0.672118 -0.262551
O3    O     O_3   0.496210 0.882606 0.577862 -0.614475
H141  H     H_    0.503759 0.852990 0.627164 0.363714
S2    S     S_3+6 0.532203 0.059410 0.660528 -0.053772
O4    O     O_2   0.535773 0.112847 0.614218 -0.357808
O5    O     O_2   0.450069 0.061852 0.666546 -0.278581
O6    O     O_3   0.630779 0.052727 0.788474 -0.538487
H142  H     H_    0.610473 0.038193 0.832595 0.383839
S3    S     S_3+6 0.021263 0.440622 0.650104 -0.076891
O7    O     O_2   0.115531 0.435070 0.758041 -0.334365
O8    O     O_2   0.949002 0.447051 0.672213 -0.262518
O9    O     O_3   0.996032 0.382663 0.577846 -0.614473
H143  H     H_    0.003602 0.353053 0.627171 0.363719
S4    S     S_3+6 0.032250 0.559465 0.660520 -0.053814
O10   O     O_2   0.035969 0.612884 0.614275 -0.357903
O11   O     O_2   0.950068 0.561980 0.666443 -0.278689
O12   O     O_3   0.130764 0.552732 0.788500 -0.538377
H144  H     H_    0.110373 0.538281 0.832589 0.383795

loop_
_geom_bond_atom_site_label_1
_geom_bond_atom_site_label_2
_ccdc_geom_bond_type
C92   S4    S    
C55   C59   S    
C15   C109  A    
C77   C101  A    
C42   C58   S    
N2    Ni2   S    
S1    O1    D    
C116  H128  S    
C109  N21   A    
C46   C62   S    
C4    N4    A    
C49   H41   S    
C111  H103  S    
C82   H86   S    
C86   C88   S    
C96   H96   S    
N27   Ni8   S    
C30   H19   S    
C106  H98   S    
N28   N31   A    
C114  H122  S    
C62   C70   S    
C26   H14   S    
N1    N6    A    
C77   H81   S    
C96   N16   A    
C21   H5    S    
C17   C61   S    
N25   N30   A    
C5    H105  S    
C19   C63   S    
C32   C104  S    
C79   C102  A    
C36   C97   A    
C51   C57   S    
C76   H76   S    
C78   N10   A    
N17   N18   A    
C78   C101  A    
C1    H1    S    
C73   C81   S    
C44   C46   S    
C68   H52   S    
C80   H84   S    
C40   H23   S    
C11   C20   A    
C24   H8    S    
C11   H111  S    
O9    H143  S    
C8    N28   A    
C47   C63   S    
C56   C116  S    
C11   N31   A    
C24   C32   S    
C73   H69   S    
C90   C92   S    
S2    O4    D    
N16   Ni3   S    
C81   H77   S    
C52   C58   S    
C85   H90   S    
C14   C107  A    
C63   C71   S    
C55   C115  S    
C7    C19   A    
C113  H118  S    
C53   C71   S    
N23   Ni7   S    
S1    O3    S    
C22   H6    S    
C89   C101  S    
C13   C106  A    
C108  N20   A    
C14   C88   S    
C117  H130  S    
C81   H85   S    
C2    H2    S    
N11   Ni8   S    
C10   H110  S    
C61   C65   S    
C107  H99   S    
C65   H49   S    
C67   H67   S    
C25   H9    S    
N19   Ni3   S    
C16   C111  A    
C72   H58   S    
N20   Ni4   S    
C39   H22   S    
C94   H94   S    
N17   Ni1   S    
C93   C103  A    
C21   C31   S    
C51   H43   S    
N21   N22   A    
C82   C89   S    
S4    O12   S    
C64   C68   S    
C110  H102  S    
C23   H7    S    
C36   N6    A    
C79   H83   S    
N13   N14   A    
N21   Ni5   S    
C90   C102  S    
C25   H13   S    
C16   C34   S    
C29   H17   S    
C74   C87   S    
C89   C91   S    
C43   C59   S    
C115  H123  S    
C59   C100  S    
C120  H139  S    
C29   C39   S    
C55   C69   S    
C84   C90   S    
C108  H100  S    
C37   N7    A    
N7    Ni7   S    
C46   H36   S    
C62   C66   S    
C3    N3    A    
C18   C62   S    
C42   C48   S    
N26   N29   A    
C80   C102  A    
C119  H135  S    
C43   C45   S    
C26   C33   S    
C13   C87   S    
C118  H132  S    
C41   C47   S    
C51   C67   S    
C50   C118  S    
C70   H62   S    
C105  N17   A    
N3    N8    A    
S3    O8    D    
C21   C25   S    
N27   N32   A    
N4    Ni4   S    
C45   H35   S    
C24   C28   S    
C73   H73   S    
C28   H12   S    
C74   H70   S    
N1    Ni1   S    
N25   Ni6   S    
C116  H127  S    
C56   C70   S    
C49   C59   S    
C50   C60   S    
C37   H47   S    
C4    C100  A    
C38   H48   S    
C93   N13   A    
C65   H65   S    
C30   H20   S    
C114  H121  S    
C112  H104  S    
C2    N2    A    
N5    Ni5   S    
C3    C99   A    
C9    C18   A    
C91   S1    S    
C115  H125  S    
C86   H91   S    
C37   C100  A    
C25   C33   S    
C92   S3    S    
C47   H33   S    
C9    N29   A    
C42   H26   S    
C43   H31   S    
N11   N12   A    
C55   H55   S    
C76   C84   S    
N23   N24   A    
C110  N22   A    
C40   H24   S    
C69   H61   S    
C83   H79   S    
C54   H54   S    
C119  H137  S    
C38   N8    A    
C48   C64   S    
C5    C17   A    
N15   N16   A    
C118  H134  S    
C105  H97   S    
C66   H50   S    
S4    O11   D    
C78   H82   S    
C70   H60   S    
C12   H112  S    
N3    Ni3   S    
C6    H106  S    
C27   H15   S    
N24   Ni8   S    
C73   C87   S    
S2    O5    D    
C71   H57   S    
C35   N5    A    
C35   C98   A    
C41   H25   S    
N18   Ni2   S    
C85   H89   S    
C81   C89   S    
C14   C108  A    
C28   C34   S    
C44   H28   S    
C113  H117  S    
C77   N9    A    
C15   C110  A    
C74   C82   S    
N32   Ni3   S    
S1    O2    D    
C95   H95   S    
S2    O6    S    
N29   Ni2   S    
N22   Ni6   S    
C13   C105  A    
N31   Ni4   S    
C53   C57   S    
C56   C60   S    
N9    Ni6   S    
C117  H129  S    
C8    C20   A    
C22   H114  S    
C53   H53   S    
N28   Ni7   S    
C47   H39   S    
C94   C103  A    
N13   Ni2   S    
C48   H40   S    
C16   C112  A    
C93   H93   S    
C39   H21   S    
C7    N27   A    
C4    H4    S    
C75   H75   S    
C38   C99   A    
C23   C32   S    
C41   C57   S    
C3    H3    S    
C75   C83   S    
C44   C60   S    
C57   C98   S    
C12   C19   A    
C45   C61   S    
C71   H63   S    
C72   H64   S    
O12   H144  S    
C9    H109  S    
C119  H136  S    
C22   C26   S    
C113  H119  S    
N8    Ni8   S    
S4    O10   D    
C26   H10   S    
C28   H16   S    
C74   H74   S    
S3    O7    D    
N26   Ni5   S    
C120  H138  S    
C79   N11   A    
C60   C99   S    
C75   H71   S    
C35   H45   S    
C85   C91   S    
O6    H142  S    
C84   H88   S    
C66   H66   S    
C49   C117  S    
C33   C39   S    
C49   C65   S    
C34   C40   S    
C107  N19   A    
C117  H131  S    
C109  H101  S    
N6    Ni6   S    
C10   C17   A    
C111  N23   A    
C6    N26   A    
N2    N5    A    
C48   H34   S    
C42   H30   S    
C10   N30   A    
C43   H27   S    
C23   C27   S    
C76   C88   S    
C45   H37   S    
C52   C68   S    
C36   H46   S    
C7    H107  S    
C82   H78   S    
N12   Ni7   S    
C58   C97   S    
C112  N24   A    
C85   C87   S    
C27   C34   S    
C6    C18   A    
C63   C67   S    
C22   C31   S    
C1    C97   A    
C27   H11   S    
C116  H126  S    
C68   H68   S    
N4    N7    A    
C31   C103  S    
C52   C120  S    
C20   C64   S    
C41   H29   S    
C8    H108  S    
C67   H51   S    
C29   H18   S    
C44   H32   S    
C56   H56   S    
C114  H120  S    
C30   C40   S    
C106  N18   A    
C50   C66   S    
O3    H141  S    
C46   H38   S    
C53   C113  S    
C115  H124  S    
C120  H140  S    
N30   Ni1   S    
N15   Ni4   S    
C83   H87   S    
C86   H92   S    
C95   C104  A    
C54   C58   S    
C61   C69   S    
C83   C90   S    
N10   Ni5   S    
C23   H115  S    
N19   N20   A    
C52   H44   S    
C21   H113  S    
C5    N25   A    
C80   N12   A    
C96   C104  A    
C94   N14   A    
C29   C31   S    
C86   C92   S    
C30   C32   S    
C50   H42   S    
C54   C114  S    
C118  H133  S    
N14   Ni1   S    
C84   H80   S    
C24   H116  S    
C64   C72   S    
C69   H59   S    
N9    N10   A    
C51   C119  S    
C91   S2    S    
C1    N1    A    
C75   C88   S    
C54   C72   S    
C2    C98   A    
S3    O9    S    
C12   N32   A    
C76   H72   S    
C15   C33   S    
C95   N15   A    
