data_mof_unit_15817.cif
_audit_creation_date              2012-12-10T21:00:40-0500
_audit_creation_method            fapswitch 2.2
_symmetry_space_group_name_H-M    P1
_symmetry_Int_Tables_number       1
_space_group_crystal_system       triclinic
_cell_length_a                    18.148637
_cell_length_b                    18.135973
_cell_length_c                    18.305732
_cell_angle_alpha                 119.699229
_cell_angle_beta                  89.925583
_cell_angle_gamma                 120.135283
_cell_volume                      4273.77558823

loop_
_atom_site_label
_atom_site_type_symbol
_atom_type_description
_atom_site_fract_x
_atom_site_fract_y
_atom_site_fract_z
_atom_type_partial_charge
C1    C     C_R   0.109229 0.220072 0.609940 0.787457
C2    C     C_3   0.450063 0.897065 0.947443 -0.018861
C3    C     C_R   0.336168 0.095113 0.746097 -0.115527
C4    C     C_R   0.258105 0.079139 0.767891 -0.147296
C5    C     C_R   0.263909 0.136485 0.856808 -0.088189
C6    C     C_R   0.968870 0.726213 0.841560 0.151175
C7    C     C_R   0.971992 0.816091 0.871606 -0.157117
C8    C     C_R   0.914169 0.814035 0.819127 -0.124235
C9    C     C_R   0.852704 0.722474 0.736327 -0.120871
C10   C     C_R   0.848502 0.632574 0.706032 -0.177348
C11   C     C_R   0.906444 0.634315 0.758151 -0.069449
C12   C     C_R   0.981511 0.246701 0.156059 0.144576
C13   C     C_3   0.447344 0.032404 0.032191 -0.201387
C14   C     C_R   0.933507 0.198458 0.197416 -0.118755
C15   C     C_R   0.976631 0.190091 0.253225 -0.158531
C16   C     C_R   0.068340 0.231201 0.269681 -0.126063
C17   C     C_R   0.116917 0.280081 0.229814 -0.157578
C18   C     C_R   0.073802 0.287117 0.172689 -0.084706
C19   C     C_R   0.571470 0.068872 0.890399 0.110784
C20   C     C_R   0.605134 0.168855 0.912980 -0.125084
C21   C     C_R   0.636469 0.196146 0.854518 -0.187007
C22   C     C_R   0.633645 0.123795 0.772765 -0.124118
C23   C     C_R   0.598812 0.023696 0.749029 -0.137299
C24   C     C_3   0.552224 0.967868 0.966261 -0.198543
C25   C     C_R   0.567257 0.996029 0.807231 -0.184874
C26   C     C_R   0.423403 0.923345 0.102007 0.107610
C27   C     C_R   0.419975 0.839040 0.090549 -0.147597
C28   C     C_R   0.380365 0.799105 0.139321 -0.166589
C29   C     C_R   0.346127 0.844755 0.201637 -0.124727
C30   C     C_R   0.351323 0.930342 0.215145 -0.147683
C31   C     C_R   0.389930 0.969719 0.165717 -0.176269
C32   C     C_3   0.413206 0.438849 0.448594 -0.139782
C33   C     C_3   0.586362 0.560806 0.551048 -0.141504
C34   C     C_3   0.475286 0.402297 0.441755 -0.169342
C35   C     C_3   0.524336 0.597398 0.557879 -0.170134
C36   C     C_3   0.550629 0.499866 0.449222 0.067991
C37   C     C_3   0.449044 0.499872 0.550481 0.068150
C38   C     C_3   0.489505 0.536478 0.455242 -0.191338
C39   C     C_R   0.891070 0.779878 0.390045 0.788133
C40   C     C_3   0.510101 0.463181 0.544376 -0.193904
C41   C     C_R   0.026948 0.121616 0.824311 -0.146770
C42   C     C_R   0.985316 0.883325 0.178207 -0.131465
C43   C     C_R   0.392781 0.780991 0.887917 0.766733
C44   C     C_R   0.607149 0.219046 0.112143 0.758936
C45   C     C_R   0.036188 0.085397 0.739919 -0.142106
C46   C     C_R   0.971625 0.916663 0.260637 -0.148760
C47   C     C_R   0.999633 0.096074 0.681153 0.158687
C48   C     C_R   0.004408 0.903936 0.319933 0.160584
C49   C     C_R   0.953189 0.142694 0.707522 -0.119327
C50   C     C_3   0.924180 0.404160 0.446497 -0.179666
C51   C     C_R   0.051206 0.857564 0.295781 -0.118741
C52   C     C_R   0.943361 0.177948 0.791704 -0.135302
C53   C     C_R   0.065725 0.825414 0.213624 -0.152974
C54   C     C_R   0.980290 0.167455 0.850026 -0.107961
C55   C     C_R   0.032986 0.838604 0.155096 -0.106949
C56   C     C_R   0.952567 0.942613 0.533617 -0.259004
C57   C     C_R   0.048653 0.057276 0.466512 -0.261695
C58   C     C_R   0.949230 0.892148 0.444904 -0.050695
C59   C     C_R   0.051762 0.107728 0.555155 -0.050127
C60   C     C_R   0.998670 0.950016 0.410858 -0.012060
C61   C     C_3   0.076553 0.596748 0.553742 -0.180788
C62   C     C_R   0.003064 0.049816 0.589395 -0.014401
C63   C     C_R   0.636921 0.614923 0.799530 -0.198535
C64   C     C_R   0.361196 0.380833 0.196835 -0.228430
C65   C     C_R   0.590401 0.561943 0.837082 -0.116932
C66   C     C_R   0.407397 0.434753 0.159887 -0.118706
C67   C     C_R   0.112270 0.502148 0.891168 0.804098
C68   C     C_R   0.888023 0.498242 0.109202 0.810120
C69   C     C_R   0.595118 0.616849 0.926437 0.037138
C70   C     C_R   0.405090 0.380883 0.071338 0.034976
C71   C     C_R   0.649627 0.727304 0.979305 -0.095810
C72   C     C_3   0.434148 0.964695 0.931684 -0.186699
C73   C     C_R   0.353864 0.270753 0.018861 -0.094906
C74   C     C_R   0.695478 0.779288 0.939852 0.614363
C75   C     C_R   0.307422 0.217609 0.057176 0.623941
C76   C     C_R   0.688563 0.723135 0.850512 -0.186400
C77   C     C_R   0.311679 0.272666 0.145759 -0.215798
C78   C     C_R   0.593681 0.557346 0.020923 -0.232684
C79   C     C_R   0.406425 0.440727 0.977234 -0.242032
C80   C     C_R   0.550402 0.500486 0.056465 -0.063912
C81   C     C_R   0.449701 0.498107 0.942116 -0.065590
C82   C     C_R   0.455592 0.441406 0.034745 0.017987
C83   C     C_3   0.565301 0.035221 0.066815 -0.183486
C84   C     C_R   0.544556 0.556762 0.963428 0.016496
C85   C     C_R   0.184376 0.819089 0.988727 -0.106174
C86   C     C_R   0.802765 0.160080 0.968747 -0.124678
C87   C     C_R   0.154329 0.741882 0.003676 -0.206171
C88   C     C_R   0.842295 0.247507 0.966909 -0.241983
C89   C     C_R   0.063448 0.656578 0.963845 -0.005079
C90   C     C_R   0.927824 0.336898 0.027340 0.006815
C91   C     C_R   0.392356 0.500090 0.607766 0.769162
C92   C     C_R   0.607589 0.499874 0.392189 0.767991
C93   C     C_R   0.002192 0.650940 0.910674 0.582751
C94   C     C_3   0.536520 0.036594 0.951555 0.042544
C95   C     C_R   0.973818 0.338284 0.090391 0.603182
C96   C     C_R   0.032240 0.729644 0.896377 -0.073421
C97   C     C_R   0.934020 0.249567 0.092343 -0.066690
C98   C     C_R   0.123950 0.813280 0.935650 -0.243217
C99   C     C_R   0.848008 0.160889 0.030846 -0.243137
C100  C     C_R   0.974805 0.568708 0.030903 -0.208405
C101  C     C_R   0.028390 0.434940 0.972750 -0.242819
C102  C     C_R   0.943959 0.496540 0.052254 -0.075497
C103  C     C_R   0.058355 0.506172 0.950254 -0.077267
C104  C     C_R   0.969308 0.426838 0.020963 0.084565
C105  C     C_3   0.462902 0.963633 0.046842 0.036038
C106  C     C_R   0.032054 0.575220 0.980737 0.068505
C107  C     C_R   0.393938 0.498678 0.887440 0.792721
C108  C     C_R   0.606094 0.501004 0.112228 0.791588
C109  C     C_R   0.109102 0.500370 0.607770 0.774697
C110  C     C_R   0.891109 0.499880 0.392267 0.776764
C111  C     C_3   0.020782 0.434111 0.448609 -0.125615
C112  C     C_3   0.979979 0.566959 0.551714 -0.136993
C113  C     C_3   0.044855 0.530053 0.450648 -0.164959
C114  C     C_3   0.955821 0.470900 0.549602 -0.185055
C115  C     C_3   0.949071 0.500114 0.449325 0.051067
C116  C     C_3   0.549585 0.103209 0.051084 -0.003652
C117  C     C_3   0.051572 0.500768 0.550903 0.049688
C118  C     C_R   0.659977 0.789538 0.075030 0.150482
C119  C     C_R   0.584096 0.773695 0.102549 -0.136652
C120  C     C_R   0.594734 0.832756 0.192834 -0.146670
C121  C     C_R   0.680964 0.909129 0.256199 -0.111065
C122  C     C_R   0.756805 0.926340 0.229505 -0.160308
C123  C     C_R   0.746563 0.866631 0.139440 -0.080683
C124  C     C_R   0.348130 0.210273 0.924702 0.152793
C125  C     C_R   0.426224 0.225038 0.902266 -0.125949
C126  C     C_R   0.420114 0.168017 0.813201 -0.144617
F1    F     F_    0.745745 0.884632 0.987490 -0.711735
F2    F     F_    0.259290 0.112374 0.009202 -0.708777
F3    F     F_    0.913502 0.570542 0.875172 -0.697202
F4    F     F_    0.055501 0.426373 0.150491 -0.699532
H1    H     H_    0.080443 0.553941 0.408961 0.155404
H2    H     H_    0.078368 0.848963 0.341438 0.104514
H3    H     H_    0.906706 0.212870 0.811433 0.131169
H4    H     H_    0.103102 0.791229 0.195671 0.132144
H5    H     H_    0.913648 0.898349 0.559601 0.172431
H6    H     H_    0.087741 0.101653 0.440674 0.169689
H7    H     H_    0.723495 0.763744 0.820690 0.150113
H8    H     H_    0.276377 0.231309 0.174934 0.152282
H9    H     H_    0.632898 0.572076 0.730712 0.149813
H10   H     H_    0.363735 0.422959 0.265222 0.148039
H11   H     H_    0.550195 0.477778 0.796408 0.128498
H12   H     H_    0.920084 0.446512 0.590953 0.129083
H13   H     H_    0.445673 0.518787 0.200454 0.128139
H14   H     H_    0.039430 0.380601 0.407740 0.165300
H15   H     H_    0.962955 0.622080 0.593437 0.156852
H16   H     H_    0.666401 0.601655 0.036643 0.181895
H17   H     H_    0.333693 0.396217 0.961423 0.177311
H18   H     H_    0.149037 0.873969 0.924730 0.200346
H19   H     H_    0.816391 0.091022 0.029412 0.205815
H20   H     H_    0.254665 0.883709 0.018119 0.163282
H21   H     H_    0.737563 0.090650 0.920932 0.166731
H22   H     H_    0.201850 0.747462 0.045203 0.169068
H23   H     H_    0.972711 0.194483 0.915075 0.133150
H24   H     H_    0.807160 0.245220 0.917333 0.167289
H25   H     H_    0.954364 0.621006 0.053548 0.189556
H26   H     H_    0.048277 0.382146 0.949799 0.177438
H27   H     H_    0.861014 0.324976 0.401435 0.130880
H28   H     H_    0.139843 0.675833 0.598704 0.137146
H29   H     H_    0.380021 0.935180 0.875694 0.157050
H30   H     H_    0.619240 0.064529 0.122851 0.150153
H31   H     H_    0.404308 0.059546 0.058240 0.168052
H32   H     H_    0.595457 0.941364 0.939278 0.166165
H33   H     H_    0.456166 0.322339 0.393061 0.130944
H34   H     H_    0.044910 0.814855 0.092052 0.138146
H35   H     H_    0.543502 0.677376 0.606586 0.128881
H36   H     H_    0.341292 0.388780 0.407180 0.135819
H37   H     H_    0.658181 0.610731 0.592287 0.130966
H38   H     H_    0.482425 0.566928 0.417967 0.122752
H39   H     H_    0.517030 0.432451 0.581426 0.122016
H40   H     H_    0.516836 0.716289 0.054292 0.123748
H41   H     H_    0.536200 0.819691 0.213835 0.134290
H42   H     H_    0.689023 0.955138 0.325989 0.123608
H43   H     H_    0.823490 0.986034 0.278741 0.116307
H44   H     H_    0.806084 0.880308 0.119972 0.141676
H45   H     H_    0.054997 0.113079 0.869390 0.128458
H46   H     H_    0.491609 0.280039 0.953523 0.128132
H47   H     H_    0.480393 0.180174 0.796089 0.143832
H48   H     H_    0.331592 0.050853 0.677221 0.125953
H49   H     H_    0.193136 0.022295 0.715811 0.125239
H50   H     H_    0.202938 0.123787 0.872739 0.129964
H51   H     H_    0.018885 0.887706 0.935836 0.149541
H52   H     H_    0.917058 0.883514 0.842655 0.141988
H53   H     H_    0.808457 0.721379 0.695714 0.122262
H54   H     H_    0.800997 0.561775 0.641691 0.133480
H55   H     H_    0.903630 0.564546 0.732642 0.155271
H56   H     H_    0.960323 0.893744 0.132887 0.135411
H57   H     H_    0.862625 0.167244 0.186625 0.140605
H58   H     H_    0.939117 0.152665 0.284481 0.129697
H59   H     H_    0.101794 0.225374 0.313466 0.137285
H60   H     H_    0.187920 0.311815 0.242651 0.129913
H61   H     H_    0.112200 0.322098 0.140163 0.163296
H62   H     H_    0.606278 0.225716 0.974624 0.110956
H63   H     H_    0.662651 0.273401 0.872521 0.139254
H64   H     H_    0.658037 0.145148 0.727664 0.130430
H65   H     H_    0.596125 0.967435 0.685447 0.126474
H66   H     H_    0.540105 0.917971 0.787696 0.124860
H67   H     H_    0.070862 0.048047 0.719877 0.117972
H68   H     H_    0.447124 0.803534 0.043380 0.126856
H69   H     H_    0.376267 0.732753 0.128817 0.126659
H70   H     H_    0.315571 0.813822 0.239408 0.133953
H71   H     H_    0.324903 0.965785 0.263523 0.132466
H72   H     H_    0.393155 0.035923 0.177063 0.125043
H73   H     H_    0.937011 0.954086 0.279073 0.115917
H74   H     H_    0.923369 0.149922 0.662381 0.102514
O1    O     O_3   0.251620 0.500000 0.748430 -0.478954
O2    O     O_R   0.570330 0.268390 0.136490 -0.642497
O3    O     O_R   0.134680 0.268390 0.572240 -0.652036
O4    O     O_R   0.865320 0.731610 0.427760 -0.649211
O5    O     O_R   0.306670 0.731630 0.863510 -0.632041
O6    O     O_R   0.693330 0.268370 0.136490 -0.634543
O7    O     O_R   0.135450 0.439270 0.865360 -0.642988
O8    O     O_R   0.864550 0.560730 0.134640 -0.644067
O9    O     O_R   0.429670 0.560710 0.692610 -0.638096
O10   O     O_R   0.570330 0.439290 0.307390 -0.635256
O11   O     O_R   0.308540 0.439240 0.865360 -0.648255
O12   O     O_3   0.748380 0.500000 0.251570 -0.482599
O13   O     O_R   0.691460 0.560760 0.134640 -0.646877
O14   O     O_R   0.133580 0.439310 0.571150 -0.650292
O15   O     O_R   0.866420 0.560690 0.428850 -0.650180
O16   O     O_R   0.430770 0.560690 0.864590 -0.643977
O17   O     O_R   0.569230 0.439310 0.135410 -0.643509
O18   O     O_R   0.133580 0.560760 0.692610 -0.637821
O19   O     O_R   0.866420 0.439240 0.307390 -0.633084
O20   O     O_R   0.134680 0.560740 0.864590 -0.634732
O21   O     O_R   0.865320 0.439260 0.135410 -0.627695
O22   O     O_R   0.306670 0.439270 0.571150 -0.650281
O23   O     O_R   0.693330 0.560730 0.428850 -0.651506
O24   O     O_R   0.135450 0.268370 0.694460 -0.633584
O25   O     O_R   0.864550 0.731630 0.305540 -0.633464
O26   O     O_R   0.429670 0.731610 0.863510 -0.644868
Zn1   Zn    Zn3+2 0.207400 0.586780 0.791530 0.975231
Zn2   Zn    Zn3+2 0.792600 0.413220 0.208470 0.982959
Zn3   Zn    Zn3+2 0.208510 0.413230 0.792630 0.971121
Zn4   Zn    Zn3+2 0.791490 0.586770 0.207370 0.974978
Zn5   Zn    Zn3+2 0.383150 0.586740 0.791530 0.961436
Zn6   Zn    Zn3+2 0.616850 0.413260 0.208470 0.962726
Zn7   Zn    Zn3+2 0.207400 0.413250 0.618010 0.948169
Zn8   Zn    Zn3+2 0.792600 0.586750 0.381990 0.951294

loop_
_geom_bond_atom_site_label_1
_geom_bond_atom_site_label_2
_ccdc_geom_bond_type
C63   C65   A    
O3    Zn7   S    
C14   H57   S    
C32   H36   S    
C10   H54   S    
C64   C77   A    
O16   Zn5   S    
C22   H64   S    
C19   C20   A    
O11   Zn3   S    
C13   C116  S    
C81   C84   A    
C54   H23   S    
C112  C114  S    
C3    C126  A    
C67   C103  S    
C7    C8    A    
C47   C49   A    
C76   H7    S    
O19   Zn2   S    
C38   H38   S    
C99   H19   S    
C5    C124  A    
C26   C27   A    
C72   H29   S    
C74   C76   A    
C34   C40   S    
C114  H12   S    
O15   Zn8   S    
C28   C29   A    
C35   C37   S    
C3    H48   S    
C68   C102  S    
C55   H34   S    
C75   F2    S    
C37   C40   S    
C1    C59   S    
C42   C46   A    
C30   C31   A    
C86   C88   A    
C57   C59   A    
C63   C76   A    
C58   C60   A    
C15   C16   A    
C33   C36   S    
O12   Zn4   S    
C112  H15   S    
C126  H47   S    
O2    Zn6   S    
C50   C115  S    
O5    Zn1   S    
O25   Zn4   S    
C69   C71   A    
C85   H20   S    
C31   H72   S    
C85   C98   A    
C33   C35   S    
C118  C119  A    
C48   C51   A    
C83   H30   S    
C92   O23   A    
C16   C17   A    
C96   C98   A    
C89   C106  S    
C95   F4    S    
C125  H46   S    
C57   H6    S    
C67   O7    A    
C109  O14   A    
C32   C38   S    
C9    C10   A    
O10   Zn6   S    
C2    C24   S    
C44   O6    A    
C29   H70   S    
C72   C94   S    
C42   H56   S    
C64   C66   A    
C45   C47   A    
C41   H45   S    
C49   H74   S    
C26   C31   A    
C101  C103  A    
O22   Zn7   S    
O1    Zn7   S    
C21   C22   A    
C52   H3    S    
C73   C75   A    
C33   H37   S    
C27   H68   S    
C47   C62   S    
C2    C72   S    
C110  O19   A    
C26   C105  S    
C44   O2    A    
C40   H39   S    
C97   C99   A    
C52   C54   A    
C48   C60   S    
C53   C55   A    
C50   H27   S    
C41   C54   A    
C46   C48   A    
C18   H61   S    
C43   O26   A    
C28   H69   S    
C7    H51   S    
C85   C87   A    
C61   C117  S    
O21   Zn2   S    
O1    Zn5   S    
C35   C38   S    
C77   H8    S    
C13   C105  S    
C34   H33   S    
C10   C11   A    
O20   Zn1   S    
O4    Zn8   S    
C6    C11   A    
C79   C81   A    
C94   C116  S    
C68   O21   A    
C8    C9    A    
C57   C60   A    
C79   H17   S    
C66   H13   S    
C119  H40   S    
C101  H26   S    
C39   C58   S    
O7    Zn3   S    
C51   C53   A    
C32   C34   S    
C33   C40   S    
C109  C117  S    
C102  C104  A    
C5    H50   S    
C29   C30   A    
C9    H53   S    
C24   C94   S    
C42   C55   A    
C71   C74   A    
C65   H11   S    
C81   C107  S    
C39   O25   A    
C74   F1    S    
C2    C43   S    
C119  C120  A    
C73   C124  S    
C93   F3    S    
C39   O4    A    
C70   C73   A    
C100  C102  A    
C17   C18   A    
C12   C97   S    
C78   C80   A    
O26   Zn5   S    
C111  C113  S    
C32   C37   S    
C92   O10   A    
C86   C99   A    
C75   C77   A    
C90   C104  S    
C121  C122  A    
C25   H66   S    
C111  H14   S    
C43   O5    A    
C108  O13   A    
C1    O24   A    
C80   C82   A    
C46   H73   S    
C88   C90   A    
O18   Zn1   S    
C101  C104  A    
C6    C96   S    
C87   H22   S    
C87   C89   A    
O17   Zn6   S    
C110  O15   A    
C125  C126  A    
O12   Zn6   S    
C56   C62   A    
O1    Zn1   S    
C4    H49   S    
C12   C18   A    
C3    C4    A    
C68   O8    A    
C123  H44   S    
C120  C121  A    
C100  H25   S    
C64   H10   S    
C70   C82   S    
C8    H52   S    
C30   H71   S    
C59   C62   A    
O6    Zn2   S    
C113  H1    S    
C71   C118  S    
C11   H55   S    
C63   H9    S    
C83   C116  S    
C24   C83   S    
C22   C23   A    
C24   H32   S    
C53   H4    S    
C49   C52   A    
C12   C14   A    
C4    C5    A    
C90   C95   A    
O13   Zn4   S    
C20   H62   S    
C79   C82   A    
O8    Zn4   S    
C51   H2    S    
C95   C97   A    
C120  H41   S    
C13   H31   S    
C6    C7    A    
C13   C72   S    
C17   H60   S    
C93   C96   A    
C122  H43   S    
C15   H58   S    
C80   C108  S    
C2    C105  S    
C100  C106  A    
C111  C117  S    
O12   Zn8   S    
C36   C38   S    
C91   O9    A    
C69   C84   S    
O9    Zn5   S    
C86   H21   S    
C61   C113  S    
C108  O17   A    
O23   Zn8   S    
C36   C92   S    
C66   C70   A    
C98   H18   S    
C65   C69   A    
C110  C115  S    
O1    Zn3   S    
C50   C111  S    
O12   Zn2   S    
C56   C58   A    
C91   O22   A    
C103  C106  A    
C34   C36   S    
C118  C123  A    
C23   C25   A    
C89   C93   A    
C67   O20   A    
C1    O3    A    
C56   H5    S    
C114  C117  S    
C16   H59   S    
C78   H16   S    
C19   C25   A    
C21   H63   S    
C107  O16   A    
C78   C84   A    
C121  H42   S    
C107  O11   A    
C20   C21   A    
C44   C116  S    
C23   H65   S    
C27   C28   A    
C41   C45   A    
C14   C15   A    
C35   H35   S    
C83   C105  S    
O14   Zn7   S    
C50   C114  S    
C122  C123  A    
C61   H28   S    
C61   C112  S    
C45   H67   S    
C19   C94   S    
C112  C115  S    
C109  O18   A    
C37   C91   S    
C88   H24   S    
C124  C125  A    
C113  C115  S    
O24   Zn3   S    
