data_mof_unit_37199.cif
_audit_creation_date              2012-12-11T14:43:37-0500
_audit_creation_method            fapswitch 2.2
_symmetry_space_group_name_H-M    P1
_symmetry_Int_Tables_number       1
_space_group_crystal_system       triclinic
_cell_length_a                    20.934936
_cell_length_b                    7.084093
_cell_length_c                    16.440148
_cell_angle_alpha                 90.000148
_cell_angle_beta                  92.966448
_cell_angle_gamma                 90.000066
_cell_volume                      2434.88959814

loop_
_atom_site_label
_atom_site_type_symbol
_atom_type_description
_atom_site_fract_x
_atom_site_fract_y
_atom_site_fract_z
_atom_type_partial_charge
O1    O     O_R   0.564840 0.505290 0.579830 -0.537051
O2    O     O_R   0.435160 0.005290 0.420170 -0.537050
O3    O     O_R   0.556720 0.179930 0.409350 -0.539198
O4    O     O_R   0.443280 0.679930 0.590650 -0.539198
C1    C     C_R   0.571101 0.345040 0.381916 0.710233
C2    C     C_R   0.428899 0.845041 0.618083 0.710233
O5    O     O_R   0.572280 0.175810 0.578530 -0.541513
O6    O     O_R   0.427720 0.675810 0.421470 -0.541512
O7    O     O_R   0.450830 0.001920 0.590540 -0.534872
O8    O     O_R   0.549170 0.501920 0.409460 -0.534871
C3    C     C_R   0.590285 0.345168 0.604556 0.700155
C4    C     C_R   0.409715 0.845167 0.395444 0.700154
O9    O     O_3   0.460130 0.338030 0.503750 -0.372517
O10   O     O_3   0.539870 0.838030 0.496250 -0.372517
V1    V     V_3+5 0.507400 0.064560 0.499310 1.420581
V2    V     V_3+5 0.492600 0.564560 0.500690 1.420581
C5    C     C_R   0.138319 0.903118 0.176951 -0.098309
C6    C     C_R   0.861679 0.403114 0.823050 -0.098314
C7    C     C_R   0.356761 0.863720 0.332094 -0.058702
C8    C     C_R   0.643238 0.363721 0.667906 -0.058702
C9    C     C_R   0.311936 0.035678 0.213845 -0.006292
C10   C     C_R   0.688064 0.535682 0.786154 -0.006296
C11   C     C_R   0.362354 0.997171 0.270530 -0.238794
C12   C     C_R   0.637646 0.497176 0.729469 -0.238795
C13   C     C_R   0.300018 0.760401 0.334561 -0.218765
C14   C     C_R   0.699980 0.260398 0.665441 -0.218766
C15   C     C_R   0.246422 0.802027 0.280543 0.051228
C16   C     C_R   0.753576 0.302022 0.719460 0.051232
C17   C     C_R   0.250613 0.953520 0.223924 0.102998
C18   C     C_R   0.749386 0.453520 0.776077 0.102997
C19   C     C_R   0.193895 0.017864 0.180243 0.057919
C20   C     C_R   0.806104 0.517863 0.819759 0.057906
C21   C     C_R   0.134129 0.753799 0.234257 0.140363
C22   C     C_R   0.865868 0.253790 0.765747 0.140367
C23   C     C_R   0.188456 0.699368 0.284264 0.157317
C24   C     C_R   0.811540 0.199356 0.715742 0.157317
H1    H     H_    0.407723 0.066779 0.265027 0.116467
H2    H     H_    0.592278 0.566787 0.734971 0.116468
H3    H     H_    0.297316 0.655326 0.381963 0.132605
H4    H     H_    0.702682 0.155322 0.618039 0.132606
C25   C     C_R   0.387390 0.805940 0.839509 -0.014788
C26   C     C_R   0.612609 0.305943 0.160490 -0.014786
H5    H     H_    0.306751 0.797022 0.960186 0.167312
H6    H     H_    0.693249 0.297020 0.039814 0.167307
C27   C     C_R   0.392644 0.850563 0.692935 -0.063390
C28   C     C_R   0.607356 0.350562 0.307065 -0.063390
C29   C     C_R   0.084714 0.913096 0.736006 -0.202297
C30   C     C_R   0.915286 0.413095 0.263994 -0.202297
C31   C     C_R   0.116981 0.871025 0.666903 -0.121316
C32   C     C_R   0.883019 0.371024 0.333097 -0.121316
C33   C     C_R   0.181866 0.823938 0.671795 0.186577
C34   C     C_R   0.818134 0.323938 0.328205 0.186575
C35   C     C_R   0.218150 0.845332 0.747437 0.084925
C36   C     C_R   0.781850 0.345332 0.252563 0.084924
C37   C     C_R   0.183210 0.867638 0.820403 -0.046480
C38   C     C_R   0.816789 0.367638 0.179597 -0.046477
C39   C     C_R   0.287321 0.839790 0.753737 0.085718
C40   C     C_R   0.712679 0.339790 0.246263 0.085717
C41   C     C_R   0.319391 0.815695 0.831173 -0.019202
C42   C     C_R   0.680608 0.315696 0.168826 -0.019199
C43   C     C_R   0.283334 0.811821 0.900273 -0.140172
C44   C     C_R   0.716666 0.311821 0.099726 -0.140173
C45   C     C_R   0.217750 0.844669 0.896467 -0.036262
C46   C     C_R   0.782249 0.344667 0.103532 -0.036259
C47   C     C_R   0.325798 0.867905 0.686222 -0.269328
C48   C     C_R   0.674202 0.367905 0.313777 -0.269328
C49   C     C_R   0.424076 0.824649 0.770052 0.134126
C50   C     C_R   0.575924 0.324650 0.229948 0.134125
C51   C     C_R   0.115146 0.903542 0.813369 -0.085229
C52   C     C_R   0.884854 0.403542 0.186631 -0.085231
H7    H     H_    0.304982 0.908305 0.627507 0.132530
H8    H     H_    0.695018 0.408304 0.372493 0.132530
H9    H     H_    0.033838 0.937936 0.729139 0.116281
H10   H     H_    0.966162 0.437934 0.270862 0.116280
H11   H     H_    0.089689 0.861940 0.609171 0.124033
H12   H     H_    0.910311 0.361939 0.390829 0.124032
O11   O     O_R   0.950790 0.256670 0.090520 -0.530142
O12   O     O_R   0.049210 0.756670 0.909480 -0.530144
O13   O     O_R   0.927720 0.590370 0.921470 -0.554741
O14   O     O_R   0.072280 0.090370 0.078530 -0.554741
C53   C     C_R   0.912902 0.421684 0.890784 0.726367
C54   C     C_R   0.087098 0.921685 0.109216 0.726365
O15   O     O_R   0.943270 0.586180 0.090640 -0.544271
O16   O     O_R   0.056730 0.086180 0.909360 -0.544270
O17   O     O_R   0.064850 0.759970 0.079840 -0.514276
O18   O     O_R   0.935150 0.259970 0.920160 -0.514273
C55   C     C_R   0.928240 0.416709 0.117311 0.663612
C56   C     C_R   0.071760 0.916709 0.882689 0.663607
O19   O     O_3   0.039850 0.428050 0.996240 -0.365181
O20   O     O_3   0.960150 0.928050 0.003760 -0.365181
V3    V     V_3+5 0.992610 0.701540 0.000700 1.451118
V4    V     V_3+5 0.007390 0.201540 0.999300 1.451122
C57   C     C_3   0.188028 0.220523 0.150911 -0.627517
H13   H     H_    0.226301 0.312450 0.178008 0.194167
H14   H     H_    0.187968 0.228489 0.083584 0.238525
H15   H     H_    0.143138 0.283279 0.171676 0.189309
C58   C     C_3   0.811972 0.720521 0.849092 -0.627509
H16   H     H_    0.773699 0.812450 0.821997 0.194170
H17   H     H_    0.812033 0.728485 0.916419 0.238524
H18   H     H_    0.856862 0.783277 0.828327 0.189307
C59   C     C_3   0.205509 0.719548 0.598920 -0.839030
H19   H     H_    0.216540 0.820683 0.549989 0.204518
H20   H     H_    0.247324 0.628625 0.615385 0.221006
H21   H     H_    0.167944 0.621594 0.573890 0.212037
C60   C     C_3   0.794490 0.219547 0.401079 -0.839028
H22   H     H_    0.783459 0.320681 0.450011 0.204519
H23   H     H_    0.752676 0.128624 0.384614 0.221006
H24   H     H_    0.832056 0.121593 0.426109 0.212036
C61   C     C_2   0.189071 0.857574 0.975565 0.438980
H25   H     H_    0.162602 0.982394 0.990053 0.022373
O21   O     O_2   0.197872 0.732692 0.026142 -0.529376
C62   C     C_2   0.810930 0.357563 0.024435 0.438977
H26   H     H_    0.837396 0.482386 0.009945 0.022371
O22   O     O_2   0.802133 0.232671 0.973862 -0.529376
C63   C     C_3   0.069839 0.664005 0.247792 -0.760604
H27   H     H_    0.068053 0.520434 0.220800 0.200922
H28   H     H_    0.061771 0.656514 0.313947 0.197764
H29   H     H_    0.029059 0.747918 0.221598 0.195261
C64   C     C_3   0.930158 0.163994 0.752212 -0.760602
H30   H     H_    0.931948 0.020439 0.779219 0.200928
H31   H     H_    0.938220 0.156466 0.686056 0.197765
H32   H     H_    0.970938 0.247928 0.778392 0.195253
C65   C     C_2   0.328790 0.143780 0.140710 0.386813
H33   H     H_    0.366237 0.249754 0.145554 0.062994
O23   O     O_2   0.303925 0.107895 0.073707 -0.525217
C66   C     C_2   0.671210 0.643786 0.859289 0.386812
H34   H     H_    0.633764 0.749764 0.854444 0.062995
O24   O     O_2   0.696073 0.607900 0.926293 -0.525217
C67   C     C_3   0.185844 0.528032 0.339857 -0.804762
H35   H     H_    0.142196 0.441217 0.330134 0.217185
H36   H     H_    0.226149 0.431329 0.328341 0.207693
H37   H     H_    0.189104 0.574086 0.404494 0.208001
C68   C     C_3   0.814150 0.028005 0.660158 -0.804767
H38   H     H_    0.857793 0.941173 0.669895 0.217186
H39   H     H_    0.773838 0.931323 0.671669 0.207692
H40   H     H_    0.810900 0.074044 0.595519 0.208004
C69   C     C_3   0.496467 0.816977 0.779255 -0.726962
H41   H     H_    0.520266 0.821132 0.720723 0.176142
H42   H     H_    0.514599 0.940501 0.814944 0.243469
H43   H     H_    0.511394 0.685083 0.811318 0.204693
C70   C     C_3   0.503532 0.316977 0.220745 -0.726963
H44   H     H_    0.479733 0.321129 0.279276 0.176143
H45   H     H_    0.485400 0.440503 0.185057 0.243469
H46   H     H_    0.488606 0.185085 0.188681 0.204691
C71   C     C_2   0.420038 0.769255 0.920789 0.422306
H47   H     H_    0.403547 0.655620 0.958691 0.067578
O25   O     O_2   0.464256 0.868153 0.946840 -0.507639
C72   C     C_2   0.579962 0.269262 0.079210 0.422308
H48   H     H_    0.596451 0.155627 0.041307 0.067578
O26   O     O_2   0.535744 0.368164 0.053160 -0.507639

loop_
_geom_bond_atom_site_label_1
_geom_bond_atom_site_label_2
_ccdc_geom_bond_type
O15   C55   A    
O11   V4    S    
C45   C61   S    
C66   H34   S    
C2    C27   S    
C15   C17   A    
C35   C37   A    
O1    C3    A    
C26   C72   S    
C24   C68   S    
C2    O7    A    
C62   O22   D    
C58   H16   S    
O17   V3    S    
C65   H33   S    
C29   C31   A    
C30   C32   A    
O5    C3    A    
C69   H42   S    
C57   H13   S    
C30   C52   A    
C72   O26   D    
C28   C48   A    
C61   O21   D    
C65   O23   D    
C40   C42   A    
C63   H27   S    
C6    C53   S    
C20   C58   S    
C42   C44   A    
C5    C54   S    
C31   C33   A    
C43   C45   A    
C29   C51   A    
C44   C46   A    
C71   O25   D    
O20   V4    S    
C40   C48   A    
C48   H8    S    
C8    C12   A    
C47   H7    S    
C63   H28   S    
C37   C45   A    
C27   C49   A    
C68   H40   S    
C12   H2    S    
C38   C46   A    
O19   V3    S    
C23   C67   S    
O13   V3    S    
C53   O18   A    
C67   H37   S    
O5    V1    S    
C69   H41   S    
O2    C4    A    
C59   H20   S    
C26   C50   A    
C5    C21   A    
C7    C13   A    
C52   C55   S    
C62   H26   S    
C58   H17   S    
C34   C36   A    
C71   H47   S    
C64   H31   S    
C39   C41   A    
C69   H43   S    
C36   C38   A    
C3    C8    S    
C21   C63   S    
C41   C43   A    
C59   H19   S    
C30   H10   S    
C16   C24   A    
C72   H48   S    
C29   H9    S    
C25   C49   A    
C70   H46   S    
C26   C42   A    
O13   C53   A    
C35   C39   A    
C15   C23   A    
C11   H1    S    
C9    C17   A    
C33   C35   A    
O4    V2    S    
C7    C11   A    
C28   C50   A    
C32   H12   S    
C60   H23   S    
C32   C34   A    
O6    C4    A    
C63   H29   S    
C31   H11   S    
C50   C70   S    
O1    V2    S    
C60   H24   S    
O19   V4    S    
O2    V1    S    
C6    C22   A    
C25   C41   A    
C37   C51   A    
C51   C56   S    
O14   C54   A    
C34   C60   S    
C57   H15   S    
C38   C52   A    
C9    C11   A    
C27   C47   A    
C68   H38   S    
C5    C19   A    
C10   C12   A    
O4    C2    A    
C6    C20   A    
O18   V4    S    
C58   H18   S    
O3    V1    S    
H5    C43   S    
C67   H35   S    
C36   C40   A    
C64   H32   S    
O12   C56   A    
C22   C64   S    
C66   O24   D    
C10   C18   A    
C17   C19   A    
O16   C56   A    
C39   C47   A    
O3    C1    A    
C64   H30   S    
O12   V3    S    
C59   H21   S    
C54   O17   A    
O15   V3    S    
C60   H22   S    
C14   C16   A    
H6    C44   S    
C70   H45   S    
O7    V1    S    
C1    O8    A    
O14   V4    S    
C19   C57   S    
C70   H44   S    
C13   H3    S    
C18   C20   A    
C14   H4    S    
O20   V3    S    
C57   H14   S    
C8    C14   A    
C4    C7    S    
C16   C18   A    
C21   C23   A    
C22   C24   A    
C49   C69   S    
C46   C62   S    
C10   C66   S    
C25   C71   S    
O11   C55   A    
O6    V2    S    
O9    V2    S    
C68   H39   S    
O10   V1    S    
O8    V2    S    
C9    C65   S    
O16   V4    S    
C67   H36   S    
C61   H25   S    
C33   C59   S    
C1    C28   S    
C13   C15   A    
