data_mof_unit_53850.cif
_audit_creation_date              2012-12-11T16:22:24-0500
_audit_creation_method            fapswitch 2.2
_symmetry_space_group_name_H-M    P1
_symmetry_Int_Tables_number       1
_space_group_crystal_system       triclinic
_cell_length_a                    19.644119
_cell_length_b                    6.933779
_cell_length_c                    17.768806
_cell_angle_alpha                 89.965267
_cell_angle_beta                  108.050768
_cell_angle_gamma                 90.031919
_cell_volume                      2301.13335701

loop_
_atom_site_label
_atom_site_type_symbol
_atom_type_description
_atom_site_fract_x
_atom_site_fract_y
_atom_site_fract_z
_atom_type_partial_charge
O1    O     O_R   0.561700 0.369960 0.440190 -0.537899
O2    O     O_R   0.061700 0.630040 0.940190 -0.551519
O3    O     O_R   0.413790 0.033680 0.407460 -0.549909
O4    O     O_R   0.913790 0.966320 0.907460 -0.544984
O5    O     O_R   0.438300 0.869760 0.559810 -0.547917
O6    O     O_R   0.938300 0.130240 0.059810 -0.550405
C1    C     C_R   0.388234 0.204045 0.383045 0.659316
C2    C     C_R   0.888064 0.796005 0.883248 0.653592
O7    O     O_R   0.559630 0.039830 0.430710 -0.538647
O8    O     O_R   0.059630 0.960170 0.930710 -0.519441
O9    O     O_R   0.585190 0.875950 0.583220 -0.505111
O10   O     O_R   0.085190 0.124050 0.083220 -0.503780
C3    C     C_R   0.581743 0.208628 0.416802 0.720201
C4    C     C_R   0.080600 0.791267 0.915363 0.789904
O11   O     O_R   0.414810 0.363770 0.416780 -0.543407
O12   O     O_R   0.914810 0.636230 0.916780 -0.549045
O13   O     O_3   0.508210 0.205480 0.550010 -0.351569
O14   O     O_3   0.008210 0.794520 0.050010 -0.352347
V1    V     V_3+5 0.498480 0.928140 0.490720 1.466335
V2    V     V_3+5 0.998480 0.071860 0.990720 1.502902
O15   O     O_R   0.586210 0.546600 0.592540 -0.546572
O16   O     O_R   0.086210 0.453400 0.092540 -0.546905
C5    C     C_R   0.612807 0.716621 0.616413 0.752589
C6    C     C_R   0.112908 0.283401 0.116275 0.745950
O17   O     O_R   0.440370 0.540460 0.569290 -0.509602
O18   O     O_R   0.940370 0.459540 0.069290 -0.509563
C7    C     C_R   0.419198 0.708896 0.585122 0.721684
C8    C     C_R   0.918299 0.291134 0.084030 0.719086
V3    V     V_3+5 0.501520 0.428910 0.509280 1.485563
V4    V     V_3+5 0.001520 0.571090 0.009280 1.493555
O19   O     O_3   0.491790 0.701440 0.449990 -0.379883
O20   O     O_3   0.991790 0.298560 0.949990 -0.376613
C9    C     C_R   0.295446 0.911708 0.693330 -0.081221
C10   C     C_R   0.808026 0.088273 0.208126 -0.082838
H1    H     H_    0.275380 0.052499 0.702236 0.166851
H2    H     H_    0.798089 0.947574 0.229074 0.163857
C11   C     C_R   0.340924 0.897002 0.646613 -0.253547
C12   C     C_R   0.855311 0.103006 0.163492 -0.245640
H3    H     H_    0.352603 0.025979 0.618739 0.204832
H4    H     H_    0.882117 0.974135 0.153359 0.207603
C13   C     C_R   0.370682 0.718886 0.635432 -0.162342
C14   C     C_R   0.868407 0.281218 0.132694 -0.163005
C15   C     C_R   0.353351 0.553674 0.672808 0.442216
C16   C     C_R   0.832153 0.446312 0.147702 0.446768
C17   C     C_R   0.304230 0.568083 0.715786 -0.167730
C18   C     C_R   0.787486 0.431719 0.195966 -0.160706
H5    H     H_    0.288498 0.437997 0.739837 0.155396
H6    H     H_    0.763088 0.561375 0.209882 0.153004
C19   C     C_R   0.275659 0.747034 0.727667 0.099307
C20   C     C_R   0.774229 0.252820 0.225900 0.100145
C21   C     C_R   0.240560 0.665509 0.849389 0.429536
C22   C     C_R   0.657045 0.326034 0.250708 0.427785
C23   C     C_R   0.191105 0.669245 0.891684 -0.321267
C24   C     C_R   0.612552 0.319159 0.298872 -0.281270
H7    H     H_    0.202883 0.589708 0.946777 0.153102
H8    H     H_    0.560886 0.390138 0.279033 0.149879
C25   C     C_R   0.129078 0.781756 0.866097 -0.168245
C26   C     C_R   0.632647 0.217394 0.370394 -0.221474
C27   C     C_R   0.114896 0.888063 0.795341 0.260072
C28   C     C_R   0.700646 0.125425 0.396078 0.261700
C29   C     C_R   0.161019 0.868846 0.747563 0.232677
C30   C     C_R   0.747007 0.137494 0.348603 0.321553
C31   C     C_R   0.225292 0.761771 0.775790 -0.063690
C32   C     C_R   0.725303 0.238230 0.275732 -0.096148
C33   C     C_2   0.711263 0.898198 0.715926 0.521725
C34   C     C_2   0.211794 0.101676 0.215049 0.521094
C35   C     C_2   0.676969 0.729883 0.687879 -0.347148
C36   C     C_2   0.177380 0.270102 0.187376 -0.343208
H9    H     H_    0.695419 0.596536 0.719633 0.133292
H10   H     H_    0.195993 0.403473 0.219022 0.146367
C37   C     C_2   0.772469 0.902209 0.791635 -0.273018
C38   C     C_2   0.273244 0.096377 0.290453 -0.248169
C39   C     C_2   0.827421 0.777128 0.808730 0.169105
C40   C     C_2   0.327730 0.223155 0.308363 0.146829
H11   H     H_    0.774045 0.020889 0.832062 0.092470
H12   H     H_    0.275247 0.975650 0.330114 0.109279
O21   O     O_3   0.827816 0.632519 0.755225 -0.654449
H13   H     H_    0.873808 0.561769 0.774274 0.295147
O22   O     O_3   0.327796 0.369897 0.255555 -0.665087
H14   H     H_    0.373616 0.441409 0.274921 0.282935
O23   O     O_3   0.381304 0.375393 0.664164 -0.556096
C41   C     C_3   0.436273 0.330857 0.734579 -0.258751
H15   H     H_    0.414437 0.307578 0.784649 0.140168
H16   H     H_    0.478378 0.444714 0.749776 0.122755
H17   H     H_    0.462247 0.194557 0.725544 0.163849
O24   O     O_3   0.842503 0.624498 0.118262 -0.554103
C42   C     C_3   0.783977 0.663395 0.050420 -0.273678
H18   H     H_    0.733581 0.680728 0.065863 0.144262
H19   H     H_    0.777577 0.549303 0.004623 0.121414
H20   H     H_    0.794253 0.801288 0.024114 0.150884
O25   O     O_3   0.302832 0.560244 0.879304 -0.554826
C43   C     C_3   0.355294 0.681399 0.929154 -0.263243
H21   H     H_    0.339184 0.730974 0.980766 0.140344
H22   H     H_    0.366853 0.807327 0.896119 0.134372
H23   H     H_    0.405665 0.598082 0.952432 0.159439
O26   O     O_3   0.634027 0.425020 0.179787 -0.553532
C44   C     C_3   0.595067 0.296547 0.120600 -0.268518
H24   H     H_    0.546274 0.242904 0.133189 0.141485
H25   H     H_    0.628892 0.173330 0.113491 0.136598
H26   H     H_    0.577344 0.374959 0.063385 0.156332
O27   O     O_3   0.055326 0.005996 0.773785 -0.641662
H27   H     H_    0.064281 0.113793 0.741484 0.298501
O28   O     O_3   0.724553 0.027557 0.467401 -0.651254
H28   H     H_    0.693081 0.053985 0.500097 0.296717
O29   O     O_3   0.143228 0.945145 0.672088 -0.641502
H29   H     H_    0.090483 0.955708 0.650343 0.310509
O30   O     O_3   0.815118 0.058855 0.373176 -0.635731
H30   H     H_    0.823676 0.991328 0.424319 0.344473
O31   O     O_3   0.683309 0.071003 0.679293 -0.553624
C45   C     C_3   0.738629 0.195332 0.674232 -0.207838
H31   H     H_    0.778947 0.119059 0.652703 0.158381
H32   H     H_    0.764827 0.265649 0.732139 0.156202
H33   H     H_    0.714809 0.310731 0.630822 0.166772
O32   O     O_3   0.183564 0.928926 0.178777 -0.543328
C46   C     C_3   0.238444 0.811079 0.168234 -0.216570
H34   H     H_    0.269540 0.742408 0.224952 0.160220
H35   H     H_    0.274597 0.892508 0.142126 0.121680
H36   H     H_    0.213504 0.693961 0.126219 0.159017

loop_
_geom_bond_atom_site_label_1
_geom_bond_atom_site_label_2
_ccdc_geom_bond_type
C34   C36   D    
C42   H18   S    
O27   H27   S    
C19   C31   S    
O6    C8    A    
O13   V3    S    
O4    C2    A    
V1    O19   S    
O32   C46   S    
O21   H13   S    
O9    V1    S    
C12   C14   A    
O3    C1    A    
C24   C26   A    
C25   C27   A    
C26   C28   A    
C46   H34   S    
C44   H24   S    
C20   C32   S    
C28   C30   A    
C5    C35   S    
C29   C31   A    
O7    C3    A    
C45   H31   S    
C2    C39   S    
C30   C32   A    
C21   O25   S    
O5    C7    A    
O7    V1    S    
C34   C38   S    
O8    V2    S    
C46   H35   S    
O30   H30   S    
O3    V1    S    
O14   V4    S    
V4    O20   S    
C28   O28   S    
C29   O29   S    
C10   H2    S    
C38   H12   S    
C22   C24   A    
C17   H5    S    
C2    O12   A    
C37   H11   S    
C13   C15   A    
C14   C16   A    
C16   O24   S    
O1    V3    S    
C44   H25   S    
C16   C18   A    
O11   V3    S    
C1    C40   S    
C18   H6    S    
C23   H7    S    
O17   V3    S    
C24   H8    S    
C10   C20   A    
C27   C29   A    
C27   O27   S    
C21   C31   A    
C38   C40   D    
C22   C32   A    
O25   C43   S    
C37   C39   D    
C23   C25   A    
O24   C42   S    
O13   V1    S    
C3    C26   S    
C33   C35   D    
C33   C37   S    
O15   V3    S    
C43   H23   S    
O23   C41   S    
C21   C23   A    
C7    C13   S    
C17   C19   A    
C46   H36   S    
O26   C44   S    
O10   V2    S    
C43   H22   S    
C15   C17   A    
C45   H33   S    
C33   O31   S    
O5    V1    S    
C36   H10   S    
O18   V4    S    
C41   H16   S    
C40   O22   S    
O15   C5    A    
O8    C4    A    
C15   O23   S    
O16   C6    A    
O1    C3    A    
O12   V4    S    
C44   H26   S    
C9    C11   A    
V2    O20   S    
C4    C25   S    
O10   C6    A    
C34   O32   S    
C10   C12   A    
C30   O30   S    
O17   C7    A    
C41   H17   S    
O6    V2    S    
O29   H29   S    
C18   C20   A    
O18   C8    A    
O2    V4    S    
C42   H19   S    
C11   H3    S    
O16   V4    S    
O31   C45   S    
C12   H4    S    
C1    O11   A    
O9    C5    A    
C43   H21   S    
C9    H1    S    
C22   O26   S    
O14   V2    S    
C11   C13   A    
O2    C4    A    
C45   H32   S    
C6    C36   S    
O22   H14   S    
O4    V2    S    
V3    O19   S    
C41   H15   S    
C42   H20   S    
O28   H28   S    
C39   O21   S    
C35   H9    S    
C9    C19   A    
C8    C14   S    
