data_mof_unit_49768.cif
_audit_creation_date              2013-03-05T16:35:51-0500
_audit_creation_method            fapswitch 2.2
_symmetry_space_group_name_H-M    P1
_symmetry_Int_Tables_number       1
_space_group_crystal_system       triclinic
_cell_length_a                    23.592591
_cell_length_b                    9.100076
_cell_length_c                    7.776812
_cell_angle_alpha                 90.072883
_cell_angle_beta                  90.008013
_cell_angle_gamma                 89.963486
_cell_volume                      1669.63605577

loop_
_atom_site_label
_atom_site_type_symbol
_atom_site_description
_atom_site_fract_x
_atom_site_fract_y
_atom_site_fract_z
_atom_type_partial_charge
O1    O     O_R   0.500000 0.288390 0.642760 -0.570204
O2    O     O_R   0.500000 0.711610 0.357240 -0.570822
O3    O     O_R   0.500000 0.711610 0.642760 -0.570322
O4    O     O_R   0.500000 0.288390 0.357240 -0.571332
H1    H     H_    0.951358 0.126632 0.476049 0.181718
H2    H     H_    0.048803 0.872573 0.529663 0.182041
H3    H     H_    0.945769 0.867955 0.516363 0.186340
H4    H     H_    0.054384 0.132145 0.463042 0.187283
C1    C     C_R   0.500022 0.219976 0.499931 0.871619
C2    C     C_R   0.499985 0.780024 0.500065 0.872203
O5    O     O_R   0.417880 0.500000 0.642820 -0.558727
O6    O     O_R   0.582120 0.500000 0.357180 -0.544357
O7    O     O_R   0.582120 0.500000 0.642820 -0.558360
O8    O     O_R   0.417880 0.500000 0.357180 -0.544923
C3    C     C_R   0.208762 0.508933 0.504755 0.093013
C4    C     C_R   0.791341 0.490022 0.504292 0.089779
C5    C     C_R   0.390671 0.499919 0.499976 0.934670
C6    C     C_R   0.609343 0.500170 0.499980 0.933683
Cu1   Cu    Cu3+1 0.500000 0.500000 0.669080 1.142603
Cu2   Cu    Cu3+1 0.500000 0.500000 0.330920 1.150583
C7    C     C_R   0.298216 0.579874 0.371940 0.180684
C8    C     C_R   0.701736 0.422821 0.369319 0.181302
C9    C     C_R   0.297844 0.426259 0.630619 0.264827
C10   C     C_R   0.702316 0.570959 0.632703 0.264174
C11   C     C_R   0.328026 0.501202 0.500215 -0.369847
C12   C     C_R   0.672016 0.498910 0.500071 -0.370063
C13   C     C_R   0.880073 0.625209 0.495549 0.578727
C14   C     C_R   0.120200 0.375121 0.480052 0.580039
C15   C     C_R   0.882052 0.362679 0.501506 0.633317
C16   C     C_R   0.118235 0.635841 0.517655 0.630702
N1    N     N_R   0.852474 0.492554 0.500283 -0.444416
N2    N     N_R   0.147715 0.506707 0.500679 -0.444432
C17   C     C_R   0.941434 0.363055 0.492651 -0.039985
C18   C     C_R   0.058832 0.636170 0.510653 -0.038507
C19   C     C_R   0.939439 0.630722 0.500615 -0.035804
C20   C     C_R   0.060825 0.369277 0.482974 -0.035644
C21   C     C_R   0.970245 0.498362 0.496262 -0.012395
C22   C     C_R   0.030027 0.501290 0.496358 -0.012013
C23   C     C_R   0.972572 0.231840 0.481234 -0.143402
C24   C     C_R   0.027655 0.767530 0.518644 -0.143617
C25   C     C_R   0.968583 0.764932 0.510971 -0.137248
C26   C     C_R   0.031643 0.235038 0.473729 -0.137979
C27   C     C_1   0.500009 0.065350 0.499904 -0.064229
C28   C     C_1   0.499996 0.934650 0.500089 -0.064223
C29   C     C_R   0.238299 0.579462 0.371385 0.390943
C30   C     C_R   0.761642 0.424703 0.367221 0.392339
C31   C     C_R   0.238572 0.436688 0.638147 0.341821
C32   C     C_R   0.761516 0.557745 0.641188 0.339523
N3    N     N_1   0.500000 0.500000 0.076820 0.005542
N4    N     N_1   0.500000 0.500000 0.923180 0.003587
O9    O     O_2   0.850092 0.751357 0.487059 -0.457794
O10   O     O_2   0.150292 0.250334 0.457983 -0.460699
O11   O     O_2   0.854097 0.233673 0.512287 -0.466441
O12   O     O_2   0.146346 0.763302 0.541969 -0.469057
O13   O     O_3   0.206693 0.647739 0.244541 -0.651774
H5    H     H_    0.231480 0.706393 0.168757 0.382881
O14   O     O_3   0.793050 0.362595 0.235479 -0.651915
H6    H     H_    0.767979 0.312578 0.152283 0.381927
O15   O     O_3   0.210940 0.370186 0.774127 -0.608904
H7    H     H_    0.172081 0.410313 0.784060 0.336428
O16   O     O_3   0.789201 0.617583 0.781403 -0.608235
H8    H     H_    0.827246 0.572571 0.792020 0.336009
N5    N     N_R   0.328701 0.663678 0.246061 0.141751
O17   O     O_R   0.358907 0.776252 0.293412 -0.327856
O18   O     O_R   0.328198 0.624217 0.085239 -0.291730
N6    N     N_R   0.671200 0.338503 0.243759 0.141776
O19   O     O_R   0.668794 0.382075 0.084706 -0.294267
O20   O     O_R   0.642616 0.223186 0.290968 -0.325538
N7    N     N_R   0.326966 0.333704 0.751859 0.191686
O21   O     O_R   0.361608 0.232570 0.697163 -0.338428
O22   O     O_R   0.314431 0.338881 0.914697 -0.222678
N8    N     N_R   0.673443 0.663547 0.754880 0.192345
O23   O     O_R   0.638688 0.764624 0.700989 -0.338428
O24   O     O_R   0.686720 0.659758 0.917199 -0.221269

loop_
_geom_bond_atom_site_label_1
_geom_bond_atom_site_label_2
_geom_bond_distance
_ccdc_geom_bond_type
N6    O20   1.301047 A    
O13   H5    0.987688 S    
N5    O18   1.300823 A    
C9    N7    1.439293 S    
C20   C26   1.404369 A    
Cu1   Cu2   2.629808 S    
C6    C12   1.478658 S    
C3    C31   1.415600 A    
C4    C32   1.416448 A    
O14   H6    0.987478 S    
C3    N2    1.440756 S    
C4    N1    1.442824 S    
C16   O12   1.349587 S    
O5    Cu1   1.948131 S    
C17   C23   1.404278 A    
O7    C6    1.283226 A    
C18   C24   1.404468 A    
C19   C21   1.406753 A    
C21   C22   1.410674 A    
H4    C26   1.081978 S    
C15   C17   1.402685 A    
N7    O22   1.301262 A    
C8    N6    1.435204 S    
O3    Cu1   1.936774 S    
H3    C25   1.081496 S    
N6    O19   1.300625 A    
O15   H7    0.989601 S    
O8    C5    1.282756 A    
O16   H8    0.989871 S    
C13   O9    1.349663 S    
C23   C26   1.395182 A    
C7    C29   1.413620 A    
C1    C27   1.407107 S    
O1    Cu1   1.936257 S    
C16   C18   1.402524 A    
C2    C28   1.407107 S    
C10   C32   1.403339 A    
O8    Cu2   1.948188 S    
C14   N2    1.371663 A    
O1    C1    1.272636 A    
C13   N1    1.372481 A    
N8    O24   1.301060 A    
C4    C30   1.406873 A    
O7    Cu1   1.948185 S    
C13   C19   1.402081 A    
O2    Cu2   1.936256 S    
C17   C21   1.407088 A    
C27   C28   1.189388 T    
Cu2   N3    1.976087 S    
O6    Cu2   1.948129 S    
C29   O13   1.384154 S    
C24   C25   1.395168 A    
C8    C30   1.413549 A    
H1    C23   1.081321 S    
C30   O14   1.384344 S    
H2    C24   1.081852 S    
C3    C29   1.405620 A    
O2    C2    1.272615 A    
C10   N8    1.440171 S    
C7    C11   1.415379 A    
O5    C5    1.282924 A    
C18   C22   1.407638 A    
C10   C12   1.415439 A    
N8    O23   1.301521 A    
C5    C11   1.478010 S    
C9    C31   1.402750 A    
C20   C22   1.407331 A    
C15   N1    1.372168 A    
O3    C2    1.273108 A    
C16   N2    1.371375 A    
C14   O10   1.349626 S    
Cu1   N4    1.976087 S    
C32   O16   1.382350 S    
C15   O11   1.349611 S    
C9    C11   1.415345 A    
N7    O21   1.301559 A    
C19   C25   1.404163 A    
C7    N5    1.435260 S    
C31   O15   1.382693 S    
N5    O17   1.301093 A    
O4    Cu2   1.936775 S    
C14   C20   1.402053 A    
N3    N4    1.194830 T    
C8    C12   1.415207 A    
O6    C6    1.282796 A    
O4    C1    1.273086 A    
