data_mof_unit_33129.cif
_audit_creation_date              2012-12-10T16:45:20-0500
_audit_creation_method            fapswitch 2.2
_symmetry_space_group_name_H-M    P1
_symmetry_Int_Tables_number       1
_space_group_crystal_system       triclinic
_cell_length_a                    7.520095
_cell_length_b                    8.67353
_cell_length_c                    15.778025
_cell_angle_alpha                 95.447235
_cell_angle_beta                  75.261745
_cell_angle_gamma                 103.585121
_cell_volume                      966.750244616

loop_
_atom_site_label
_atom_site_type_symbol
_atom_type_description
_atom_site_fract_x
_atom_site_fract_y
_atom_site_fract_z
_atom_type_partial_charge
C1    C     C_R   0.545341 0.800053 0.502664 0.864687
C2    C     C_R   0.454797 0.199945 0.497149 0.863155
C3    C     C_R   0.274914 0.428569 0.082582 -0.220158
C4    C     C_R   0.703106 0.643436 0.927921 -0.200285
C5    C     C_R   0.145223 0.392606 0.031077 -0.171176
C6    C     C_R   0.831463 0.684052 0.980054 -0.165404
C7    C     C_2   0.570133 0.968592 0.503999 -0.366675
C8    C     C_2   0.430207 0.031399 0.495533 -0.368144
C9    C     C_R   0.384814 0.488650 0.666135 0.815783
C10   C     C_R   0.615228 0.512511 0.334000 0.812116
C11   C     C_R   0.314890 0.476077 0.761707 -0.120081
C12   C     C_R   0.684887 0.538137 0.239563 -0.115589
C13   C     C_R   0.067546 0.383973 0.889998 0.424819
C14   C     C_R   0.917715 0.674801 0.117684 0.444360
C15   C     C_R   0.125819 0.411398 0.800081 -0.261471
C16   C     C_R   0.866570 0.624862 0.204515 -0.276752
C17   C     C_R   0.443342 0.522953 0.814438 -0.254496
C18   C     C_R   0.558057 0.490352 0.186364 -0.253406
C19   C     C_R   0.389200 0.502378 0.905294 0.024447
C20   C     C_R   0.600672 0.541180 0.100270 0.028936
C21   C     C_R   0.199630 0.426818 0.942450 0.071890
C22   C     C_R   0.784360 0.632727 0.065699 0.077047
C23   C     C_R   0.520232 0.549687 0.959333 0.129201
C24   C     C_R   0.465155 0.504551 0.048149 0.110510
Cu1   Cu    Cu3+1 0.322120 0.483240 0.490330 0.958597
Cu2   Cu    Cu3+1 0.677880 0.516760 0.509670 0.960183
H1    H     H_    0.001215 0.335647 0.061272 0.176276
H2    H     H_    0.969024 0.756818 0.952476 0.172544
H3    H     H_    0.425633 0.413467 0.214729 0.184442
H4    H     H_    0.587453 0.570213 0.782231 0.207057
H5    H     H_    0.966531 0.657084 0.245254 0.196195
H6    H     H_    0.024103 0.377480 0.760222 0.203783
H7    H     H_    0.218306 0.399028 0.150210 0.176963
H8    H     H_    0.750529 0.692689 0.863823 0.148768
H9    H     H_    0.704281 0.041173 0.512103 0.169858
H10   H     H_    0.296104 0.958826 0.487368 0.169491
N1    N     N_2   0.945180 0.542040 0.524240 -0.203438
N2    N     N_2   0.054820 0.457960 0.475760 -0.203300
O1    O     O_R   0.384450 0.714270 0.493720 -0.604616
O2    O     O_R   0.615550 0.285730 0.506280 -0.603314
O3    O     O_R   0.684880 0.742590 0.510050 -0.602816
O4    O     O_R   0.315120 0.257410 0.489950 -0.603166
O5    O     O_R   0.265540 0.477900 0.617090 -0.594245
O6    O     O_R   0.734460 0.522100 0.382910 -0.593947
O7    O     O_R   0.565970 0.506210 0.633420 -0.554216
O8    O     O_R   0.434030 0.493790 0.366580 -0.553646
O9    O     O_3   0.878640 0.326807 0.927904 -0.576619
C25   C     C_3   0.831566 0.161611 0.910597 0.042464
H11   H     H_    0.921005 0.099692 0.935706 0.130680
H12   H     H_    0.847558 0.133936 0.839040 0.147242
C26   C     C_3   0.626757 0.098619 0.957050 -0.775445
H13   H     H_    0.533512 0.156352 0.932395 0.252034
H14   H     H_    0.587215 0.968321 0.944727 0.209112
H15   H     H_    0.606537 0.124225 0.028779 0.244154
O10   O     O_3   0.101220 0.752323 0.079733 -0.588818
C27   C     C_3   0.164066 0.890258 0.129139 0.044519
H16   H     H_    0.054810 0.921942 0.186265 0.121039
H17   H     H_    0.209264 0.992403 0.085297 0.164849
C28   C     C_3   0.334339 0.872574 0.159964 -0.786614
H18   H     H_    0.447793 0.850285 0.102751 0.251848
H19   H     H_    0.388547 0.983145 0.195625 0.196174
H20   H     H_    0.295203 0.771881 0.204402 0.260813
C29   C     C_2   0.994235 0.619870 0.600637 0.702188
H21   H     H_    0.099503 0.729496 0.596701 -0.000520
O11   O     O_2   0.910485 0.568235 0.672556 -0.615144
C30   C     C_2   0.007136 0.382908 0.398542 0.701942
H22   H     H_    0.902239 0.273110 0.401294 -0.003908
O12   O     O_2   0.090492 0.438006 0.327333 -0.622757

loop_
_geom_bond_atom_site_label_1
_geom_bond_atom_site_label_2
_ccdc_geom_bond_type
Cu1   O4    S    
C10   O8    A    
C30   O12   D    
C23   C24   A    
C29   O11   D    
Cu2   N1    S    
C9    O7    A    
N1    N2    D    
C14   C16   A    
C6    H2    S    
Cu1   N2    S    
C19   C23   A    
O9    C25   S    
C27   C28   S    
O10   C27   S    
C26   H15   S    
Cu1   O5    S    
C25   H12   S    
C14   O10   S    
C13   C21   A    
C7    C8    D    
C18   H3    S    
C1    C7    S    
Cu1   O1    S    
C16   H5    S    
C17   H4    S    
C9    C11   S    
Cu2   O2    S    
C3    C24   A    
C10   C12   S    
C2    O4    A    
C10   O6    A    
C7    H9    S    
C1    O3    A    
C25   H11   S    
N1    C29   S    
C20   C22   A    
C30   H22   S    
C19   C21   A    
C18   C20   A    
C13   C15   A    
C14   C22   A    
C4    H8    S    
C9    O5    A    
C28   H19   S    
C1    O1    A    
C26   H14   S    
Cu2   O6    S    
C29   H21   S    
C6    C22   A    
C2    O2    A    
C28   H18   S    
C26   H13   S    
C27   H16   S    
N2    C30   S    
C4    C6    A    
C8    H10   S    
C12   C18   A    
C13   O9    S    
C4    C23   A    
C3    H7    S    
C11   C17   A    
C28   H20   S    
Cu2   O7    S    
C17   C19   A    
Cu1   Cu2   S    
C5    H1    S    
C11   C15   A    
Cu1   O8    S    
C20   C24   A    
C25   C26   S    
C2    C8    S    
C12   C16   A    
Cu2   O3    S    
C27   H17   S    
C3    C5    A    
C5    C21   A    
C15   H6    S    
