data_mof_unit_12052.cif
_audit_creation_date              2012-10-26T21:05:21-0400
_audit_creation_method            fapswitch 2.2
_symmetry_space_group_name_H-M    P1
_symmetry_Int_Tables_number       1
_space_group_crystal_system       triclinic
_cell_length_a                    9.693165
_cell_length_b                    10.770028
_cell_length_c                    13.859908
_cell_angle_alpha                 94.767723
_cell_angle_beta                  83.975589
_cell_angle_gamma                 89.145736
_cell_volume                      1433.53664441

loop_
_atom_site_label
_atom_site_type_symbol
_atom_type_description
_atom_site_fract_x
_atom_site_fract_y
_atom_site_fract_z
_atom_type_partial_charge
C1    C     C_R   0.499047 0.737160 0.502104 0.528218
C2    C     C_R   0.557382 0.926534 0.425365 -0.147161
C3    C     C_R   0.558981 0.054809 0.425432 -0.145262
C4    C     C_R   0.476535 0.501292 0.682840 0.515633
C5    C     C_R   0.500320 0.129675 0.506783 0.007523
C6    C     C_R   0.890545 0.335020 0.354474 0.282881
C7    C     C_R   0.984162 0.267583 0.284308 -0.144547
C8    C     C_R   0.123357 0.269588 0.290123 -0.208902
C9    C     C_R   0.173600 0.341108 0.364375 -0.088032
C10   C     C_R   0.088301 0.421804 0.431981 0.108333
C11   C     C_R   0.939093 0.420278 0.430266 0.175023
C12   C     C_1   0.461569 0.501216 0.786425 -0.042893
C13   C     C_R   0.913292 0.573879 0.564303 0.007967
C14   C     C_R   0.059398 0.572107 0.567285 0.114505
C15   C     C_R   0.500467 0.263060 0.501268 0.545969
C16   C     C_R   0.523408 0.499879 0.317197 0.553383
C17   C     C_1   0.538293 0.499684 0.213554 -0.024580
C18   C     C_2   0.557535 0.499810 0.022317 -0.122506
C19   C     C_2   0.442149 0.500478 0.977565 -0.125183
C20   C     C_1   0.451308 0.500926 0.873576 -0.064338
C21   C     C_1   0.548415 0.499646 0.126355 -0.057288
C22   C     C_3   0.110335 0.653997 0.649442 -0.221988
C23   C     C_R   0.391923 0.891299 0.677550 -0.114807
C24   C     C_3   0.094877 0.593886 0.747081 -0.295055
C25   C     C_3   0.947321 0.603553 0.798741 -0.453762
C26   C     C_R   0.335753 0.965952 0.759711 -0.123005
C27   C     C_R   0.331010 0.095032 0.758263 -0.119839
C28   C     C_R   0.383954 0.150208 0.675044 -0.101072
C29   C     C_R   0.441103 0.076310 0.590925 0.025323
C30   C     C_R   0.442406 0.945069 0.591601 0.025105
C31   C     C_R   0.497904 0.871561 0.506906 0.009941
Cu1   Cu    Cu3+1 0.359340 0.500010 0.500010 0.907899
Cu2   Cu    Cu3+1 0.640660 0.499990 0.499990 0.985015
H1    H     H_    0.340348 0.500740 0.018747 0.132282
H2    H     H_    0.380758 0.250702 0.677642 0.131917
H3    H     H_    0.603459 0.095724 0.360873 0.124588
H4    H     H_    0.847352 0.635547 0.615757 0.124612
H5    H     H_    0.739321 0.258093 0.288557 0.285362
H6    H     H_    0.905720 0.700722 0.802948 0.150983
H7    H     H_    0.877982 0.539730 0.760668 0.163449
H8    H     H_    0.948240 0.575561 0.874003 0.140119
H9    H     H_    0.128354 0.494121 0.736167 0.191056
H10   H     H_    0.164458 0.642364 0.796097 0.146730
H11   H     H_    0.218922 0.676363 0.632289 0.193768
H12   H     H_    0.947972 0.206064 0.226825 0.103421
H13   H     H_    0.054786 0.746018 0.657555 0.106323
H14   H     H_    0.193133 0.211676 0.238228 0.122717
H15   H     H_    0.281552 0.327532 0.364921 0.196960
H16   H     H_    0.659328 0.499605 0.981101 0.131279
H17   H     H_    0.601556 0.869626 0.361021 0.119946
H18   H     H_    0.398044 0.791820 0.682604 0.099626
H19   H     H_    0.296790 0.923514 0.824975 0.109518
H20   H     H_    0.287838 0.152766 0.822296 0.112290
N1    N     N_R   0.852210 0.498790 0.499090 -0.242219
N2    N     N_R   0.148080 0.498710 0.499060 -0.239462
O1    O     O_R   0.381190 0.680360 0.500010 -0.513785
O2    O     O_R   0.618760 0.680340 0.500000 -0.503032
O3    O     O_R   0.364420 0.499990 0.637850 -0.526804
O4    O     O_R   0.601990 0.499960 0.637840 -0.500336
O5    O     O_R   0.381240 0.319660 0.500000 -0.531946
O6    O     O_R   0.618810 0.319640 0.499990 -0.418760
O7    O     O_R   0.398010 0.500040 0.362160 -0.517598
O8    O     O_R   0.635580 0.500010 0.362150 -0.431722
O9    O     O_3   0.754306 0.308019 0.349918 -0.653781

loop_
_geom_bond_atom_site_label_1
_geom_bond_atom_site_label_2
_ccdc_geom_bond_type
C1    C31   S    
C27   H20   S    
C6    C7    A    
C16   O8    A    
C1    O2    A    
C4    C12   S    
C18   C21   S    
C24   H9    S    
C9    C10   A    
C13   N1    A    
Cu1   N2    S    
C13   H4    S    
C19   C20   S    
Cu1   O3    S    
Cu2   O8    S    
Cu1   Cu2   S    
C14   C22   S    
C14   N2    A    
C15   O6    A    
C8    H14   S    
Cu1   O7    S    
C7    C8    A    
Cu2   O4    S    
C25   H8    S    
C13   C14   A    
C25   H6    S    
C10   N2    A    
C12   C20   T    
C26   C27   A    
C29   C30   A    
C11   N1    A    
C16   O7    A    
C3    H3    S    
C7    H12   S    
C4    O4    A    
C28   C29   A    
C22   H13   S    
C1    O1    A    
C2    C3    A    
C5    C29   A    
C2    C31   A    
C25   H7    S    
C30   C31   A    
C22   C24   S    
C5    C15   S    
C10   C11   A    
Cu1   O5    S    
C4    O3    A    
C23   C30   A    
C6    C11   A    
C24   C25   S    
C18   H16   S    
C9    H15   S    
Cu2   O6    S    
C18   C19   D    
C15   O5    A    
C23   C26   A    
C6    O9    S    
Cu2   N1    S    
C24   H10   S    
H5    O9    S    
C16   C17   S    
Cu2   O2    S    
C2    H17   S    
C3    C5    A    
C23   H18   S    
Cu1   O1    S    
C26   H19   S    
C22   H11   S    
C28   H2    S    
C8    C9    A    
C27   C28   A    
C19   H1    S    
C17   C21   T    
