data_mof_unit_34911.cif
_audit_creation_date              2012-12-10T17:05:42-0500
_audit_creation_method            fapswitch 2.2
_symmetry_space_group_name_H-M    P1
_symmetry_Int_Tables_number       1
_space_group_crystal_system       triclinic
_cell_length_a                    15.902836
_cell_length_b                    10.830383
_cell_length_c                    9.87453
_cell_angle_alpha                 110.350216
_cell_angle_beta                  99.393746
_cell_angle_gamma                 90.002248
_cell_volume                      1570.22416573

loop_
_atom_site_label
_atom_site_type_symbol
_atom_type_description
_atom_site_fract_x
_atom_site_fract_y
_atom_site_fract_z
_atom_type_partial_charge
C1    C     C_R   0.493070 0.252740 0.442055 0.788899
C2    C     C_3   0.967418 0.510477 0.661720 0.106357
C3    C     C_3   0.916578 0.483216 0.498992 0.079630
C4    C     C_3   0.945498 0.599232 0.448825 -0.127272
C5    C     C_3   0.045258 0.606874 0.460774 -0.232233
C6    C     C_1   0.824107 0.489039 0.498262 -0.014779
C7    C     C_1   0.175659 0.489348 0.498333 -0.014653
C8    C     C_1   0.251025 0.492972 0.498821 -0.159498
C9    C     C_2   0.483848 0.110684 0.415517 -0.160703
C10   C     C_2   0.449663 0.075383 0.514728 -0.276606
C11   C     C_2   0.504224 0.889502 0.585607 -0.055956
C12   C     C_R   0.340407 0.497300 0.499517 0.870207
C13   C     C_2   0.440960 0.939211 0.512112 0.031553
C14   C     C_2   0.513860 0.501790 0.081839 -0.004246
C15   C     C_2   0.507183 0.474463 0.917862 -0.002781
C16   C     C_R   0.503702 0.746985 0.557968 0.856411
C17   C     C_R   0.659601 0.499923 0.499937 0.822747
C18   C     C_3   0.064503 0.492240 0.649877 -0.402098
C19   C     C_3   0.037644 0.356951 0.374469 -0.050316
C20   C     C_3   0.939410 0.347737 0.383507 -0.022526
C21   C     C_1   0.748838 0.495285 0.498958 -0.156206
C22   C     C_3   0.083251 0.486007 0.497470 0.128488
Cu1   Cu    Cu3+1 0.514650 0.521810 0.644910 0.963074
Cu2   Cu    Cu3+1 0.485350 0.478190 0.355090 0.984318
H1    H     H_    0.107051 0.569096 0.739782 0.233357
H2    H     H_    0.425512 0.150006 0.603137 0.149245
H3    H     H_    0.473117 0.385464 0.839240 0.112939
H4    H     H_    0.561569 0.574379 0.159091 0.157069
H5    H     H_    0.084286 0.400914 0.668245 0.179893
H6    H     H_    0.037714 0.374570 0.269659 0.095699
H7    H     H_    0.904265 0.344813 0.275388 0.130460
H8    H     H_    0.061172 0.598179 0.352241 0.124707
H9    H     H_    0.925733 0.693095 0.524455 0.199334
N1    N     N_2   0.463320 0.445430 0.137380 -0.127530
N2    N     N_2   0.536720 0.554500 0.862620 -0.135159
O1    O     O_R   0.507820 0.332330 0.577400 -0.595745
O2    O     O_R   0.483070 0.295500 0.332660 -0.540559
O3    O     O_R   0.391820 0.518430 0.622420 -0.561220
O4    O     O_R   0.367070 0.481600 0.377680 -0.571303
O5    O     O_R   0.516930 0.704500 0.667340 -0.579581
O6    O     O_R   0.492180 0.667670 0.422600 -0.558610
O7    O     O_R   0.632930 0.518400 0.622320 -0.565659
O8    O     O_R   0.608180 0.481570 0.377580 -0.585107
C23   C     C_3   0.936522 0.415688 0.735543 -0.389013
C24   C     C_3   0.977376 0.449554 0.897413 -0.860756
H10   H     H_    0.048104 0.454585 0.911379 0.252285
H11   H     H_    0.956409 0.544842 0.967047 0.273435
H12   H     H_    0.957160 0.371876 0.937009 0.232017
H13   H     H_    0.866185 0.415845 0.729628 0.226456
H14   H     H_    0.951985 0.313810 0.679850 0.207840
C25   C     C_2   0.952673 0.650961 0.762598 0.833765
O9    O     O_2   0.011939 0.733706 0.824402 -0.581892
O10   O     O_R   0.870054 0.683457 0.788035 -0.787217
H15   H     H_    0.867975 0.777372 0.857425 0.326457
C26   C     C_3   0.899666 0.590776 0.292910 -0.427712
C27   C     C_3   0.908607 0.720614 0.265935 -0.771977
H16   H     H_    0.882212 0.801709 0.349160 0.261756
H17   H     H_    0.976367 0.746787 0.268284 0.282448
H18   H     H_    0.873018 0.709690 0.155646 0.232998
H19   H     H_    0.925829 0.513254 0.205937 0.200566
H20   H     H_    0.830338 0.565247 0.277839 0.218711
C28   C     C_2   0.357781 0.865300 0.434805 0.881190
O11   O     O_2   0.316549 0.891316 0.333253 -0.566210
O12   O     O_R   0.324211 0.771680 0.482542 -0.772821
H21   H     H_    0.266176 0.731801 0.423344 0.329053
C29   C     C_3   0.582869 0.973111 0.682599 -0.423207
C30   C     C_3   0.562739 0.065012 0.828730 -0.779477
H22   H     H_    0.521593 0.142807 0.812123 0.234954
H23   H     H_    0.530036 0.008458 0.881868 0.262700
H24   H     H_    0.622941 0.113668 0.902863 0.242649
H25   H     H_    0.633187 0.908458 0.706193 0.194607
H26   H     H_    0.610439 0.031273 0.625488 0.218570
C31   C     C_2   0.514464 0.014973 0.286289 0.850596
O13   O     O_2   0.494670 0.897052 0.245800 -0.599369
O14   O     O_R   0.566612 0.060848 0.210487 -0.775627
H27   H     H_    0.584773 0.986982 0.126526 0.312275
C32   C     C_3   0.594746 0.667056 0.956207 -0.128289
C33   C     C_3   0.684601 0.624649 0.994079 -0.863454
H28   H     H_    0.684432 0.553596 0.052231 0.233409
H29   H     H_    0.712063 0.578266 0.893110 0.289402
H30   H     H_    0.725931 0.713109 0.066282 0.227600
H31   H     H_    0.600277 0.736913 0.898546 0.206744
H32   H     H_    0.569656 0.724178 0.056618 0.180721
C34   C     C_3   0.402030 0.339010 0.033931 -0.150836
C35   C     C_3   0.326417 0.305836 0.094851 -0.708505
H33   H     H_    0.345849 0.263800 0.181474 0.264294
H34   H     H_    0.288140 0.393199 0.132099 0.242605
H35   H     H_    0.283728 0.228583 0.005043 0.194685
H36   H     H_    0.370124 0.368122 0.941781 0.140331
H37   H     H_    0.436166 0.248005 0.990560 0.165895
C36   C     C_3   0.088021 0.227948 0.344144 -0.357505
C37   C     C_3   0.125352 0.187735 0.474952 -0.789592
H38   H     H_    0.178691 0.257846 0.546905 0.236751
H39   H     H_    0.077253 0.179529 0.540741 0.233045
H40   H     H_    0.152098 0.089552 0.433374 0.264132
H41   H     H_    0.048875 0.143287 0.259215 0.201559
H42   H     H_    0.142948 0.240395 0.292181 0.200098
C38   C     C_3   0.906092 0.211491 0.383601 -0.378765
C39   C     C_3   0.811036 0.195743 0.386933 -0.826854
H43   H     H_    0.797393 0.247098 0.498788 0.247564
H44   H     H_    0.771896 0.232079 0.306248 0.262316
H45   H     H_    0.792245 0.089538 0.357067 0.243632
H46   H     H_    0.915006 0.135264 0.278380 0.202753
H47   H     H_    0.942924 0.180127 0.468521 0.217406
C40   C     C_2   0.085023 0.742440 0.562638 0.893396
O15   O     O_2   0.144508 0.754210 0.662744 -0.551447
O16   O     O_R   0.054482 0.855153 0.537896 -0.780698
H48   H     H_    0.085948 0.939570 0.610621 0.333519

loop_
_geom_bond_atom_site_label_1
_geom_bond_atom_site_label_2
_ccdc_geom_bond_type
C23   H13   S    
C26   C27   S    
C2    C18   S    
C31   O13   D    
C19   C20   S    
C3    C6    S    
C7    C8    T    
C5    C40   S    
C32   C33   S    
C40   O16   S    
Cu1   O7    S    
C9    C31   S    
C35   H33   S    
C33   H29   S    
C35   H35   S    
C32   H32   S    
C38   H46   S    
N1    C34   S    
Cu2   O4    S    
C27   H16   S    
C17   O7    A    
C28   O12   S    
C36   H41   S    
C29   H26   S    
C5    C22   S    
C29   H25   S    
C2    C23   S    
Cu1   Cu2   S    
C9    C10   D    
C11   C29   S    
C1    O2    A    
C5    H8    S    
C10   H2    S    
C24   H11   S    
C29   C30   S    
C26   H19   S    
Cu2   O6    S    
C31   O14   S    
C18   H1    S    
C34   H37   S    
C15   N2    D    
C35   H34   S    
C13   C28   S    
C25   O9    D    
C19   C22   S    
C1    C9    S    
C34   C35   S    
C36   C37   S    
C33   H28   S    
O10   H15   S    
C6    C21   T    
N2    C32   S    
C37   H40   S    
Cu2   N1    S    
C30   H22   S    
C30   H23   S    
O14   H27   S    
C17   O8    A    
C28   O11   D    
C11   C16   S    
C15   H3    S    
C39   H43   S    
C8    C12   S    
C37   H39   S    
Cu2   O2    S    
C3    C20   S    
C18   H5    S    
C36   H42   S    
C16   O5    A    
C39   H44   S    
C38   C39   S    
Cu1   N2    S    
C4    C26   S    
C34   H36   S    
O16   H48   S    
C3    C4    S    
C7    C22   S    
C23   C24   S    
C24   H12   S    
C23   H14   S    
C4    H9    S    
C18   C22   S    
C4    C5    S    
C10   C13   S    
C14   N1    D    
Cu1   O3    S    
C40   O15   D    
C27   H18   S    
C30   H24   S    
C14   H4    S    
O12   H21   S    
C12   O4    A    
C2    C3    S    
C11   C13   D    
C33   H30   S    
C32   H31   S    
C38   H47   S    
C26   H20   S    
C37   H38   S    
C27   H17   S    
C12   O3    A    
C17   C21   S    
C19   C36   S    
C2    C25   S    
C24   H10   S    
C39   H45   S    
C20   C38   S    
Cu1   O1    S    
Cu2   O8    S    
C14   C15   S    
C25   O10   S    
C19   H6    S    
C16   O6    A    
Cu1   O5    S    
C1    O1    A    
C20   H7    S    
