data_mof_unit_50142.cif
_audit_creation_date              2013-03-05T15:46:31-0500
_audit_creation_method            fapswitch 2.2
_symmetry_space_group_name_H-M    P1
_symmetry_Int_Tables_number       1
_space_group_crystal_system       triclinic
_cell_length_a                    6.930949
_cell_length_b                    16.750932
_cell_length_c                    17.10086
_cell_angle_alpha                 100.550616
_cell_angle_beta                  88.122233
_cell_angle_gamma                 91.178175
_cell_volume                      1950.57878043

loop_
_atom_site_label
_atom_site_type_symbol
_atom_site_description
_atom_site_fract_x
_atom_site_fract_y
_atom_site_fract_z
_atom_type_partial_charge
O1    O     O_R   0.506180 0.438940 0.579430 -0.590994
O2    O     O_R   0.170520 0.406230 0.413590 -0.589384
O3    O     O_R   0.005180 0.561060 0.420570 -0.602029
C1    C     C_R   0.340748 0.383520 0.385000 0.941681
O4    O     O_R   0.176140 0.429310 0.578370 -0.603355
O5    O     O_R   0.010830 0.584300 0.586530 -0.580373
C2    C     C_R   0.341321 0.413570 0.605094 0.936608
O6    O     O_R   0.500520 0.415700 0.413470 -0.591111
O7    O     O_3   0.340830 0.550820 0.502480 -0.271637
V1    V     V_3+5 0.064040 0.490570 0.499540 1.162371
O8    O     O_R   0.681400 0.593770 0.586410 -0.592221
C3    C     C_R   0.848431 0.617304 0.613998 0.932824
O9    O     O_R   0.675790 0.570690 0.421630 -0.600860
C4    C     C_R   0.849380 0.586844 0.395285 0.936516
V2    V     V_3+5 0.564650 0.509430 0.500460 1.161238
O10   O     O_3   0.837730 0.449180 0.497520 -0.271651
C5    C     C_R   0.884918 0.863878 0.168636 -0.136154
C6    C     C_R   0.882383 0.641109 0.335888 -0.141689
C7    C     C_R   0.114006 0.698640 0.249275 -0.173092
C8    C     C_R   0.066445 0.642354 0.297864 -0.126213
C9    C     C_R   0.743833 0.696333 0.321523 -0.295336
C10   C     C_R   0.790952 0.753056 0.271822 0.226634
C11   C     C_R   0.978310 0.754903 0.236251 0.191758
C12   C     C_R   0.026007 0.811798 0.186978 -0.197612
C13   C     C_R   0.700194 0.862557 0.206159 -0.147416
C14   C     C_R   0.654412 0.808441 0.257378 -0.224957
H1    H     H_    0.170297 0.813311 0.160906 0.172656
H2    H     H_    0.588162 0.902861 0.195005 0.134954
H3    H     H_    0.257343 0.698041 0.221880 0.141472
H4    H     H_    0.510737 0.808955 0.284436 0.117804
H5    H     H_    0.176857 0.600287 0.306684 0.136987
H6    H     H_    0.602045 0.696560 0.350276 0.137947
C15   C     C_R   0.935125 0.909983 0.718932 0.313317
C16   C     C_R   0.884737 0.926949 0.645074 -0.196560
C17   C     C_R   0.823111 0.865249 0.585113 -0.154041
C18   C     C_R   0.816942 0.785436 0.597157 -0.153890
C19   C     C_R   0.857416 0.766605 0.672097 0.101692
C20   C     C_R   0.902281 0.830654 0.736475 -0.011041
C21   C     C_R   0.852486 0.685196 0.683319 -0.262411
C22   C     C_R   0.867074 0.667925 0.760430 0.163949
C23   C     C_R   0.922445 0.729895 0.824542 0.042413
C24   C     C_R   0.920207 0.813188 0.814746 -0.228961
C25   C     C_R   0.825699 0.588987 0.774745 -0.240886
C26   C     C_R   0.847860 0.570065 0.849486 -0.198098
C27   C     C_R   0.934213 0.625836 0.909125 0.385971
C28   C     C_R   0.983502 0.704727 0.895122 -0.344212
H7    H     H_    0.906840 0.987404 0.631999 0.150077
H8    H     H_    0.789708 0.878734 0.527547 0.134562
H9    H     H_    0.776781 0.738832 0.547514 0.105882
H10   H     H_    0.771864 0.541475 0.728600 0.134085
H11   H     H_    0.812593 0.509167 0.858921 0.159030
H12   H     H_    0.602384 0.486181 0.151833 0.163355
C29   C     C_R   0.228053 0.218058 0.396728 -0.167283
C30   C     C_R   0.177717 0.138992 0.404937 -0.104550
C31   C     C_R   0.203294 0.075218 0.341170 -0.120271
C32   C     C_R   0.279635 0.089989 0.268714 -0.174665
C33   C     C_R   0.330361 0.169766 0.258157 0.120606
C34   C     C_R   0.303764 0.235200 0.323590 0.116605
C35   C     C_R   0.410047 0.184538 0.184442 -0.300366
C36   C     C_R   0.463486 0.264871 0.176358 0.117856
C37   C     C_R   0.436531 0.330340 0.241743 0.120482
C38   C     C_R   0.356719 0.315583 0.315479 -0.309542
C39   C     C_R   0.540197 0.281909 0.103322 -0.117530
C40   C     C_R   0.590589 0.360947 0.095066 -0.060641
C41   C     C_R   0.564224 0.424790 0.158717 -0.068027
C42   C     C_R   0.487291 0.410093 0.231135 -0.192766
H13   H     H_    0.207810 0.265242 0.448540 0.111141
H14   H     H_    0.119682 0.127098 0.461301 0.117644
H15   H     H_    0.165162 0.013811 0.348010 0.114589
H16   H     H_    0.300139 0.037961 0.221560 0.104192
H17   H     H_    0.561161 0.234662 0.051617 0.111507
H18   H     H_    0.649307 0.372752 0.038766 0.144693
H19   H     H_    0.466461 0.462136 0.278246 0.118582
C43   C     C_R   0.424603 0.145114 0.838347 -0.221315
C44   C     C_R   0.336195 0.362860 0.668036 -0.133325
C45   C     C_R   0.169352 0.322927 0.783028 -0.154962
C46   C     C_R   0.185303 0.372538 0.725609 -0.147278
C47   C     C_R   0.472313 0.302110 0.669025 -0.268707
C48   C     C_R   0.454303 0.250071 0.725359 0.200172
C49   C     C_R   0.301005 0.259784 0.783364 0.109416
C50   C     C_R   0.286489 0.207387 0.840707 -0.142110
C51   C     C_R   0.571613 0.136385 0.779150 -0.034874
C52   C     C_R   0.587348 0.188121 0.723928 -0.184671
H20   H     H_    0.674812 0.088302 0.775242 0.180120
H21   H     H_    0.052323 0.334759 0.826703 0.152014
H22   H     H_    0.704174 0.179349 0.679642 0.130961
H23   H     H_    0.079144 0.419334 0.726539 0.130412
H24   H     H_    0.588671 0.293739 0.624472 0.132373
O11   O     O_R   0.265840 0.084300 0.086750 -0.588435
O12   O     O_R   0.589750 0.070740 0.921690 -0.603214
O13   O     O_R   0.755020 0.915730 0.913400 -0.583279
C53   C     C_R   0.423581 0.089206 0.897294 1.036608
O14   O     O_R   0.595830 0.093740 0.086480 -0.607965
O15   O     O_R   0.761150 0.938890 0.079360 -0.617763
C54   C     C_R   0.425703 0.116614 0.114971 0.942098
O16   O     O_R   0.259710 0.061140 0.920790 -0.525953
O17   O     O_3   0.425260 0.949200 0.997610 -0.284594
V3    V     V_3+5 0.702060 0.009430 0.000450 1.204591
O18   O     O_R   0.090530 0.929220 0.078150 -0.593808
C55   C     C_R   0.917228 0.915084 0.106302 0.962396
O19   O     O_R   0.084440 0.906220 0.913360 -0.539824
C56   C     C_R   0.918005 0.881390 0.885811 0.958149
V4    V     V_3+5 0.201450 0.990520 0.999290 1.253892
O20   O     O_3   0.928380 0.050800 0.002390 -0.256775
C57   C     C_2   0.139318 0.749434 0.941869 1.091926
O21   O     O_2   0.126726 0.763374 0.014305 -0.649648
O22   O     O_R   0.307619 0.770431 0.902510 -0.758257
H25   H     H_    0.411142 0.794719 0.940616 0.333358
C58   C     C_2   0.132959 0.219135 0.904203 1.039220
O23   O     O_2   0.176633 0.231406 0.974138 -0.674737
O24   O     O_R   0.938789 0.215162 0.883935 -0.779139
H26   H     H_    0.847915 0.223602 0.932324 0.315119
N1    N     N_R   0.983777 0.599076 0.980949 0.242160
O25   O     O_R   0.855558 0.560283 0.017576 -0.402822
O26   O     O_R   0.163755 0.597801 0.000032 -0.374727
N2    N     N_R   0.057289 0.967752 0.766818 0.216387
O27   O     O_R   0.015512 0.044419 0.779297 -0.437228
O28   O     O_R   0.233913 0.947264 0.776286 -0.407822

loop_
_geom_bond_atom_site_label_1
_geom_bond_atom_site_label_2
_geom_bond_distance
_ccdc_geom_bond_type
C34   C38   1.418351 A    
O18   V4    1.967425 S    
C31   C32   1.392971 A    
O19   C56   1.292189 A    
C6    C9    1.404776 A    
C23   C24   1.435842 A    
C4    C6    1.491539 S    
O2    C1    1.299352 A    
C7    C8    1.394329 A    
C12   H1    1.083262 S    
C1    O6    1.291726 A    
O17   V3    2.146953 S    
C29   C30   1.393348 A    
C32   C33   1.416648 A    
C13   H2    1.083299 S    
C57   O22   1.398499 S    
C36   C39   1.415930 A    
C18   C19   1.412712 A    
C20   C24   1.431230 A    
C58   O24   1.397900 S    
O5    C3    1.299638 A    
C33   C35   1.420670 A    
C30   H14   1.082662 S    
O15   V3    2.006222 S    
V2    O10   2.158047 S    
C28   C57   1.473186 S    
C1    C38   1.490573 S    
C53   O16   1.299914 A    
N2    O27   1.299812 A    
C16   C17   1.387263 A    
C43   C53   1.496073 S    
O8    V2    2.020290 S    
C37   C42   1.416572 A    
C22   C25   1.410297 A    
O24   H26   1.013946 S    
C23   C28   1.428554 A    
O1    V2    1.977522 S    
O7    V1    2.146984 S    
C35   C36   1.418214 A    
O19   V4    2.020447 S    
O9    C4    1.311287 A    
O11   V4    2.014534 S    
C35   C54   1.489757 S    
C43   C51   1.403104 A    
C17   H8    1.082708 S    
C24   C56   1.507769 S    
C44   C47   1.404545 A    
C9    H6    1.084129 S    
C5    C12   1.403957 A    
C45   C46   1.398179 A    
C21   C22   1.407997 A    
O4    C2    1.296114 A    
C47   C48   1.413747 A    
C2    C44   1.487410 S    
C13   C14   1.396540 A    
C27   C28   1.418573 A    
C42   H19   1.081764 S    
C48   C49   1.420655 A    
C36   C37   1.426010 A    
C17   C18   1.389083 A    
O11   C54   1.291614 A    
C7    C11   1.396224 A    
C25   C26   1.385973 A    
C19   C20   1.426875 A    
O12   C53   1.299830 A    
O18   C55   1.312530 A    
O15   C55   1.288096 A    
O22   H25   1.013175 S    
C15   C16   1.400877 A    
O17   V4    1.708834 S    
C44   C46   1.403719 A    
C31   H15   1.082795 S    
O3    C4    1.287527 A    
C26   H11   1.083423 S    
C22   C23   1.421713 A    
C39   H17   1.081348 S    
C14   H4    1.083737 S    
O6    V2    2.008716 S    
C32   H16   1.081760 S    
O9    V2    1.967149 S    
C41   C42   1.393399 A    
C43   C50   1.424501 A    
O2    V1    1.977954 S    
C26   C27   1.392552 A    
N1    O25   1.301223 A    
C47   H24   1.084338 S    
C30   C31   1.389337 A    
C15   N2    1.430201 S    
O1    C2    1.301651 A    
C45   C49   1.411958 A    
C50   C58   1.484830 S    
C49   C50   1.430807 A    
O5    V1    1.986606 S    
C29   C34   1.415774 A    
C25   H10   1.082789 S    
C57   O21   1.218350 D    
C51   H20   1.079657 S    
C15   C20   1.427130 A    
C5    C13   1.414786 A    
C40   C41   1.389452 A    
C3    C21   1.485460 S    
O7    V2    1.708894 S    
O4    V1    2.020386 S    
C19   C21   1.411061 A    
O3    V1    2.006051 S    
V1    O10   1.700669 S    
C58   O23   1.222848 D    
C48   C52   1.398698 A    
C33   C34   1.425873 A    
V3    O20   1.700637 S    
C45   H21   1.080617 S    
N2    O28   1.301232 A    
C6    C8    1.414300 A    
C40   H18   1.082783 S    
O13   V3    1.986586 S    
C37   C38   1.421233 A    
C29   H13   1.081381 S    
C5    C55   1.494489 S    
C18   H9    1.082352 S    
C11   C12   1.410820 A    
C39   C40   1.393200 A    
C27   N1    1.436375 S    
C52   H22   1.083854 S    
C46   H23   1.083740 S    
O14   C54   1.298897 A    
C51   C52   1.394183 A    
C10   C14   1.397367 A    
O16   V4    1.972534 S    
V4    O20   2.157979 S    
C10   C11   1.418004 A    
C16   H7    1.083183 S    
O13   C56   1.312236 A    
C9    C10   1.413039 A    
O14   V3    1.977853 S    
O12   V3    2.020602 S    
H12   C41   1.082796 S    
O8    C3    1.291174 A    
N1    O26   1.301276 A    
C8    H5    1.083331 S    
C7    H3    1.083850 S    
