data_mof_unit_24317.cif
_audit_creation_date              2013-03-05T15:53:42-0500
_audit_creation_method            fapswitch 2.2
_symmetry_space_group_name_H-M    P1
_symmetry_Int_Tables_number       1
_space_group_crystal_system       triclinic
_cell_length_a                    12.974912
_cell_length_b                    13.269791
_cell_length_c                    27.683853
_cell_angle_alpha                 94.906587
_cell_angle_beta                  90.098422
_cell_angle_gamma                 119.124195
_cell_volume                      4143.40591586

loop_
_atom_site_label
_atom_site_type_symbol
_atom_site_description
_atom_site_fract_x
_atom_site_fract_y
_atom_site_fract_z
_atom_type_partial_charge
O1    O     O_R   0.296680 0.802170 0.437540 -0.509909
O2    O     O_R   0.525380 0.838530 0.443500 -0.522461
C1    C     C_R   0.626491 0.898038 0.426505 0.537626
O3    O     O_R   0.702130 0.995190 0.446810 -0.517560
O4    O     O_R   0.661770 0.181390 0.458760 -0.500335
C2    C     C_R   0.600685 0.221456 0.440387 0.536193
O5    O     O_R   0.499820 0.198480 0.455280 -0.518346
O6    O     O_R   0.311660 0.976250 0.449080 -0.500876
C3    C     C_R   0.329045 0.901971 0.421368 0.565355
O7    O     O_R   0.297580 0.804960 0.544440 -0.500524
O8    O     O_R   0.526220 0.841130 0.542590 -0.492256
C4    C     C_R   0.626926 0.898950 0.565083 0.549959
O9    O     O_R   0.703030 0.997990 0.553710 -0.505281
O10   O     O_R   0.662610 0.183990 0.557860 -0.497742
C5    C     C_R   0.602156 0.226057 0.578788 0.547712
O11   O     O_R   0.500730 0.201280 0.562180 -0.519553
O12   O     O_R   0.312500 0.978850 0.548170 -0.489824
C6    C     C_R   0.271826 0.879550 0.563429 0.559270
Cr1   Cr    Cr6+3 0.416430 0.829200 0.492370 1.020894
Cr2   Cr    Cr6+3 0.674630 0.087020 0.504170 1.017177
Cr3   Cr    Cr6+3 0.408920 0.083740 0.503490 1.020332
O13   O     O_3   0.499990 0.999990 0.500010 -0.269530
C7    C     C_1   0.630987 0.265853 0.394025 -0.017101
C8    C     C_R   0.764061 0.337368 0.279732 -0.122535
C9    C     C_R   0.771346 0.348639 0.229949 -0.156886
C10   C     C_R   0.564117 0.299176 0.224135 0.234421
C11   C     C_R   0.558480 0.288789 0.274299 -0.090364
C12   C     C_R   0.657920 0.308324 0.302042 -0.003896
C13   C     C_R   0.672436 0.330278 0.201922 0.022038
C14   C     C_1   0.687970 0.358526 0.152321 0.002437
C15   C     C_1   0.647270 0.290094 0.352723 -0.057661
C16   C     C_1   0.701000 0.390339 0.112162 0.019506
H1    H     H_    0.841193 0.351517 0.300808 0.117801
H2    H     H_    0.855051 0.374001 0.213422 0.117289
H3    H     H_    0.475884 0.263948 0.291722 0.142713
C17   C     C_R   0.324938 0.818481 0.337617 -0.130718
C18   C     C_R   0.303826 0.810728 0.287706 0.013550
C19   C     C_R   0.240176 0.781802 0.188707 0.011487
C20   C     C_R   0.280383 0.711613 0.207461 -0.125963
C21   C     C_R   0.310604 0.725167 0.256806 -0.124326
C22   C     C_R   0.194237 0.758155 0.141050 -0.127606
H4    H     H_    0.192031 0.686107 0.118492 0.133700
H5    H     H_    0.349140 0.759280 0.352336 0.130587
H6    H     H_    0.283061 0.642689 0.184457 0.119097
H7    H     H_    0.334590 0.665753 0.271152 0.124632
C23   C     C_R   0.141040 0.819426 0.123934 -0.004489
C24   C     C_R   0.285294 0.979846 0.349546 -0.133284
C25   C     C_R   0.262398 0.972233 0.299627 0.000151
C26   C     C_R   0.269983 0.886184 0.268678 0.062287
C27   C     C_R   0.226625 0.045406 0.280401 -0.121747
C28   C     C_R   0.191968 0.029038 0.231273 -0.074831
C29   C     C_R   0.194363 0.940456 0.200654 0.023790
C30   C     C_R   0.237211 0.871140 0.219105 0.060498
C31   C     C_R   0.147014 0.914532 0.152901 -0.108705
C32   C     C_R   0.311741 0.899925 0.368844 -0.007012
H8    H     H_    0.107495 0.963089 0.139586 0.138469
H9    H     H_    0.159756 0.083216 0.217570 0.150863
H10   H     H_    0.221245 0.112432 0.303689 0.119004
H11   H     H_    0.278097 0.045090 0.373382 0.136173
C33   C     C_R   0.705984 0.970867 0.349625 -0.125553
C34   C     C_R   0.705490 0.957144 0.299645 0.007592
C35   C     C_R   0.709278 0.928826 0.198977 0.015781
C36   C     C_R   0.765725 0.040273 0.223487 -0.123700
C37   C     C_R   0.763995 0.054347 0.273716 -0.126449
C38   C     C_R   0.722522 0.913180 0.149611 -0.129397
H12   H     H_    0.777520 0.987402 0.130162 0.126865
H13   H     H_    0.750278 0.058167 0.367833 0.138423
H14   H     H_    0.813998 0.116043 0.204009 0.113865
H15   H     H_    0.810061 0.140937 0.292384 0.110084
C39   C     C_R   0.674794 0.801073 0.126383 -0.003106
C40   C     C_R   0.583010 0.762619 0.352047 -0.148490
C41   C     C_R   0.584879 0.746881 0.301607 0.004773
C42   C     C_R   0.644711 0.844881 0.275347 0.066146
C43   C     C_R   0.526865 0.635514 0.276855 -0.140400
C44   C     C_R   0.528558 0.621331 0.226428 -0.133941
C45   C     C_R   0.589064 0.718299 0.200423 -0.000046
C46   C     C_R   0.646053 0.830735 0.224835 0.066691
C47   C     C_R   0.601372 0.704414 0.150885 -0.134686
C48   C     C_R   0.643225 0.874587 0.375888 0.002122
H16   H     H_    0.563541 0.617407 0.132654 0.148010
H17   H     H_    0.484951 0.534585 0.207857 0.171059
H18   H     H_    0.480490 0.559664 0.296446 0.129924
H19   H     H_    0.533240 0.688983 0.372548 0.115121
C49   C     C_R   0.738092 0.297149 0.652664 -0.138870
C50   C     C_R   0.750472 0.315893 0.703352 0.006289
C51   C     C_R   0.768218 0.343991 0.805320 0.004969
C52   C     C_R   0.861710 0.346897 0.778926 -0.142528
C53   C     C_R   0.852275 0.331463 0.728208 -0.141915
C54   C     C_R   0.779271 0.367239 0.855812 -0.138786
H20   H     H_    0.862502 0.391495 0.874750 0.130184
H21   H     H_    0.805743 0.289900 0.632195 0.126497
H22   H     H_    0.942204 0.361741 0.797479 0.113729
H23   H     H_    0.924824 0.332700 0.708446 0.113569
C55   C     C_R   0.686908 0.370337 0.881128 -0.005704
C56   C     C_R   0.547328 0.290150 0.655312 -0.132779
C57   C     C_R   0.555258 0.301973 0.705501 0.002966
C58   C     C_R   0.656771 0.314245 0.729788 0.059242
C59   C     C_R   0.460501 0.296156 0.731618 -0.146463
C60   C     C_R   0.466252 0.302767 0.781952 -0.144360
C61   C     C_R   0.568182 0.318635 0.806543 0.005477
C62   C     C_R   0.664096 0.324598 0.780557 0.059250
C63   C     C_R   0.578626 0.336665 0.856737 -0.132404
C64   C     C_R   0.634386 0.279829 0.628751 -0.005769
H24   H     H_    0.506067 0.336289 0.876281 0.135665
H25   H     H_    0.392400 0.298618 0.801668 0.111973
H26   H     H_    0.381481 0.285118 0.713097 0.111579
H27   H     H_    0.467386 0.278207 0.637230 0.138056
C65   C     C_1   0.223114 0.863488 0.610333 -0.012899
C66   C     C_R   0.086388 0.743694 0.718794 -0.103552
C67   C     C_R   0.072270 0.733883 0.768497 -0.103866
C68   C     C_R   0.231008 0.931729 0.786227 -0.104465
C69   C     C_R   0.245165 0.941525 0.736451 -0.105286
C70   C     C_R   0.172982 0.847445 0.702663 0.036297
C71   C     C_R   0.145004 0.827516 0.802314 0.036606
C72   C     C_1   0.127413 0.815760 0.853231 -0.056694
C73   C     C_1   0.195203 0.854773 0.651877 -0.057751
C74   C     C_1   0.102665 0.798315 0.894730 -0.010455
H28   H     H_    0.031100 0.670039 0.693056 0.114455
H29   H     H_    0.005007 0.653055 0.780584 0.118778
H30   H     H_    0.287245 0.004835 0.812021 0.114148
H31   H     H_    0.313428 0.021742 0.724326 0.120364
C75   C     C_1   0.641029 0.867328 0.611848 -0.011367
C76   C     C_R   0.667481 0.926708 0.738505 -0.102964
C77   C     C_R   0.668361 0.914286 0.788106 -0.103407
C78   C     C_R   0.632546 0.717572 0.769391 -0.104080
C79   C     C_R   0.631656 0.730004 0.719725 -0.104515
C80   C     C_R   0.650043 0.834980 0.704213 0.036532
C81   C     C_R   0.651119 0.809777 0.803674 0.036084
C82   C     C_1   0.663730 0.800358 0.854472 -0.055912
C83   C     C_1   0.647042 0.848963 0.653356 -0.056154
C84   C     C_1   0.682246 0.791052 0.896077 -0.009953
H32   H     H_    0.680986 0.008065 0.726878 0.119991
H33   H     H_    0.684306 0.986597 0.814233 0.115808
H34   H     H_    0.620622 0.636808 0.781063 0.119142
H35   H     H_    0.617283 0.658296 0.693556 0.114106
O14   O     O_R   0.820790 0.857990 0.068830 -0.516456
O15   O     O_R   0.016700 0.827330 0.062850 -0.498314
C85   C     C_R   0.066060 0.773276 0.078966 0.547832
O16   O     O_R   0.041970 0.673520 0.060040 -0.518243
O17   O     O_R   0.817980 0.483660 0.048840 -0.501778
C86   C     C_R   0.716795 0.440913 0.067133 0.546613
O18   O     O_R   0.637200 0.461990 0.052510 -0.493467
O19   O     O_R   0.664790 0.681920 0.057970 -0.505501
C87   C     C_R   0.719301 0.782305 0.080431 0.545183
O20   O     O_R   0.815840 0.852920 0.961840 -0.506720
O21   O     O_R   0.012100 0.822630 0.963670 -0.491555
C88   C     C_R   0.057087 0.766496 0.941405 0.547946
O22   O     O_R   0.037010 0.668460 0.953040 -0.510634
O23   O     O_R   0.813390 0.478970 0.949660 -0.503244
C89   C     C_R   0.709898 0.432591 0.929475 0.546615
O24   O     O_R   0.632250 0.456930 0.945520 -0.516885
O25   O     O_R   0.660200 0.677230 0.958780 -0.494945
C90   C     C_R   0.716192 0.776413 0.943119 0.545809
Cr4   Cr    Cr6+3 0.914010 0.832750 0.013970 1.035668
Cr5   Cr    Cr6+3 0.922310 0.578600 0.003000 1.023350
Cr6   Cr    Cr6+3 0.656280 0.574630 0.003870 1.034837
O26   O     O_3   0.830870 0.661990 0.006950 -0.248207
N1    N     N_R   0.460365 0.279664 0.196825 0.066235
O27   O     O_R   0.440259 0.235326 0.151782 -0.337546
O28   O     O_R   0.380063 0.296662 0.218168 -0.399837

loop_
_geom_bond_atom_site_label_1
_geom_bond_atom_site_label_2
_geom_bond_distance
_ccdc_geom_bond_type
C78   H34   1.083956 S    
C52   C53   1.397911 A    
C33   C48   1.404362 A    
C79   C80   1.400356 A    
C76   H32   1.084131 S    
Cr5   O26   1.975286 S    
C22   H4    1.084452 S    
C35   C46   1.414810 A    
C56   C57   1.382801 A    
C1    C48   1.449063 S    
C81   C82   1.438471 S    
C40   C48   1.397901 A    
C71   C72   1.437856 S    
C76   C77   1.397619 A    
O4    Cr2   1.910066 S    
O8    Cr1   1.929564 S    
C10   C11   1.405789 A    
O11   Cr3   2.059830 S    
O17   C86   1.276079 A    
C77   H33   1.083613 S    
C17   C18   1.393469 A    
C45   C47   1.387927 A    
C18   C21   1.399951 A    
O4    C2    1.274600 A    
C47   H16   1.084665 S    
C39   C47   1.405147 A    
O19   C87   1.265330 A    
O14   Cr4   2.048245 S    
C54   C55   1.405339 A    
C88   O22   1.267324 A    
C36   H14   1.083922 S    
C86   O18   1.267972 A    
O25   Cr6   1.907332 S    
C33   H13   1.085089 S    
C56   C64   1.404132 A    
O6    C3    1.303320 A    
C72   C74   1.204542 T    
C57   C59   1.400185 A    
C78   C81   1.403375 A    
C22   C23   1.404663 A    
C8    C9    1.397357 A    
C3    C32   1.466844 S    
O22   Cr5   2.027656 S    
C67   C71   1.402655 A    
C35   C38   1.388295 A    
C66   C70   1.399437 A    
C9    H2    1.083691 S    
C23   C85   1.468577 S    
C70   C73   1.437634 S    
O20   C90   1.265276 A    
C25   C27   1.402787 A    
C78   C79   1.399433 A    
C52   H22   1.083499 S    
N1    O28   1.301395 A    
C43   H18   1.083632 S    
C69   C70   1.403484 A    
C29   C31   1.398953 A    
C66   H28   1.083608 S    
C27   C28   1.396936 A    
C40   H19   1.084361 S    
C9    C13   1.402931 A    
C21   H7    1.080814 S    
C60   H25   1.083844 S    
C31   H8    1.084233 S    
O1    Cr1   2.050147 S    
C43   C44   1.394253 A    
C28   C29   1.402288 A    
C27   H10   1.083554 S    
O10   Cr2   1.938631 S    
C84   C90   1.432591 S    
Cr1   O13   1.970263 S    
O1    C3    1.300525 A    
C45   C46   1.407658 A    
Cr4   O26   1.969912 S    
C41   C43   1.400815 A    
C20   C21   1.392746 A    
C51   C52   1.403285 A    
C44   H17   1.083181 S    
C34   C42   1.405992 A    
O5    Cr3   2.023744 S    
C5    O11   1.265791 A    
O12   Cr3   1.907146 S    
C68   H30   1.083551 S    
C7    C15   1.205415 T    
C34   C37   1.400853 A    
C44   C45   1.402641 A    
C13   C14   1.442977 S    
C18   C26   1.410780 A    
C76   C80   1.402690 A    
C24   C25   1.397743 A    
O21   Cr4   1.928039 S    
O16   Cr5   2.058710 S    
O7    Cr1   2.040459 S    
C57   C58   1.408139 A    
C23   C31   1.404737 A    
C35   C36   1.398649 A    
C61   C63   1.384713 A    
O12   C6    1.269773 A    
C37   H15   1.083255 S    
C49   C50   1.399054 A    
C63   H24   1.084759 S    
C16   C86   1.434028 S    
C2    O5    1.269100 A    
C56   H27   1.084550 S    
C19   C22   1.392395 A    
C28   H9    1.083539 S    
O20   Cr4   2.041664 S    
C25   C26   1.410648 A    
C49   H21   1.084167 S    
Cr2   O13   1.977507 S    
C79   H35   1.083477 S    
C38   H12   1.084915 S    
C5    C64   1.461457 S    
N1    O27   1.301197 A    
C1    O3    1.258449 A    
C29   C30   1.411819 A    
C24   C32   1.406581 A    
O21   C88   1.273346 A    
C50   C53   1.402792 A    
C53   H23   1.083482 S    
Cr6   O26   1.977091 S    
O9    Cr2   2.027706 S    
O2    Cr1   1.925842 S    
C89   O24   1.269008 A    
C12   C15   1.439577 S    
C8    C12   1.397709 A    
C41   C42   1.415361 A    
C51   C54   1.397188 A    
O6    Cr3   1.941571 S    
C67   H29   1.084090 S    
O8    C4    1.274120 A    
C20   H6    1.083810 S    
C55   C89   1.460271 S    
O15   C85   1.274607 A    
C39   C87   1.449878 S    
C8    H1    1.083326 S    
C59   H26   1.083850 S    
C60   C61   1.399359 A    
C77   C81   1.399869 A    
C74   C88   1.431965 S    
C11   H3    1.083923 S    
C65   C73   1.204420 T    
O2    C1    1.274079 A    
O23   Cr5   1.940557 S    
C80   C83   1.438638 S    
C69   H31   1.083802 S    
O14   C87   1.270862 A    
C17   C32   1.401959 A    
O23   C89   1.276045 A    
C14   C16   1.205909 T    
O19   Cr6   1.940080 S    
C19   C20   1.401402 A    
C19   C30   1.410275 A    
C68   C69   1.399196 A    
O7    C6    1.265410 A    
C26   C30   1.404486 A    
C2    C7    1.433401 S    
C61   C62   1.410481 A    
O15   Cr4   1.927510 S    
C10   N1    1.440322 S    
C68   C71   1.400313 A    
C6    C65   1.431792 S    
C50   C58   1.412117 A    
C85   O16   1.265920 A    
O17   Cr5   1.910338 S    
C24   H11   1.083923 S    
C36   C37   1.388797 A    
O3    Cr2   2.056201 S    
O24   Cr6   2.058792 S    
C40   C41   1.396151 A    
C4    C75   1.432654 S    
C4    O9    1.268872 A    
C55   C63   1.401267 A    
C10   C13   1.416142 A    
C59   C60   1.388259 A    
C66   C67   1.397168 A    
C11   C12   1.399542 A    
C49   C64   1.404118 A    
C42   C46   1.396170 A    
O10   C5    1.278676 A    
C33   C34   1.379640 A    
C17   H5    1.084541 S    
O25   C90   1.271194 A    
O18   Cr6   2.023331 S    
C54   H20   1.084196 S    
Cr3   O13   1.975085 S    
C51   C62   1.410489 A    
C75   C83   1.204991 T    
C58   C62   1.398976 A    
C38   C39   1.395807 A    
C82   C84   1.204916 T    
