data_mof_unit_21503.cif
_audit_creation_date              2012-12-10T20:36:39-0500
_audit_creation_method            fapswitch 2.2
_symmetry_space_group_name_H-M    P1
_symmetry_Int_Tables_number       1
_space_group_crystal_system       triclinic
_cell_length_a                    10.510481
_cell_length_b                    10.683856
_cell_length_c                    9.904019
_cell_angle_alpha                 89.031151
_cell_angle_beta                  89.96376
_cell_angle_gamma                 90.471258
_cell_volume                      1111.94977065

loop_
_atom_site_label
_atom_site_type_symbol
_atom_type_description
_atom_site_fract_x
_atom_site_fract_y
_atom_site_fract_z
_atom_type_partial_charge
C1    C     C_R   0.504666 0.259790 0.500563 0.909162
C2    C     C_R   0.551009 0.933284 0.617377 0.130402
C3    C     C_3   0.483918 0.920591 0.749824 -0.439879
C4    C     C_R   0.257693 0.502406 0.499825 0.982523
C5    C     C_3   0.480118 0.061993 0.750494 -0.498386
C6    C     C_R   0.397237 0.455106 0.072209 0.127689
C7    C     C_R   0.594414 0.559247 0.069293 -0.015200
C8    C     C_R   0.594932 0.556170 0.925564 -0.105712
C9    C     C_R   0.396473 0.457349 0.929865 0.215329
C10   C     C_3   0.339937 0.329884 0.923738 -0.462212
C11   C     C_3   0.344107 0.324921 0.077742 -0.248279
C12   C     C_3   0.957408 0.607865 0.447737 0.517846
C13   C     C_R   0.506063 0.739833 0.498964 0.918229
C14   C     C_R   0.742295 0.499020 0.500216 0.917109
C15   C     C_3   0.041975 0.394733 0.553134 0.030679
C16   C     C_3   0.958082 0.404150 0.425897 -0.193397
C17   C     C_3   0.876842 0.499042 0.501199 -0.073520
C18   C     C_3   0.958163 0.487829 0.629631 -0.359708
C19   C     C_3   0.039879 0.597756 0.574465 -0.072526
C20   C     C_2   0.695537 0.632089 0.136127 0.441634
C21   C     C_2   0.217071 0.316757 0.148145 0.454010
C22   C     C_2   0.092526 0.275181 0.612048 0.375203
C23   C     C_3   0.040453 0.514840 0.370758 -0.240980
C24   C     C_2   0.080627 0.707123 0.657103 0.413553
C25   C     C_3   0.992660 0.791627 0.328368 -0.251866
C26   C     C_3   0.122860 0.504099 0.499467 -0.118112
C27   C     C_R   0.548934 0.061208 0.618669 0.127071
C28   C     C_R   0.528022 0.128321 0.499151 -0.080521
C29   C     C_R   0.536563 0.066718 0.375068 -0.208006
C30   C     C_R   0.537921 0.937318 0.373893 -0.208901
C31   C     C_R   0.531149 0.870851 0.496837 -0.078797
H1    H     H_    0.920108 0.324575 0.367075 0.178147
H2    H     H_    0.076902 0.526926 0.266132 0.182410
H3    H     H_    0.532018 0.116878 0.279325 0.165356
H4    H     H_    0.533391 0.890589 0.277760 0.162077
H5    H     H_    0.388089 0.876806 0.741690 0.262328
H6    H     H_    0.678854 0.675043 0.232121 0.147616
H7    H     H_    0.214192 0.316224 0.257505 0.117186
H8    H     H_    0.067347 0.246884 0.714346 0.085950
H9    H     H_    0.009290 0.762859 0.706811 0.089781
H10   H     H_    0.021370 0.746637 0.232831 0.193502
H11   H     H_    0.077546 0.810367 0.392200 0.162716
H12   H     H_    0.545986 0.879887 0.829844 0.199336
H13   H     H_    0.949959 0.883267 0.301326 0.202746
H14   H     H_    0.381778 0.098634 0.740420 0.233730
H15   H     H_    0.539532 0.102280 0.832034 0.201291
H16   H     H_    0.671089 0.600744 0.868420 0.180997
H17   H     H_    0.243928 0.331542 0.877007 0.229868
H18   H     H_    0.406845 0.264585 0.877558 0.187138
H19   H     H_    0.413361 0.255656 0.117984 0.142670
H20   H     H_    0.921528 0.475623 0.734289 0.192251
N1    N     N_R   0.499140 0.499140 0.142800 -0.166023
N2    N     N_R   0.499140 0.499180 0.857150 -0.128971
O1    O     O_R   0.500020 0.316790 0.614690 -0.620460
O2    O     O_2   0.117499 0.307399 0.085449 -0.581512
O3    O     O_2   0.161726 0.209124 0.545219 -0.597921
O4    O     O_2   0.192877 0.734557 0.668426 -0.593911
O5    O     O_3   0.900625 0.718388 0.397292 -0.633388
O6    O     O_R   0.500000 0.316760 0.385350 -0.640247
O7    O     O_R   0.313960 0.499990 0.614650 -0.580214
O8    O     O_R   0.313940 0.499950 0.385310 -0.654444
O9    O     O_R   0.500000 0.683240 0.614650 -0.600307
O10   O     O_R   0.499980 0.683210 0.385310 -0.662134
O11   O     O_R   0.686060 0.500050 0.614690 -0.638641
O12   O     O_R   0.686040 0.500010 0.385350 -0.634377
O13   O     O_2   0.798945 0.648383 0.082004 -0.596704
Zn1   Zn    Zn3+2 0.500010 0.500020 0.653130 0.974793
Zn2   Zn    Zn3+2 0.499990 0.499980 0.346870 0.932926

loop_
_geom_bond_atom_site_label_1
_geom_bond_atom_site_label_2
_ccdc_geom_bond_type
C25   H11   S    
C12   C17   S    
C15   C18   S    
C4    C26   S    
C1    O1    A    
C29   H3    S    
C29   C30   A    
O6    Zn2   S    
C16   H1    S    
C9    C10   S    
C24   O4    D    
C8    N2    A    
N1    Zn2   S    
C22   O3    D    
O12   Zn2   S    
C14   O11   A    
C4    O7    A    
C6    C9    A    
C2    C3    S    
C8    H16   S    
C12   O5    S    
C7    C8    A    
C15   C22   S    
C11   H19   S    
C20   H6    S    
C14   C17   S    
C3    H12   S    
C25   O5    S    
C2    C27   A    
C3    H5    S    
C22   H8    S    
C30   H4    S    
C12   C19   S    
C20   O13   D    
C28   C29   A    
C24   H9    S    
C14   O12   A    
C13   C31   S    
C7    N1    A    
C19   C24   S    
C16   C23   S    
C1    O6    A    
C10   H17   S    
C30   C31   A    
N2    Zn1   S    
C16   C17   S    
C9    N2    A    
C10   C11   S    
C21   H7    S    
C15   C16   S    
O11   Zn1   S    
C3    C5    S    
C27   C28   A    
C25   H13   S    
C17   C18   S    
C7    C20   S    
C5    H15   S    
C23   C26   S    
C25   H10   S    
C6    C11   S    
C21   O2    D    
C19   C26   S    
O8    Zn2   S    
O10   Zn2   S    
C18   C19   S    
C15   C26   S    
C12   C23   S    
O1    Zn1   S    
C6    N1    A    
C5    C27   S    
C10   H18   S    
C5    H14   S    
C4    O8    A    
C11   C21   S    
O9    Zn1   S    
C18   H20   S    
C13   O9    A    
O7    Zn1   S    
C2    C31   A    
C23   H2    S    
C1    C28   S    
C13   O10   A    
