data_mof_unit_39583.cif
_audit_creation_date              2012-12-11T15:49:04-0500
_audit_creation_method            fapswitch 2.2
_symmetry_space_group_name_H-M    P1
_symmetry_Int_Tables_number       1
_space_group_crystal_system       triclinic
_cell_length_a                    21.641729
_cell_length_b                    7.185221
_cell_length_c                    15.031694
_cell_angle_alpha                 89.456493
_cell_angle_beta                  107.875696
_cell_angle_gamma                 89.876078
_cell_volume                      2224.46529828

loop_
_atom_site_label
_atom_site_type_symbol
_atom_type_description
_atom_site_fract_x
_atom_site_fract_y
_atom_site_fract_z
_atom_type_partial_charge
O1    O     O_R   0.335860 0.638190 0.002110 -0.537830
O2    O     O_R   0.664140 0.361810 0.997890 -0.537829
O3    O     O_R   0.164140 0.138190 0.997890 -0.545876
O4    O     O_R   0.835860 0.861810 0.002110 -0.545876
O5    O     O_R   0.217530 0.305920 0.861960 -0.531736
O6    O     O_R   0.782470 0.694080 0.138040 -0.531736
O7    O     O_R   0.282470 0.805920 0.138040 -0.523901
O8    O     O_R   0.717530 0.194080 0.861960 -0.523901
C1    C     C_R   0.205256 0.478199 0.825348 0.799380
C2    C     C_R   0.794744 0.521801 0.174652 0.799378
C3    C     C_R   0.294501 0.975343 0.174222 0.816388
C4    C     C_R   0.705499 0.024658 0.825778 0.816388
O9    O     O_R   0.338690 0.308320 0.993240 -0.518249
O10   O     O_R   0.661310 0.691680 0.006760 -0.518249
O11   O     O_R   0.161310 0.808320 0.006760 -0.513700
O12   O     O_R   0.838690 0.191680 0.993240 -0.513700
O13   O     O_R   0.286170 0.140430 0.130100 -0.533198
O14   O     O_R   0.713830 0.859570 0.869900 -0.533199
O15   O     O_R   0.213830 0.640430 0.869900 -0.517193
O16   O     O_R   0.786170 0.359570 0.130100 -0.517192
C5    C     C_R   0.365245 0.476193 0.999330 0.763264
C6    C     C_R   0.634755 0.523807 0.000670 0.763263
C7    C     C_R   0.134819 0.976223 0.001054 0.774475
C8    C     C_R   0.865181 0.023776 0.998946 0.774476
O17   O     O_3   0.232630 0.472410 0.044750 -0.374799
O18   O     O_3   0.767370 0.527590 0.955250 -0.374799
O19   O     O_3   0.267370 0.972410 0.955250 -0.370841
O20   O     O_3   0.732630 0.027590 0.044750 -0.370841
V1    V     V_3+5 0.253220 0.196620 0.991700 1.646330
V2    V     V_3+5 0.746780 0.803380 0.008300 1.646329
V3    V     V_3+5 0.246780 0.696620 0.008300 1.668602
V4    V     V_3+5 0.753220 0.303380 0.991700 1.668602
C9    C     C_R   0.021970 0.833787 0.971391 0.344612
C10   C     C_R   0.978031 0.166212 0.028610 0.344612
C11   C     C_R   0.479213 0.337345 0.034121 0.313898
C12   C     C_R   0.520787 0.662655 0.965880 0.313897
C13   C     C_R   0.957390 0.852201 0.970460 -0.132244
C14   C     C_R   0.042611 0.147798 0.029541 -0.132244
C15   C     C_R   0.543546 0.353757 0.033530 -0.107194
C16   C     C_R   0.456454 0.646243 0.966470 -0.107194
H1    H     H_    0.924676 0.737024 0.945519 0.207642
H2    H     H_    0.075324 0.262975 0.054481 0.207641
H3    H     H_    0.576850 0.239482 0.061191 0.197780
H4    H     H_    0.423150 0.760518 0.938809 0.197781
C17   C     C_R   0.934228 0.015998 0.999447 -0.158783
C18   C     C_R   0.065772 0.984002 0.000554 -0.158782
C19   C     C_R   0.565643 0.515194 0.999866 -0.142901
C20   C     C_R   0.434357 0.484806 0.000134 -0.142901
C21   C     C_R   0.677803 0.022611 0.723695 -0.208555
C22   C     C_R   0.322196 0.977390 0.276305 -0.208555
C23   C     C_R   0.820999 0.509913 0.277693 -0.204400
C24   C     C_R   0.179002 0.490085 0.722307 -0.204408
C25   C     C_R   0.691751 0.029649 0.568779 0.366541
C26   C     C_R   0.308247 0.970352 0.431221 0.366543
C27   C     C_R   0.807960 0.537479 0.432712 0.364290
C28   C     C_R   0.192042 0.462519 0.567288 0.364288
C29   C     C_R   0.717902 0.003865 0.666609 0.202151
C30   C     C_R   0.282096 0.996134 0.333391 0.202152
C31   C     C_R   0.782771 0.558887 0.334371 0.207121
C32   C     C_R   0.217231 0.441117 0.665629 0.207122
C33   C     C_R   0.611578 0.057721 0.683256 0.181954
C34   C     C_R   0.388421 0.942279 0.316745 0.181954
C35   C     C_R   0.884688 0.448108 0.320114 0.187198
C36   C     C_R   0.115314 0.551900 0.679883 0.187210
C37   C     C_R   0.582699 0.029449 0.586823 -0.034209
C38   C     C_R   0.417300 0.970553 0.413177 -0.034210
C39   C     C_R   0.915724 0.486059 0.415108 -0.031698
C40   C     C_R   0.084278 0.513934 0.584892 -0.031713
C41   C     C_R   0.622689 0.043210 0.527051 -0.107537
C42   C     C_R   0.377309 0.956791 0.472949 -0.107537
C43   C     C_R   0.876361 0.506470 0.475229 -0.102362
C44   C     C_R   0.123641 0.493536 0.524770 -0.102354
C45   C     C_R   0.514863 0.995056 0.548560 0.045942
C46   C     C_R   0.485135 0.004943 0.451441 0.045943
C47   C     C_R   0.984822 0.497590 0.451479 0.047775
C48   C     C_R   0.015179 0.502408 0.548520 0.047779
C49   C     C_R   0.523009 0.062802 0.395393 -0.117715
C50   C     C_R   0.476989 0.937200 0.604608 -0.117717
C51   C     C_R   0.976039 0.482165 0.607215 -0.121944
C52   C     C_R   0.023963 0.517831 0.392785 -0.121946
C53   C     C_R   0.590527 0.074811 0.430055 0.371359
C54   C     C_R   0.409471 0.925195 0.569946 0.371361
C55   C     C_R   0.908310 0.490553 0.573345 0.370314
C56   C     C_R   0.091692 0.509442 0.426654 0.370316
Br1   Br    Br    0.044625 0.598733 0.929856 -0.457630
Br2   Br    Br    0.955375 0.401266 0.070145 -0.457632
Br3   Br    Br    0.458257 0.112143 0.087149 -0.450053
Br4   Br    Br    0.541743 0.887857 0.912851 -0.450054
Br5   Br    Br    0.629336 0.157638 0.337267 -0.329946
Br6   Br    Br    0.370661 0.842378 0.662736 -0.329947
Br7   Br    Br    0.868424 0.464587 0.670974 -0.324881
Br8   Br    Br    0.131579 0.535422 0.329028 -0.324886
Br9   Br    Br    0.433038 0.794234 0.247967 -0.455021
Br10  Br    Br    0.566962 0.205767 0.752034 -0.455023
Br11  Br    Br    0.081141 0.748918 0.737891 -0.464508
Br12  Br    Br    0.918858 0.251077 0.262110 -0.464508
Br13  Br    Br    0.190148 0.038843 0.274939 -0.382943
Br14  Br    Br    0.809851 0.961159 0.725060 -0.382940
Br15  Br    Br    0.306287 0.363681 0.724538 -0.360024
Br16  Br    Br    0.693714 0.636323 0.275463 -0.360021
Br17  Br    Br    0.753862 0.035090 0.499771 -0.308453
Br18  Br    Br    0.246135 0.964908 0.500228 -0.308457
Br19  Br    Br    0.745194 0.553561 0.500201 -0.311835
Br20  Br    Br    0.254809 0.446439 0.499799 -0.311840
H5    H     H_    0.499998 0.101623 0.323085 0.205370
H6    H     H_    0.500000 0.898382 0.676917 0.205372
H7    H     H_    0.998148 0.458341 0.681354 0.199780
H8    H     H_    0.001854 0.541648 0.318645 0.199781

loop_
_geom_bond_atom_site_label_1
_geom_bond_atom_site_label_2
_ccdc_geom_bond_type
O17   V3    S    
O1    C5    A    
C31   Br16  S    
C27   C31   A    
O19   V1    S    
O13   V1    S    
C45   C46   A    
O3    C7    A    
C48   C51   A    
C52   C56   A    
C32   Br15  S    
O15   V3    S    
C4    C21   S    
C21   C29   A    
C12   Br4   S    
O7    C3    A    
C30   Br13  S    
C8    C17   S    
C36   C40   A    
O9    V1    S    
C14   H2    S    
O16   V4    S    
O4    C8    A    
C2    C23   S    
C38   C46   A    
C27   Br19  S    
O1    V3    S    
C37   C45   A    
C12   C19   A    
O2    V4    S    
C10   Br2   S    
O3    V1    S    
C9    Br1   S    
C24   C32   A    
C11   Br3   S    
C1    O15   A    
C2    O16   A    
C28   C44   A    
C46   C49   A    
O2    C6    A    
C45   C50   A    
O14   V2    S    
C47   C52   A    
O5    V1    S    
C23   C35   A    
C40   C44   A    
C5    C20   S    
C53   Br5   S    
O11   C7    A    
C6    C19   S    
C25   C41   A    
O12   C8    A    
C7    C18   S    
C10   C14   A    
C9    C18   A    
C1    C24   S    
O10   V2    S    
C11   C20   A    
C43   C55   A    
C35   C39   A    
C21   C33   A    
C34   C38   A    
O9    C5    A    
C22   C30   A    
C12   C16   A    
O7    V3    S    
C28   Br20  S    
C24   C36   A    
C25   Br17  S    
C25   C29   A    
O18   V4    S    
C15   H3    S    
C35   Br12  S    
C9    C13   A    
C28   C32   A    
O8    V4    S    
C11   C15   A    
C47   C48   A    
O5    C1    A    
C50   C54   A    
C26   C42   A    
C49   C53   A    
O8    C4    A    
C51   H7    S    
C10   C17   A    
C40   C48   A    
C44   C56   A    
O6    V2    S    
C22   C34   A    
C23   C31   A    
C13   C17   A    
C15   C19   A    
C26   C30   A    
C16   C20   A    
C3    O13   A    
C33   Br10  S    
C26   Br18  S    
C36   Br11  S    
O6    C2    A    
O11   V3    S    
O12   V4    S    
C55   Br7   S    
C52   H8    S    
C54   Br6   S    
C50   H6    S    
O10   C6    A    
O20   V2    S    
C3    C22   S    
C51   C55   A    
C38   C42   A    
C37   C41   A    
C29   Br14  S    
C49   H5    S    
C39   C43   A    
C13   H1    S    
C42   C54   A    
O4    V2    S    
C14   C18   A    
C41   C53   A    
C33   C37   A    
C16   H4    S    
C39   C47   A    
C34   Br9   S    
C4    O14   A    
C56   Br8   S    
C27   C43   A    
