data_mof_unit_52268.cif
_audit_creation_date              2013-03-05T15:52:43-0500
_audit_creation_method            fapswitch 2.2
_symmetry_space_group_name_H-M    P1
_symmetry_Int_Tables_number       1
_space_group_crystal_system       triclinic
_cell_length_a                    10.734848
_cell_length_b                    10.764445
_cell_length_c                    17.016237
_cell_angle_alpha                 99.393338
_cell_angle_beta                  99.417036
_cell_angle_gamma                 61.65631
_cell_volume                      1698.95048685

loop_
_atom_site_label
_atom_site_type_symbol
_atom_site_description
_atom_site_fract_x
_atom_site_fract_y
_atom_site_fract_z
_atom_type_partial_charge
O1    O     O_R   0.749250 0.499990 0.439200 -0.466718
O2    O     O_R   0.477870 0.725740 0.440280 -0.506903
C1    C     C_R   0.355864 0.773685 0.400663 0.555975
O3    O     O_R   0.260770 0.742210 0.412610 -0.460321
O4    O     O_R   0.297990 0.466320 0.394220 -0.479111
C2    C     C_R   0.370170 0.346803 0.357159 0.581364
O5    O     O_R   0.487720 0.253870 0.385870 -0.514122
O6    O     O_R   0.721940 0.304340 0.422320 -0.529337
C3    C     C_R   0.775780 0.378105 0.404391 0.527034
O7    O     O_R   0.750770 0.502570 0.614050 -0.489264
O8    O     O_R   0.479280 0.728140 0.602370 -0.440999
C4    C     C_R   0.358200 0.769930 0.627055 0.584625
O9    O     O_R   0.262290 0.744790 0.587460 -0.502844
O10   O     O_R   0.299400 0.468710 0.556310 -0.498408
C5    C     C_R   0.363811 0.344116 0.577845 0.604858
O11   O     O_R   0.489240 0.256450 0.560730 -0.437366
O12   O     O_R   0.723350 0.306730 0.584410 -0.484058
C6    C     C_R   0.772728 0.381233 0.629713 0.549855
Cr1   Cr    Cr6+3 0.608020 0.610770 0.522990 1.136507
Cr2   Cr    Cr6+3 0.289390 0.599570 0.488050 1.119404
Cr3   Cr    Cr6+3 0.602610 0.289690 0.489020 1.099175
O13   O     O_3   0.500010 0.500010 0.500020 -0.306803
C7    C     C_1   0.343685 0.336569 0.273806 0.034168
C8    C     C_1   0.331861 0.326545 0.202927 -0.000066
C9    C     C_2   0.850268 0.332179 0.332566 0.222242
C10   C     C_2   0.820425 0.332711 0.155711 -0.081666
C11   C     C_2   0.850007 0.221207 0.194140 -0.093117
C12   C     C_2   0.824072 0.239831 0.277357 -0.098290
H1    H     H_    0.900928 0.113089 0.166140 0.192893
H2    H     H_    0.765875 0.440499 0.183718 0.126333
C13   C     C_2   0.334459 0.847128 0.330779 0.214021
C14   C     C_2   0.348557 0.813531 0.153962 -0.074495
C15   C     C_2   0.438462 0.840287 0.209944 -0.122154
C16   C     C_2   0.449904 0.810438 0.292245 -0.154922
H3    H     H_    0.556757 0.744885 0.318552 0.155327
H4    H     H_    0.293633 0.758252 0.167938 0.126610
C17   C     C_2   0.299495 0.315099 0.636475 -0.051803
C18   C     C_2   0.321640 0.313557 0.813686 0.198473
C19   C     C_2   0.337022 0.205421 0.755919 -0.138080
C20   C     C_2   0.367458 0.197691 0.674335 0.187476
H5    H     H_    0.333532 0.112403 0.770456 0.119263
C21   C     C_1   0.816926 0.342152 0.708745 -0.000017
C22   C     C_1   0.844085 0.313673 0.776427 0.014385
C23   C     C_1   0.338897 0.811081 0.708942 0.011714
C24   C     C_1   0.312987 0.838771 0.777026 0.019314
O14   O     O_R   0.170650 0.915100 0.051290 -0.489852
O15   O     O_R   0.941960 0.184500 0.049060 -0.499158
C25   C     C_R   0.891562 0.308588 0.085442 0.580747
O16   O     O_R   0.922640 0.402670 0.071640 -0.484129
O17   O     O_R   0.196880 0.368740 0.083740 -0.476554
C26   C     C_R   0.318816 0.299337 0.119688 0.553246
O18   O     O_R   0.411120 0.181190 0.091480 -0.515422
O19   O     O_R   0.364220 0.944920 0.062310 -0.497888
C27   C     C_R   0.295061 0.888878 0.082721 0.587002
O20   O     O_R   0.158740 0.906940 0.874970 -0.472053
O21   O     O_R   0.930920 0.176940 0.885610 -0.493924
C28   C     C_R   0.885924 0.296882 0.858604 0.558943
O22   O     O_R   0.910730 0.394510 0.895320 -0.509010
O23   O     O_R   0.185840 0.361180 0.920280 -0.489150
C29   C     C_R   0.306297 0.290616 0.892127 0.564795
O24   O     O_R   0.399210 0.173040 0.915160 -0.518540
O25   O     O_R   0.353170 0.937370 0.898860 -0.511747
C30   C     C_R   0.278480 0.884949 0.856644 0.577628
Cr4   Cr    Cr6+3 0.053780 0.052210 0.965970 1.085913
Cr5   Cr    Cr6+3 0.060060 0.372530 0.992430 1.085292
Cr6   Cr    Cr6+3 0.372600 0.061970 0.991430 1.054453
O26   O     O_3   0.162150 0.162240 0.983280 -0.282618
N1    N     N_R   0.467373 0.064095 0.637308 0.095117
O27   O     O_R   0.446284 0.028118 0.561368 -0.321143
O28   O     O_R   0.565952 0.969351 0.681618 -0.311897
N2    N     N_R   0.340065 0.433986 0.803918 0.046432
O29   O     O_R   0.445205 0.416707 0.767135 -0.355258
O30   O     O_R   0.272131 0.553817 0.846388 -0.326417
H6    H     H_    0.208330 0.405766 0.661489 0.107721
H7    H     H_    0.771654 0.182359 0.291467 0.143600
N3    N     N_R   0.931335 0.400332 0.317555 0.069011
O31   O     O_R   0.045438 0.329219 0.280469 -0.287335
O32   O     O_R   0.895636 0.532032 0.344178 -0.321568
H8    H     H_    0.495939 0.893927 0.197494 0.170778
N4    N     N_R   0.192476 0.944737 0.300701 0.067416
O33   O     O_R   0.172888 0.046409 0.260506 -0.307906
O34   O     O_R   0.081708 0.943621 0.321538 -0.326679

loop_
_geom_bond_atom_site_label_1
_geom_bond_atom_site_label_2
_geom_bond_distance
_ccdc_geom_bond_type
C17   H6    1.088685 S    
O11   Cr3   2.034716 S    
C11   H1    1.086489 S    
C3    C9    1.457654 S    
C13   N4    1.445227 S    
C19   H5    1.088418 S    
O4    Cr2   1.946817 S    
O19   C27   1.270330 A    
C9    C12   1.350543 D    
O8    Cr1   1.930437 S    
C10   C11   1.339954 D    
O16   Cr5   2.037550 S    
C14   H4    1.087868 S    
N3    O32   1.301236 A    
C17   C20   1.334564 D    
C6    C21   1.413146 S    
C18   C19   1.358514 D    
C5    O11   1.272960 A    
O21   C28   1.280749 A    
C16   H3    1.086539 S    
C5    C17   1.449645 S    
N1    O27   1.301990 A    
O24   Cr6   2.036553 S    
O6    C3    1.276785 A    
Cr5   O26   1.983597 S    
O20   C30   1.274232 A    
C7    C8    1.184424 T    
O21   Cr4   1.933841 S    
C10   C25   1.445511 S    
C8    C26   1.396507 S    
Cr6   O26   1.979646 S    
O23   C29   1.276650 A    
Cr3   O13   1.983728 S    
C14   C27   1.451919 S    
O12   C6    1.259575 A    
O1    Cr1   2.046739 S    
O25   Cr6   1.947348 S    
C26   O18   1.260740 A    
Cr4   O26   1.981222 S    
O10   Cr2   1.922098 S    
Cr1   O13   1.982637 S    
O1    C3    1.264940 A    
N3    O31   1.299808 A    
N4    O34   1.301030 A    
O15   Cr4   1.934657 S    
N2    O30   1.301128 A    
C15   H8    1.086266 S    
O17   C26   1.266618 A    
O5    Cr3   2.067080 S    
C24   C30   1.410451 S    
O12   Cr3   1.946378 S    
O14   Cr4   2.050687 S    
C29   O24   1.259226 A    
O25   C30   1.259404 A    
O22   Cr5   2.063233 S    
O15   C25   1.270293 A    
O7    Cr1   2.055025 S    
O20   Cr4   2.054303 S    
O14   C27   1.267664 A    
O6    Cr3   1.918332 S    
C13   C16   1.355883 D    
C1    C13   1.461806 S    
O19   Cr6   1.920814 S    
C18   C29   1.444949 S    
C25   O16   1.271294 A    
Cr2   O13   1.980358 S    
C10   H2    1.087183 S    
C21   C22   1.194104 T    
C1    O3    1.271610 A    
C19   C20   1.458021 S    
O18   Cr6   2.068017 S    
C23   C24   1.192642 T    
C18   N2    1.439394 S    
O9    Cr2   2.062957 S    
O2    Cr1   1.935907 S    
N4    O33   1.299463 A    
O8    C4    1.276720 A    
C2    O5    1.261322 A    
C9    N3    1.449445 S    
C14   C15   1.339925 D    
O2    C1    1.272391 A    
N2    O29   1.301565 A    
C4    C23   1.409474 S    
O23   Cr5   1.918908 S    
C28   O22   1.250050 A    
O4    C2    1.265615 A    
O7    C6    1.278010 A    
C2    C7    1.396952 S    
C15   C16   1.460374 S    
O17   Cr5   1.946801 S    
C22   C28   1.410560 S    
O3    Cr2   2.041148 S    
C4    O9    1.251099 A    
N1    O28   1.301389 A    
C20   N1    1.440929 S    
C11   C12   1.451277 S    
O10   C5    1.268118 A    
C12   H7    1.086392 S    
