data_mof_unit_16130.cif
_audit_creation_date              2013-03-05T16:18:22-0500
_audit_creation_method            fapswitch 2.2
_symmetry_space_group_name_H-M    P1
_symmetry_Int_Tables_number       1
_space_group_crystal_system       triclinic
_cell_length_a                    10.706686
_cell_length_b                    9.83566
_cell_length_c                    10.481231
_cell_angle_alpha                 90.670853
_cell_angle_beta                  87.578024
_cell_angle_gamma                 90.208506
_cell_volume                      1102.6833447

loop_
_atom_site_label
_atom_site_type_symbol
_atom_site_description
_atom_site_fract_x
_atom_site_fract_y
_atom_site_fract_z
_atom_type_partial_charge
O1    O     O_R   0.314910 0.616040 0.499970 -0.635156
O2    O     O_R   0.314910 0.383960 0.499970 -0.632835
C1    C     C_R   0.258633 0.499995 0.507287 0.963107
O3    O     O_R   0.500080 0.616020 0.313900 -0.624900
O4    O     O_R   0.500080 0.383980 0.313900 -0.615170
C2    C     C_R   0.499777 0.499651 0.257771 0.955969
Zn1   Zn    Zn3+2 0.500150 0.654960 0.499940 0.911677
Zn2   Zn    Zn3+2 0.500150 0.345040 0.499940 0.907089
O5    O     O_R   0.685320 0.616040 0.499930 -0.620925
O6    O     O_R   0.685320 0.383960 0.499930 -0.619520
O7    O     O_R   0.500150 0.616060 0.686000 -0.630800
O8    O     O_R   0.500150 0.383940 0.686000 -0.656076
C3    C     C_R   0.740296 0.500559 0.519544 0.866875
C4    C     C_R   0.500167 0.500274 0.742126 0.893197
C5    C     C_3   0.487431 0.629358 0.043276 -0.254930
C6    C     C_3   0.403935 0.422009 0.045068 -0.261450
C7    C     C_3   0.394440 0.549861 0.963871 0.478782
H1    H     H_    0.474341 0.734323 0.081596 0.151188
H2    H     H_    0.324665 0.361098 0.085763 0.166487
C8    C     C_3   0.501402 0.499597 0.876804 -0.030147
C9    C     C_3   0.597045 0.577151 0.954624 -0.266504
C10   C     C_3   0.513790 0.370405 0.956431 -0.224989
C11   C     C_3   0.607994 0.448920 0.036428 0.256976
C12   C     C_3   0.499706 0.499891 0.122894 -0.046904
H3    H     H_    0.675732 0.638528 0.913291 0.142625
H4    H     H_    0.526700 0.265533 0.917936 0.153047
C13   C     C_3   0.075594 0.628503 0.590211 -0.517896
C14   C     C_3   0.074477 0.374997 0.590963 -0.450853
H5    H     H_    0.115467 0.722001 0.545635 0.204824
H6    H     H_    0.106457 0.280231 0.540473 0.234293
H7    H     H_    0.110774 0.627587 0.688767 0.198782
H8    H     H_    0.115477 0.373526 0.686918 0.159243
C15   C     C_3   0.931519 0.632113 0.597785 -0.009593
C16   C     C_3   0.930786 0.378792 0.607096 -0.008219
H9    H     H_    0.901670 0.625722 0.700770 0.147353
H10   H     H_    0.907396 0.399754 0.710117 0.144115
H11   H     H_    0.891844 0.578702 0.330614 0.150525
H12   H     H_    0.894404 0.399354 0.340304 0.177312
C17   C     C_3   0.073968 0.495478 0.377300 0.814037
C18   C     C_3   0.122720 0.500281 0.515428 0.032431
C19   C     C_3   0.878698 0.501356 0.527137 0.056227
C20   C     C_3   0.929778 0.493715 0.386258 -0.477913
C21   C     C_3   0.397751 0.078917 0.420332 -0.217780
C22   C     C_3   0.389163 0.918185 0.433770 -0.239626
H13   H     H_    0.414495 0.104643 0.317829 0.153286
H14   H     H_    0.381042 0.870472 0.337708 0.163218
H15   H     H_    0.306164 0.125633 0.447504 0.176397
H16   H     H_    0.301352 0.891407 0.488081 0.150695
H17   H     H_    0.640488 0.126473 0.346069 0.174516
H18   H     H_    0.603875 0.892270 0.320763 0.164755
C23   C     C_3   0.616840 0.078713 0.439701 -0.330244
C24   C     C_3   0.608690 0.919539 0.423899 -0.317032
C25   C     C_3   0.481362 0.085489 0.629289 0.167447
C26   C     C_3   0.496548 0.923827 0.630724 0.130273
N1    N     N_3   0.499750 0.138610 0.497240 -0.055828
N2    N     N_3   0.499750 0.861390 0.497240 -0.052671
H19   H     H_    0.556373 0.129380 0.687744 0.114373
H20   H     H_    0.589863 0.904678 0.670234 0.090359
H21   H     H_    0.694279 0.099793 0.501523 0.156263
H22   H     H_    0.695033 0.873942 0.453463 0.173881
O9    O     O_3   0.283368 0.602057 0.919165 -0.810084
H23   H     H_    0.231890 0.626485 0.996818 0.346063
C27   C     C_3   0.356026 0.137845 0.693187 -0.874838
H24   H     H_    0.360311 0.135907 0.798857 0.212207
H25   H     H_    0.333352 0.242340 0.670291 0.289592
H26   H     H_    0.274532 0.077943 0.661790 0.213124
C28   C     C_3   0.401405 0.853495 0.726722 -0.761703
H27   H     H_    0.452938 0.806381 0.804396 0.243569
H28   H     H_    0.335532 0.916610 0.784042 0.205127
H29   H     H_    0.340908 0.779634 0.678311 0.279579
C29   C     C_3   0.730136 0.391757 0.081418 -0.948405
H30   H     H_    0.778205 0.470127 0.138628 0.236206
H31   H     H_    0.710967 0.300873 0.141029 0.243120
H32   H     H_    0.791302 0.362601 0.997440 0.239320
C30   C     C_3   0.887271 0.772882 0.557938 -0.910214
H33   H     H_    0.884993 0.780135 0.452632 0.247860
H34   H     H_    0.795664 0.794367 0.606936 0.244576
H35   H     H_    0.949569 0.854683 0.592821 0.231084
C31   C     C_3   0.879051 0.235910 0.584306 -0.899160
H36   H     H_    0.875832 0.213297 0.480564 0.265823
H37   H     H_    0.938281 0.157838 0.627863 0.227597
H38   H     H_    0.786595 0.226988 0.635341 0.240452
O10   O     O_3   0.119736 0.607398 0.305479 -0.806894
H39   H     H_    0.077353 0.691281 0.337413 0.314773
O11   O     O_3   0.116791 0.375291 0.315489 -0.792056
H40   H     H_    0.095195 0.381038 0.224457 0.339620

loop_
_geom_bond_atom_site_label_1
_geom_bond_atom_site_label_2
_geom_bond_distance
_ccdc_geom_bond_type
C5    H1    1.110577 S    
C27   H25   1.088745 S    
C13   H5    1.112015 S    
C19   C20   1.553864 S    
C21   C22   1.590792 S    
C3    C19   1.487310 S    
O11   H40   0.993487 S    
C13   C15   1.541772 S    
Zn1   O7    1.991708 S    
H12   C20   1.113200 S    
O4    C2    1.286988 A    
O7    C4    1.287910 A    
C14   C18   1.547797 S    
C7    C8    1.514571 S    
Zn1   O5    2.020537 S    
H11   C20   1.112536 S    
O5    C3    1.303607 A    
C24   H22   1.087311 S    
C29   H32   1.110220 S    
C7    O9    1.398036 S    
C15   C30   1.533264 S    
C6    C7    1.532725 S    
H17   C23   1.112120 S    
H18   C24   1.113990 S    
C11   C12   1.523708 S    
C23   N1    1.488476 S    
C27   H26   1.110279 S    
C14   C16   1.541142 S    
C6    C12   1.534252 S    
C16   C19   1.592059 S    
Zn1   N2    2.030927 S    
O3    Zn1   1.982812 S    
Zn2   N1    2.030234 S    
C22   H14   1.112464 S    
C17   C20   1.542722 S    
C25   N1    1.490120 S    
C26   N2    1.520431 S    
C13   H7    1.114513 S    
C23   C24   1.574879 S    
C11   C29   1.520635 S    
C14   H8    1.114499 S    
C31   H36   1.109250 S    
O3    C2    1.280817 A    
C17   C18   1.559737 S    
C31   H37   1.111955 S    
C25   H19   1.113383 S    
C26   C28   1.566244 S    
C25   C26   1.599247 S    
C28   H27   1.109330 S    
O1    C1    1.290278 A    
C30   H33   1.108174 S    
C4    C8    1.412305 S    
C16   C31   1.528567 S    
O4    Zn2   1.991613 S    
C21   H13   1.113624 S    
C22   N2    1.495527 S    
O10   H39   0.990991 S    
C13   C18   1.551607 S    
Zn2   O8    1.982916 S    
C2    C12   1.413743 S    
C30   H34   1.107596 S    
C21   N1    1.498589 S    
C5    C12   1.539658 S    
O8    C4    1.280447 A    
C1    C18   1.454084 S    
C9    C11   1.540936 S    
C23   H21   1.091458 S    
C17   O11   1.410051 S    
C29   H31   1.110160 S    
C26   H20   1.115042 S    
C5    C7    1.531164 S    
C9    H3    1.110610 S    
C6    C10   1.550826 S    
O1    Zn1   2.018531 S    
O2    Zn2   2.021265 S    
C8    C10   1.537589 S    
O6    C3    1.305274 A    
C31   H38   1.108802 S    
C28   H29   1.104749 S    
C15   C19   1.590577 S    
C14   H6    1.114233 S    
O2    C1    1.292484 A    
C17   O10   1.415225 S    
C29   H30   1.109487 S    
C25   C27   1.560605 S    
C6    H2    1.110334 S    
C15   H9    1.115126 S    
C16   H10   1.115111 S    
O9    H23   0.991167 S    
C30   H35   1.111627 S    
C27   H24   1.110818 S    
C22   H16   1.110760 S    
C5    C9    1.550951 S    
C8    C9    1.531693 S    
Zn2   O6    2.017802 S    
C10   H4    1.110157 S    
C10   C11   1.538615 S    
C28   H28   1.096530 S    
C21   H15   1.109231 S    
C24   N2    1.485978 S    
