data_mof_unit_59483.cif
_audit_creation_date              2012-12-10T18:58:13-0500
_audit_creation_method            fapswitch 2.2
_symmetry_space_group_name_H-M    P1
_symmetry_Int_Tables_number       1
_space_group_crystal_system       triclinic
_cell_length_a                    10.636781
_cell_length_b                    10.101365
_cell_length_c                    15.622486
_cell_angle_alpha                 82.92858
_cell_angle_beta                  92.344402
_cell_angle_gamma                 90.724071
_cell_volume                      1664.36242584

loop_
_atom_site_label
_atom_site_type_symbol
_atom_type_description
_atom_site_fract_x
_atom_site_fract_y
_atom_site_fract_z
_atom_type_partial_charge
C1    C     C_R   0.873392 0.498749 0.478187 -0.375155
C2    C     C_R   0.558594 0.385888 0.973814 0.209433
C3    C     C_R   0.480459 0.470666 0.917177 -0.246850
C4    C     C_R   0.527556 0.531560 0.082723 -0.240148
C5    C     C_1   0.485815 0.465775 0.827163 0.241057
C6    C     C_1   0.519336 0.535273 0.172794 0.224828
C7    C     C_1   0.510261 0.525880 0.248875 0.006896
C8    C     C_1   0.492512 0.474235 0.751031 0.067044
C9    C     C_R   0.535056 0.056695 0.572786 0.285728
C10   C     C_R   0.465299 0.943572 0.427283 0.304357
C11   C     C_R   0.445908 0.082323 0.431705 0.285517
C12   C     C_R   0.126413 0.501613 0.521471 -0.396288
C13   C     C_R   0.554002 0.917718 0.568380 0.329266
C14   C     C_R   0.060540 0.380225 0.531159 0.309582
C15   C     C_R   0.939083 0.620262 0.468755 0.307005
C16   C     C_R   0.938431 0.376632 0.497343 0.272348
C17   C     C_R   0.061352 0.623831 0.502307 0.273428
C18   C     C_R   0.261004 0.498965 0.509336 0.955256
C19   C     C_R   0.738904 0.501120 0.490488 0.977141
C20   C     C_R   0.501094 0.507604 0.338979 0.879612
C21   C     C_R   0.499295 0.492392 0.660944 0.874468
C22   C     C_R   0.419182 0.580356 0.943631 0.325682
C23   C     C_R   0.589181 0.421946 0.056257 0.327447
C24   C     C_R   0.451033 0.617233 0.025549 0.203502
H1    H     H_    0.696619 0.159082 0.746599 0.431752
H2    H     H_    0.816118 0.738952 0.257812 0.412329
H3    H     H_    0.739947 0.172121 0.368078 0.400550
H4    H     H_    0.012174 0.886769 0.619442 0.398079
H5    H     H_    0.362128 0.760270 0.250833 0.401564
H6    H     H_    0.176241 0.302069 0.343796 0.370729
H7    H     H_    0.821769 0.696088 0.656593 0.364245
H8    H     H_    0.599297 0.831015 0.094123 0.389016
H9    H     H_    0.418425 0.168192 0.904164 0.395753
H10   H     H_    0.160400 0.604694 0.780005 0.405612
H11   H     H_    0.848884 0.398058 0.219044 0.414795
H12   H     H_    0.203287 0.059161 0.608774 0.399988
N1    N     N_R   0.500000 0.857200 0.500000 -0.200037
N2    N     N_R   0.500000 0.142800 0.500000 -0.207915
O1    O     O_R   0.316770 0.614620 0.499990 -0.554363
O2    O     O_2   0.523349 0.991062 0.747773 -0.157220
O3    O     O_3   0.647517 0.207207 0.697518 -0.489090
O4    O     O_2   0.472234 0.007293 0.251669 -0.139392
O5    O     O_2   0.595498 0.823050 0.316829 -0.232661
O6    O     O_3   0.348633 0.793766 0.306459 -0.472089
O7    O     O_2   0.386686 0.237303 0.279445 -0.266888
O8    O     O_2   0.246078 0.052133 0.322127 -0.132334
O9    O     O_3   0.224404 0.257853 0.394805 -0.480482
O10   O     O_2   0.753648 0.947371 0.678016 -0.214209
O11   O     O_2   0.612581 0.762804 0.720836 -0.258857
O12   O     O_R   0.683230 0.385380 0.500010 -0.560430
O13   O     O_3   0.774619 0.741481 0.605505 -0.502473
O14   O     O_2   0.404842 0.879977 0.976754 -0.153741
O15   O     O_2   0.284886 0.766209 0.094952 -0.205648
O16   O     O_3   0.519706 0.824803 0.125200 -0.480635
O17   O     O_2   0.729093 0.249439 0.899201 -0.209098
O18   O     O_2   0.618189 0.124329 0.018112 -0.157551
O19   O     O_3   0.497031 0.178975 0.872055 -0.452191
O20   O     O_2   0.199277 0.717451 0.926932 -0.175170
O21   O     O_2   0.354287 0.773407 0.815797 -0.181453
O22   O     O_3   0.226822 0.552933 0.815153 -0.526310
O23   O     O_R   0.683230 0.614620 0.500010 -0.530369
O24   O     O_2   0.653404 0.224816 0.181507 -0.190157
O25   O     O_2   0.811251 0.289593 0.073496 -0.175913
O26   O     O_3   0.776619 0.446775 0.188625 -0.532710
O27   O     O_2   0.191845 0.309823 0.678179 -0.243302
O28   O     O_2   0.003029 0.178655 0.652933 -0.212111
O29   O     O_3   0.198792 0.139524 0.565548 -0.435796
O30   O     O_2   0.804982 0.846112 0.427823 -0.160415
O31   O     O_2   0.996055 0.824815 0.348677 -0.176691
O32   O     O_3   0.802991 0.679865 0.312234 -0.529791
O33   O     O_2   0.986822 0.140426 0.440606 -0.129697
O34   O     O_R   0.316770 0.385380 0.499990 -0.524842
O35   O     O_2   0.808523 0.147213 0.533653 -0.218695
O36   O     O_3   0.783935 0.257520 0.374707 -0.527185
O37   O     O_2   0.202178 0.746146 0.617333 -0.324098
O38   O     O_2   0.194979 0.851789 0.467775 -0.175518
O39   O     O_3   0.999854 0.873174 0.557949 -0.410398
O40   O     O_R   0.499980 0.614630 0.378020 -0.559422
O41   O     O_R   0.500020 0.385370 0.621980 -0.536641
O42   O     O_R   0.500020 0.614630 0.621980 -0.564191
O43   O     O_R   0.499980 0.385370 0.378020 -0.562037
O44   O     O_2   0.402549 0.176524 0.683044 -0.202951
S1    S     S_3+6 0.524614 0.106911 0.677748 0.176210
S2    S     S_3+6 0.885968 0.750112 0.389107 0.167970
S3    S     S_3+6 0.880086 0.224332 0.462771 0.143866
S4    S     S_3+6 0.119421 0.776139 0.537004 0.116484
S5    S     S_3+6 0.473548 0.892804 0.322628 0.175374
S6    S     S_3+6 0.326568 0.159487 0.355508 0.178445
S7    S     S_3+6 0.672863 0.840287 0.644732 0.150810
S8    S     S_3+6 0.410805 0.776033 0.054364 0.137523
S9    S     S_3+6 0.605253 0.230757 0.942182 0.147013
S10   S     S_3+6 0.297534 0.662131 0.875026 0.135497
S11   S     S_3+6 0.710031 0.339834 0.125333 0.135589
S12   S     S_3+6 0.113392 0.249747 0.610463 0.155195
Zn1   Zn    Zn3+2 0.500000 0.653120 0.500000 1.168840
Zn2   Zn    Zn3+2 0.500000 0.346880 0.500000 1.158781

loop_
_geom_bond_atom_site_label_1
_geom_bond_atom_site_label_2
_ccdc_geom_bond_type
O14   S8    D    
H12   O29   S    
C10   N1    A    
O26   S11   S    
O16   S8    S    
C4    C24   A    
O3    S1    S    
N1    Zn1   S    
C9    C13   A    
O17   S9    D    
O33   S3    D    
O18   S9    D    
C12   C17   A    
O29   S12   S    
H11   O26   S    
C1    C15   A    
H3    O36   S    
O32   S2    S    
O40   Zn1   S    
C13   N1    A    
O28   S12   D    
C20   O43   A    
H10   O22   S    
O2    S1    D    
H8    O16   S    
O8    S6    D    
O22   S10   S    
C18   O34   A    
C10   S5    S    
C1    C19   S    
O11   S7    D    
C17   S4    S    
O30   S2    D    
H6    O9    S    
O7    S6    D    
C4    C6    S    
H1    O3    S    
C4    C23   A    
C23   S11   S    
C11   N2    A    
C18   O1    A    
O37   S4    D    
C11   S6    S    
O1    Zn1   S    
C21   O41   A    
C8    C21   S    
C1    C16   A    
O42   Zn1   S    
H4    O39   S    
O35   S3    D    
C15   S2    S    
C9    S1    S    
O27   S12   D    
C12   C14   A    
O39   S4    S    
C7    C20   S    
O10   S7    D    
H5    O6    S    
C16   S3    S    
H2    O32   S    
C14   C16   A    
N2    Zn2   S    
O6    S5    S    
O38   S4    D    
O15   S8    D    
C15   C17   A    
H9    O19   S    
O19   S9    S    
C13   S7    S    
H7    O13   S    
C3    C5    S    
C24   S8    S    
C5    C8    T    
O23   Zn1   S    
C6    C7    T    
O25   S11   D    
C20   O40   A    
O5    S5    D    
O9    S6    S    
C2    C3    A    
O41   Zn2   S    
O31   S2    D    
O13   S7    S    
C19   O12   A    
O12   Zn2   S    
C19   O23   A    
C21   O42   A    
C9    N2    A    
C22   C24   A    
O21   S10   D    
O36   S3    S    
C2    S9    S    
C10   C11   A    
O34   Zn2   S    
O44   S1    D    
O43   Zn2   S    
O24   S11   D    
C12   C18   S    
C2    C23   A    
C22   S10   S    
C3    C22   A    
O4    S5    D    
O20   S10   D    
C14   S12   S    
