data_mof_unit_48091.cif
_audit_creation_date              2012-12-10T17:34:41-0500
_audit_creation_method            fapswitch 2.2
_symmetry_space_group_name_H-M    P1
_symmetry_Int_Tables_number       1
_space_group_crystal_system       triclinic
_cell_length_a                    15.48061
_cell_length_b                    15.470809
_cell_length_c                    19.504608
_cell_angle_alpha                 77.220913
_cell_angle_beta                  97.943394
_cell_angle_gamma                 111.59075
_cell_volume                      4227.64064008

loop_
_atom_site_label
_atom_site_type_symbol
_atom_type_description
_atom_site_fract_x
_atom_site_fract_y
_atom_site_fract_z
_atom_type_partial_charge
C1    C     C_R   0.747363 0.543550 0.528183 0.793887
C2    C     C_2   0.550423 0.487911 0.030272 0.604851
C3    C     C_2   0.511619 0.532662 0.974992 -0.235768
C4    C     C_R   0.253059 0.459709 0.471552 0.772698
C5    C     C_R   0.491315 0.492112 0.763024 -0.336508
C6    C     C_R   0.998644 0.687423 0.525116 -0.208373
C7    C     C_R   0.847200 0.565030 0.535611 0.011315
C8    C     C_R   0.094744 0.344422 0.456598 -0.183797
C9    C     C_R   0.999413 0.313731 0.462567 -0.148725
C10   C     C_R   0.959341 0.373004 0.479082 -0.182456
C11   C     C_R   0.013924 0.466921 0.486902 0.085449
C12   C     C_R   0.542432 0.497967 0.102001 -0.010273
C13   C     C_R   0.110232 0.500477 0.474643 0.082890
C14   C     C_R   0.976258 0.528933 0.505979 0.083602
C15   C     C_R   0.034039 0.624540 0.507443 0.158460
C16   C     C_R   0.454464 0.249059 0.528980 0.841903
C17   C     C_R   0.125585 0.657942 0.488389 -0.267249
C18   C     C_R   0.162914 0.597271 0.471578 -0.201183
C19   C     C_R   0.882604 0.500129 0.522174 -0.268864
C20   C     C_R   0.905359 0.658120 0.538066 -0.170457
C21   C     C_R   0.151404 0.436529 0.464670 -0.071051
C22   C     C_R   0.432934 0.014010 0.637721 -0.144612
C23   C     C_R   0.617202 0.502137 0.152078 -0.213131
C24   C     C_R   0.438690 0.147917 0.545013 -0.118505
C25   C     C_R   0.602438 0.908836 0.396006 -0.189582
C26   C     C_R   0.611003 0.003445 0.377576 -0.194687
C27   C     C_R   0.576050 0.043289 0.419588 -0.127001
C28   C     C_R   0.546455 0.751521 0.473055 0.771397
C29   C     C_R   0.532156 0.989009 0.481933 0.079452
C30   C     C_R   0.536724 0.897171 0.505702 0.026704
C31   C     C_R   0.488203 0.024395 0.523290 -0.102184
C32   C     C_R   0.468195 0.975975 0.593773 0.012703
C33   C     C_R   0.486601 0.892117 0.620649 0.445995
C34   C     C_R   0.610251 0.511112 0.220857 0.443711
C35   C     C_R   0.517384 0.852099 0.575781 -0.328622
C36   C     C_R   0.461874 0.105349 0.497290 0.422057
C37   C     C_R   0.422209 0.100955 0.614390 -0.286129
C38   C     C_R   0.564286 0.854200 0.459436 -0.048259
C39   C     C_R   0.488275 0.487899 0.688321 0.926669
C40   C     C_R   0.513575 0.512081 0.311975 0.858577
C41   C     C_R   0.525690 0.511395 0.239598 -0.083864
C42   C     C_R   0.450427 0.505026 0.189999 -0.252481
C43   C     C_R   0.458796 0.498912 0.121487 -0.201370
C44   C     C_3   0.544152 0.830471 0.728226 0.042936
C45   C     C_R   0.579508 0.506539 0.875265 -0.249563
C46   C     C_3   0.526998 0.806510 0.806636 -0.320495
C47   C     C_3   0.607275 0.783227 0.851489 -0.945086
C48   C     C_3   0.369139 0.116428 0.395904 0.127106
C49   C     C_3   0.343413 0.021778 0.371587 -0.382960
C50   C     C_3   0.246844 0.994057 0.333719 -0.944484
C51   C     C_3   0.332458 0.594561 0.729297 0.165456
C52   C     C_3   0.245836 0.592006 0.680409 -0.305583
C53   C     C_3   0.238959 0.690370 0.657722 -0.911012
C54   C     C_3   0.756762 0.590398 0.263038 0.078078
C55   C     C_3   0.831999 0.583157 0.321420 -0.291935
C56   C     C_R   0.571890 0.492502 0.806368 0.546885
C57   C     C_3   0.915443 0.675243 0.316848 -0.946924
C58   C     C_R   0.417888 0.505855 0.789728 0.276747
C59   C     C_R   0.424584 0.515065 0.860272 0.532580
C60   C     C_R   0.505620 0.516836 0.902757 -0.063631
F1    F     F_    0.351095 0.520333 0.887867 -0.662337
F2    F     F_    0.645500 0.484507 0.781053 -0.626280
F3    F     F_    0.593389 0.428713 0.021908 -0.653760
H1    H     H_    0.384939 0.503981 0.204574 0.163693
H2    H     H_    0.403828 0.133439 0.651333 0.170820
H3    H     H_    0.418768 0.979563 0.691788 0.195356
H4    H     H_    0.625340 0.878221 0.360285 0.163034
H5    H     H_    0.588408 0.117904 0.403802 0.201615
H6    H     H_    0.643462 0.045874 0.329670 0.158530
H7    H     H_    0.529569 0.786999 0.597661 0.170828
H8    H     H_    0.476839 0.578532 0.983682 0.149497
H9    H     H_    0.680393 0.497377 0.138006 0.178715
H10   H     H_    0.644193 0.511669 0.906295 0.243848
H11   H     H_    0.398886 0.492126 0.084332 0.172772
H12   H     H_    0.877329 0.709245 0.546728 0.137100
H13   H     H_    0.607916 0.894890 0.718946 0.151312
H14   H     H_    0.555604 0.769790 0.714260 0.132928
H15   H     H_    0.518601 0.867574 0.822482 0.231712
H16   H     H_    0.461871 0.744592 0.816598 0.224045
H17   H     H_    0.616285 0.721807 0.836782 0.259996
H18   H     H_    0.592087 0.764998 0.907952 0.267855
H19   H     H_    0.672951 0.845083 0.844102 0.270931
H20   H     H_    0.365741 0.171322 0.349089 0.184625
H21   H     H_    0.316619 0.112352 0.431514 0.129423
H22   H     H_    0.395424 0.027338 0.335334 0.244995
H23   H     H_    0.168779 0.731673 0.486411 0.156944
H24   H     H_    0.343909 0.965149 0.417792 0.219741
H25   H     H_    0.193501 0.986586 0.369452 0.260987
H26   H     H_    0.230222 0.925265 0.317042 0.270338
H27   H     H_    0.244538 0.048360 0.286222 0.272216
H28   H     H_    0.394972 0.644392 0.701236 0.155273
H29   H     H_    0.327524 0.621383 0.776464 0.176505
H30   H     H_    0.248201 0.564582 0.632872 0.250430
H31   H     H_    0.182890 0.543626 0.708318 0.236751
H32   H     H_    0.170844 0.685005 0.628816 0.264786
H33   H     H_    0.295337 0.736791 0.622587 0.282252
H34   H     H_    0.042220 0.760432 0.525901 0.140117
H35   H     H_    0.244184 0.722654 0.704351 0.274556
H36   H     H_    0.735574 0.650792 0.266402 0.154296
H37   H     H_    0.786554 0.603832 0.211270 0.129083
H38   H     H_    0.802513 0.566205 0.373534 0.244163
H39   H     H_    0.855657 0.524938 0.317207 0.223720
H40   H     H_    0.946121 0.693838 0.265020 0.263332
H41   H     H_    0.969337 0.666686 0.358940 0.275040
H42   H     H_    0.894024 0.733619 0.323993 0.267278
H43   H     H_    0.833816 0.429803 0.520358 0.135248
H44   H     H_    0.124639 0.294626 0.448204 0.159456
H45   H     H_    0.885338 0.343290 0.484361 0.134601
H46   H     H_    0.956524 0.242231 0.456656 0.146873
H47   H     H_    0.233155 0.628071 0.454597 0.172345
O1    O     O_3   0.500000 0.500000 0.500000 -0.491569
O2    O     O_R   0.533750 0.444440 0.667550 -0.585338
O3    O     O_R   0.573150 0.573190 0.344350 -0.640270
O4    O     O_R   0.446010 0.535260 0.643730 -0.647758
O5    O     O_R   0.447090 0.447110 0.344370 -0.637503
O6    O     O_3   0.465166 0.845259 0.689067 -0.666430
O7    O     O_3   0.461483 0.145166 0.426365 -0.671009
O8    O     O_3   0.336664 0.502432 0.748459 -0.589140
O9    O     O_3   0.679981 0.504876 0.272311 -0.642649
O10   O     O_R   0.412670 0.287020 0.475980 -0.636917
O11   O     O_R   0.592640 0.718300 0.442410 -0.650255
O12   O     O_R   0.691640 0.476740 0.569450 -0.611661
O13   O     O_R   0.303050 0.517940 0.512160 -0.647296
O14   O     O_R   0.716100 0.590510 0.475920 -0.652263
O15   O     O_R   0.289200 0.414810 0.442470 -0.648569
O16   O     O_R   0.514260 0.299330 0.569480 -0.637051
O17   O     O_R   0.480430 0.695350 0.512130 -0.649620
Zn1   Zn    Zn3+2 0.413740 0.413730 0.441720 0.975508
Zn2   Zn    Zn3+2 0.558890 0.431320 0.575310 1.029311
Zn3   Zn    Zn3+2 0.433530 0.561080 0.541290 0.949506
Zn4   Zn    Zn3+2 0.593840 0.593870 0.441680 0.968083

loop_
_geom_bond_atom_site_label_1
_geom_bond_atom_site_label_2
_ccdc_geom_bond_type
C57   H42   S    
C45   C60   A    
C53   H32   S    
C41   C42   A    
C49   H24   S    
C5    C56   A    
C10   H45   S    
C25   H4    S    
C2    C12   S    
C52   C53   S    
C55   H39   S    
C26   C27   A    
C24   C36   A    
C22   C32   A    
C30   C35   A    
C44   H14   S    
C12   C43   A    
C16   O10   A    
C46   H16   S    
C25   C38   A    
C11   C14   A    
C40   O5    A    
C27   C29   A    
C58   O8    S    
C51   O8    S    
C30   C38   A    
C45   H10   S    
C47   H19   S    
C44   H13   S    
C1    O12   A    
C22   H3    S    
C27   H5    S    
O1    Zn3   S    
C51   H28   S    
C6    C15   A    
C46   C47   S    
C50   H27   S    
C31   C32   A    
C35   H7    S    
C8    C9    A    
C37   H2    S    
O15   Zn1   S    
C52   H31   S    
O2    Zn2   S    
C9    C10   A    
O12   Zn2   S    
C28   O17   A    
C50   H25   S    
C3    C60   S    
C39   O4    A    
C43   H11   S    
C59   C60   A    
C16   C24   S    
C54   O9    S    
C53   H33   S    
O4    Zn3   S    
C54   H37   S    
C34   C41   A    
C47   H17   S    
O11   Zn4   S    
C23   H9    S    
C44   C46   S    
C24   C37   A    
C31   C36   A    
C9    H46   S    
C57   H40   S    
C59   F1    S    
C17   H23   S    
C6    H34   S    
C49   H22   S    
C45   C56   A    
C4    O15   A    
C46   H15   S    
C28   O11   A    
O16   Zn2   S    
C58   C59   A    
C22   C37   A    
O5    Zn1   S    
C48   H21   S    
C4    O13   A    
C3    H8    S    
C29   C30   A    
C51   H29   S    
C50   H26   S    
C40   O3    A    
C12   C23   A    
C28   C38   S    
C23   C34   A    
C17   C18   A    
C13   C21   A    
C52   H30   S    
C20   H12   S    
C36   O7    S    
C13   C18   A    
O1    Zn4   S    
C39   O2    A    
C7    C20   A    
C7    C19   A    
C5    C39   S    
O13   Zn3   S    
O14   Zn4   S    
C49   C50   S    
C56   F2    S    
C54   H36   S    
C42   C43   A    
C8    H44   S    
C42   H1    S    
C2    F3    S    
O1    Zn2   S    
C34   O9    S    
C15   C17   A    
C57   H41   S    
C54   C55   S    
C40   C41   S    
C33   O6    S    
O3    Zn4   S    
C1    C7    S    
C14   C19   A    
C18   H47   S    
C8    C21   A    
O10   Zn1   S    
C48   O7    S    
C53   H35   S    
C6    C20   A    
C55   H38   S    
C48   H20   S    
C32   C33   A    
C55   C57   S    
C2    C3    D    
C25   C26   A    
O17   Zn3   S    
C51   C52   S    
C29   C31   A    
C4    C21   S    
C11   C13   A    
C48   C49   S    
C33   C35   A    
C47   H18   S    
C1    O14   A    
C10   C11   A    
C19   H43   S    
C44   O6    S    
C5    C58   A    
O1    Zn1   S    
C26   H6    S    
C14   C15   A    
C16   O16   A    
