data_mof_unit_44555.cif
_audit_creation_date              2012-12-11T17:47:25-0500
_audit_creation_method            fapswitch 2.2
_symmetry_space_group_name_H-M    P1
_symmetry_Int_Tables_number       1
_space_group_crystal_system       triclinic
_cell_length_a                    7.221263
_cell_length_b                    23.076912
_cell_length_c                    25.250738
_cell_angle_alpha                 90.0
_cell_angle_beta                  90.000023
_cell_angle_gamma                 90.000011
_cell_volume                      4207.8953658

loop_
_atom_site_label
_atom_site_type_symbol
_atom_type_description
_atom_site_fract_x
_atom_site_fract_y
_atom_site_fract_z
_atom_type_partial_charge
O1    O     O_R   0.690340 0.802800 0.195640 -0.537917
O2    O     O_R   0.309660 0.197200 0.804360 -0.537917
O3    O     O_R   0.309660 0.197200 0.695640 -0.537917
O4    O     O_R   0.690340 0.802800 0.304360 -0.537917
O5    O     O_R   0.190340 0.697200 0.304360 -0.537917
O6    O     O_R   0.809660 0.302800 0.695640 -0.537917
O7    O     O_R   0.809660 0.302800 0.804360 -0.537917
O8    O     O_R   0.190340 0.697200 0.195640 -0.537917
O9    O     O_R   0.360590 0.809740 0.303990 -0.541175
O10   O     O_R   0.639410 0.190260 0.696010 -0.541176
O11   O     O_R   0.639410 0.190260 0.803990 -0.541176
O12   O     O_R   0.360590 0.809740 0.196010 -0.541176
O13   O     O_R   0.860590 0.690260 0.196010 -0.541176
O14   O     O_R   0.139410 0.309740 0.803990 -0.541175
O15   O     O_R   0.139410 0.309740 0.696010 -0.541175
O16   O     O_R   0.860590 0.690260 0.303990 -0.541176
C1    C     C_R   0.529151 0.823562 0.321681 0.700501
C2    C     C_R   0.470849 0.176438 0.678319 0.700500
C3    C     C_R   0.470849 0.176438 0.821681 0.700500
C4    C     C_R   0.529151 0.823562 0.178319 0.700500
C5    C     C_R   0.029151 0.676438 0.178319 0.700501
C6    C     C_R   0.970849 0.323562 0.821681 0.700501
C7    C     C_R   0.970849 0.323562 0.678319 0.700501
C8    C     C_R   0.029151 0.676438 0.321681 0.700500
O17   O     O_3   0.523810 0.713070 0.250000 -0.376167
O18   O     O_3   0.476190 0.286930 0.750000 -0.376167
O19   O     O_3   0.023810 0.786930 0.250000 -0.376167
O20   O     O_3   0.976190 0.213070 0.750000 -0.376167
V1    V     V_3+5 0.248970 0.756850 0.250000 1.391273
V2    V     V_3+5 0.751030 0.243150 0.750000 1.391273
V3    V     V_3+5 0.748970 0.743150 0.250000 1.391273
V4    V     V_3+5 0.251030 0.256850 0.750000 1.391273
C9    C     C_R   0.038871 0.633337 0.365624 -0.063858
C10   C     C_R   0.961129 0.366663 0.634376 -0.063858
C11   C     C_R   0.961129 0.366663 0.865624 -0.063857
C12   C     C_R   0.038871 0.633337 0.134376 -0.063858
C13   C     C_R   0.538871 0.866663 0.134376 -0.063857
C14   C     C_R   0.461129 0.133337 0.865624 -0.063857
C15   C     C_R   0.461129 0.133337 0.634376 -0.063857
C16   C     C_R   0.538871 0.866663 0.365624 -0.063858
C17   C     C_R   0.883785 0.599939 0.379712 -0.228615
C18   C     C_R   0.116215 0.400061 0.620288 -0.228614
C19   C     C_R   0.116215 0.400061 0.879711 -0.228615
C20   C     C_R   0.883784 0.599939 0.120288 -0.228614
C21   C     C_R   0.383784 0.900061 0.120288 -0.228614
C22   C     C_R   0.616215 0.099939 0.879712 -0.228615
C23   C     C_R   0.616215 0.099939 0.620288 -0.228615
C24   C     C_R   0.383784 0.900061 0.379712 -0.228614
C25   C     C_R   0.893732 0.559755 0.421150 -0.193065
C26   C     C_R   0.106268 0.440245 0.578850 -0.193063
C27   C     C_R   0.106267 0.440245 0.921150 -0.193065
C28   C     C_R   0.893731 0.559756 0.078849 -0.193064
C29   C     C_R   0.393732 0.940245 0.078849 -0.193065
C30   C     C_R   0.606268 0.059755 0.921151 -0.193066
C31   C     C_R   0.606267 0.059755 0.578850 -0.193065
C32   C     C_R   0.393731 0.940245 0.421151 -0.193064
C33   C     C_R   0.058819 0.552412 0.450440 0.410325
C34   C     C_R   0.941182 0.447588 0.549560 0.410322
C35   C     C_R   0.941181 0.447588 0.950440 0.410325
C36   C     C_R   0.058817 0.552414 0.049558 0.410322
C37   C     C_R   0.558818 0.947588 0.049559 0.410325
C38   C     C_R   0.441181 0.052412 0.950440 0.410327
C39   C     C_R   0.441181 0.052412 0.549560 0.410325
C40   C     C_R   0.558818 0.947587 0.450441 0.410322
C41   C     C_R   0.215359 0.585845 0.436409 0.108160
C42   C     C_R   0.784642 0.414156 0.563591 0.108162
C43   C     C_R   0.784642 0.414155 0.936409 0.108161
C44   C     C_R   0.215356 0.585846 0.063590 0.108158
C45   C     C_R   0.715358 0.914155 0.063591 0.108160
C46   C     C_R   0.284641 0.085845 0.936409 0.108160
C47   C     C_R   0.284641 0.085845 0.563591 0.108160
C48   C     C_R   0.715357 0.914155 0.436410 0.108160
C49   C     C_R   0.204163 0.625567 0.394217 -0.227667
C50   C     C_R   0.795837 0.374433 0.605783 -0.227665
C51   C     C_R   0.795837 0.374433 0.894217 -0.227668
C52   C     C_R   0.204162 0.625568 0.105783 -0.227666
C53   C     C_R   0.704163 0.874432 0.105783 -0.227668
C54   C     C_R   0.295837 0.125567 0.894217 -0.227669
C55   C     C_R   0.295837 0.125567 0.605783 -0.227667
C56   C     C_R   0.704163 0.874432 0.394217 -0.227665
N1    N     N_2   0.074297 0.511591 0.493006 -0.312253
N2    N     N_2   0.925704 0.488409 0.506995 -0.312254
N3    N     N_2   0.925703 0.488408 0.993006 -0.312253
N4    N     N_2   0.074294 0.511594 0.006992 -0.312254
N5    N     N_2   0.574296 0.988408 0.006994 -0.312253
N6    N     N_2   0.425703 0.011591 0.993006 -0.312253
N7    N     N_2   0.425703 0.011591 0.506994 -0.312253
N8    N     N_2   0.574295 0.988407 0.493007 -0.312254
H1    H     H_    0.245485 0.395646 0.641652 0.141682
H2    H     H_    0.754515 0.604354 0.358348 0.141682
H3    H     H_    0.754515 0.604353 0.141652 0.141682
H4    H     H_    0.245485 0.395647 0.858348 0.141682
H5    H     H_    0.745485 0.104354 0.858348 0.141682
H6    H     H_    0.254514 0.895646 0.141652 0.141682
H7    H     H_    0.254515 0.895646 0.358348 0.141682
H8    H     H_    0.745485 0.104353 0.641652 0.141682
H9    H     H_    0.227834 0.465918 0.570140 0.142571
H10   H     H_    0.772166 0.534082 0.429860 0.142573
H11   H     H_    0.772164 0.534083 0.070139 0.142571
H12   H     H_    0.227834 0.465918 0.929860 0.142573
H13   H     H_    0.727834 0.034082 0.929860 0.142572
H14   H     H_    0.272165 0.965917 0.070139 0.142570
H15   H     H_    0.272165 0.965917 0.429861 0.142571
H16   H     H_    0.727834 0.034082 0.570140 0.142573
H17   H     H_    0.325133 0.651061 0.384150 0.137013
H18   H     H_    0.674867 0.348939 0.615850 0.137013
H19   H     H_    0.674868 0.348939 0.884150 0.137013
H20   H     H_    0.325132 0.651062 0.115850 0.137014
H21   H     H_    0.825133 0.848939 0.115850 0.137013
H22   H     H_    0.174867 0.151061 0.884150 0.137013
H23   H     H_    0.174867 0.151061 0.615850 0.137013
H24   H     H_    0.825133 0.848939 0.384150 0.137014
C57   C     C_3   0.397106 0.579034 0.465456 -0.364479
C58   C     C_3   0.389799 0.606023 0.520610 -0.726426
H25   H     H_    0.355208 0.652822 0.517707 0.226153
H26   H     H_    0.285287 0.584064 0.545798 0.238362
H27   H     H_    0.527250 0.601560 0.539910 0.217880
H28   H     H_    0.433075 0.532378 0.468347 0.188483
H29   H     H_    0.510707 0.600457 0.443175 0.176772
C59   C     C_3   0.602895 0.420966 0.534545 -0.364484
C60   C     C_3   0.610199 0.393976 0.479391 -0.726437
H30   H     H_    0.714726 0.415929 0.454205 0.238366
H31   H     H_    0.644766 0.347176 0.482296 0.226154
H32   H     H_    0.472755 0.398445 0.460089 0.217882
H33   H     H_    0.489292 0.399545 0.556825 0.176774
H34   H     H_    0.566928 0.467623 0.531653 0.188486
C61   C     C_3   0.602895 0.420965 0.965456 -0.364478
C62   C     C_3   0.610203 0.393976 0.020610 -0.726425
H35   H     H_    0.644794 0.347177 0.017706 0.226152
H36   H     H_    0.714715 0.415935 0.045798 0.238362
H37   H     H_    0.472752 0.398439 0.039910 0.217880
H38   H     H_    0.566925 0.467622 0.968347 0.188480
H39   H     H_    0.489293 0.399543 0.943175 0.176772
C63   C     C_3   0.397101 0.579038 0.034542 -0.364475
C64   C     C_3   0.389790 0.606032 0.979389 -0.726424
H40   H     H_    0.285271 0.584078 0.954201 0.238361
H41   H     H_    0.355205 0.652832 0.982297 0.226151
H42   H     H_    0.527237 0.601570 0.960087 0.217880
H43   H     H_    0.510706 0.600457 0.056823 0.176771
H44   H     H_    0.433068 0.532381 0.031646 0.188483
C65   C     C_3   0.897105 0.920965 0.034544 -0.364479
C66   C     C_3   0.889797 0.893976 0.979390 -0.726425
H45   H     H_    0.855206 0.847177 0.982293 0.226152
H46   H     H_    0.785285 0.915935 0.954202 0.238362
H47   H     H_    0.027248 0.898439 0.960090 0.217880
H48   H     H_    0.933074 0.967622 0.031653 0.188484
H49   H     H_    0.010707 0.899543 0.056824 0.176772
C67   C     C_3   0.102894 0.079035 0.965456 -0.364479
C68   C     C_3   0.110203 0.106022 0.020611 -0.726429
H50   H     H_    0.214705 0.084060 0.045799 0.238361
H51   H     H_    0.144808 0.152820 0.017709 0.226154
H52   H     H_    0.972749 0.101563 0.039909 0.217880
H53   H     H_    0.989294 0.100459 0.943176 0.176773
H54   H     H_    0.066922 0.032378 0.968346 0.188483
C69   C     C_3   0.102894 0.079034 0.534544 -0.364479
C70   C     C_3   0.110202 0.106023 0.479390 -0.726425
H55   H     H_    0.144793 0.152823 0.482293 0.226153
H56   H     H_    0.214714 0.084065 0.454202 0.238362
H57   H     H_    0.972751 0.101560 0.460090 0.217880
H58   H     H_    0.066925 0.032378 0.531653 0.188482
H59   H     H_    0.989293 0.100457 0.556824 0.176772
C71   C     C_3   0.897103 0.920964 0.465457 -0.364478
C72   C     C_3   0.889795 0.893972 0.520610 -0.726428
H60   H     H_    0.785273 0.915926 0.545797 0.238363
H61   H     H_    0.855218 0.847172 0.517703 0.226152
H62   H     H_    0.027241 0.898438 0.539912 0.217881
H63   H     H_    0.010707 0.899544 0.443176 0.176772
H64   H     H_    0.933070 0.967621 0.468351 0.188484

loop_
_geom_bond_atom_site_label_1
_geom_bond_atom_site_label_2
_ccdc_geom_bond_type
O17   V3    S    
C64   H42   S    
N7    N8    D    
C51   H19   S    
C24   H7    S    
O12   V1    S    
O19   V1    S    
C30   H13   S    
C45   C53   A    
C72   H60   S    
C10   C18   A    
C24   C32   A    
C62   H35   S    
C47   C55   A    
C58   H25   S    
C43   C51   A    
C25   C33   A    
O15   V4    S    
C5    C12   S    
N5    N6    D    
C69   H59   S    
O16   V3    S    
O18   V4    S    
C6    C11   S    
C38   N6    S    
O11   C3    A    
O12   C4    A    
O8    V1    S    
C23   C31   A    
C70   H55   S    
C72   H61   S    
C35   N3    S    
C57   C58   S    
C34   N2    S    
C63   H44   S    
C59   H34   S    
C46   C54   A    
C45   C65   S    
C42   C50   A    
O1    V3    S    
C41   C49   A    
C38   C46   A    
O3    C2    A    
O2    V4    S    
C16   C24   A    
C61   H38   S    
C60   H32   S    
C12   C52   A    
C35   C43   A    
C25   H10   S    
C57   H29   S    
C29   C37   A    
C70   H56   S    
C34   C42   A    
O11   V2    S    
O1    C4    A    
C31   C39   A    
C52   H20   S    
C23   H8    S    
C16   C56   A    
C11   C19   A    
O9    V1    S    
O4    V3    S    
C20   C28   A    
O15   C7    A    
C17   H2    S    
O2    C3    A    
C21   C29   A    
O16   C8    A    
O7    V2    S    
C42   C59   S    
C66   H47   S    
C56   H24   S    
C67   H54   S    
C21   H6    S    
C17   C25   A    
C8    C9    S    
N1    N2    D    
O5    V1    S    
C14   C22   A    
C26   C34   A    
C64   H40   S    
C72   H62   S    
C67   C68   S    
C22   H5    S    
C68   H52   S    
O14   V4    S    
C63   H43   S    
C59   H33   S    
C14   C54   A    
C13   C53   A    
C31   H16   S    
C71   H63   S    
C1    C16   S    
C15   C55   A    
C2    C15   S    
C3    C14   S    
C43   C61   S    
C50   H18   S    
O10   V2    S    
C49   H17   S    
N3    N4    D    
C29   H14   S    
C7    C10   S    
C47   C69   S    
C22   C30   A    
C32   C40   A    
O8    C5    A    
O13   C5    A    
C54   H22   S    
C53   H21   S    
C60   H30   S    
C20   H3    S    
C37   N5    S    
C65   H48   S    
C10   C50   A    
C71   H64   S    
O4    C1    A    
C9    C49   A    
O6    V2    S    
C39   C47   A    
C68   H51   S    
C11   C51   A    
C27   C35   A    
C67   H53   S    
C13   C21   A    
C61   C62   S    
C62   H37   S    
C59   C60   S    
C15   C23   A    
C71   C72   S    
O9    C1    A    
C27   H12   S    
C64   H41   S    
C26   H9    S    
C18   C26   A    
C39   N7    S    
C69   H58   S    
C41   C57   S    
O13   V3    S    
C70   H57   S    
C61   H39   S    
C32   H15   S    
C33   C41   A    
C62   H36   S    
C58   H26   S    
C63   C64   S    
C44   C52   A    
O7    C6    A    
C30   C38   A    
C28   H11   S    
C19   H4    S    
C55   H23   S    
C18   H1    S    
C37   C45   A    
O14   C6    A    
C44   C63   S    
C9    C17   A    
C48   C56   A    
C65   C66   S    
C4    C13   S    
C36   N4    S    
C19   C27   A    
O5    C8    A    
O10   C2    A    
O6    C7    A    
O20   V2    S    
C66   H46   S    
C40   C48   A    
O3    V4    S    
C33   N1    S    
C60   H31   S    
C58   H27   S    
C12   C20   A    
C65   H49   S    
C57   H28   S    
C46   C67   S    
C36   C44   A    
C28   C36   A    
C69   C70   S    
C48   C71   S    
C66   H45   S    
C68   H50   S    
C40   N8    S    
