data_mof_unit_52987.cif
_audit_creation_date              2012-12-10T18:57:43-0500
_audit_creation_method            fapswitch 2.2
_symmetry_space_group_name_H-M    P1
_symmetry_Int_Tables_number       1
_space_group_crystal_system       triclinic
_cell_length_a                    10.939349
_cell_length_b                    10.861619
_cell_length_c                    9.531773
_cell_angle_alpha                 90.677832
_cell_angle_beta                  89.692856
_cell_angle_gamma                 90.126788
_cell_volume                      1132.45798359

loop_
_atom_site_label
_atom_site_type_symbol
_atom_type_description
_atom_site_fract_x
_atom_site_fract_y
_atom_site_fract_z
_atom_type_partial_charge
C1    C     C_R   0.498833 0.262146 0.498529 0.835423
C2    C     C_R   0.489685 0.128531 0.494706 -0.127592
C3    C     C_R   0.470826 0.059342 0.368276 -0.001334
C4    C     C_R   0.467194 0.930886 0.373651 -0.215925
C5    C     C_R   0.485656 0.869671 0.500541 -0.100507
C6    C     C_R   0.488166 0.938668 0.624333 0.014919
C7    C     C_3   0.564867 0.933677 0.754694 0.174877
C8    C     C_3   0.565746 0.075157 0.752394 -0.242089
C9    C     C_R   0.572557 0.580493 0.074414 0.239664
C10   C     C_R   0.420595 0.428661 0.074003 0.022900
C11   C     C_R   0.420874 0.428289 0.925033 -0.045217
C12   C     C_R   0.265416 0.494825 0.500206 0.856862
C13   C     C_R   0.572600 0.580497 0.926852 0.266360
C14   C     C_3   0.708810 0.587562 0.920963 -0.456350
C15   C     C_3   0.708549 0.587949 0.079876 -0.478532
C16   C     C_R   0.497672 0.737364 0.500643 0.816415
C17   C     C_R   0.734479 0.500415 0.499472 0.830078
C18   C     C_2   0.934023 0.443278 0.404492 -0.205003
C19   C     C_2   0.866797 0.511925 0.496058 0.154307
C20   C     C_2   0.064884 0.472268 0.387702 0.457534
C21   C     C_2   0.134830 0.472458 0.502874 -0.260124
C22   C     C_R   0.490096 0.064927 0.621474 -0.045590
Cu1   Cu    Cu3+1 0.499990 0.499980 0.640670 0.982019
Cu2   Cu    Cu3+1 0.500010 0.500020 0.359330 1.015014
H1    H     H_    0.357920 0.369326 0.129657 0.166133
H2    H     H_    0.358758 0.368192 0.868676 0.136198
H3    H     H_    0.751465 0.503374 0.875087 0.237256
H4    H     H_    0.741808 0.675535 0.876124 0.238678
H5    H     H_    0.751132 0.504013 0.123637 0.235915
H6    H     H_    0.740699 0.676359 0.126756 0.206775
H7    H     H_    0.094571 0.450530 0.604212 0.144675
H8    H     H_    0.457277 0.878912 0.276474 0.174698
H9    H     H_    0.514112 0.895396 0.845679 0.143577
H10   H     H_    0.512336 0.115933 0.840969 0.132233
N1    N     N_R   0.500780 0.500930 0.147930 -0.188357
N2    N     N_R   0.500780 0.500890 0.852020 -0.187581
O1    O     O_R   0.500000 0.319640 0.618810 -0.588045
O2    O     O_R   0.500010 0.319680 0.381230 -0.553426
O3    O     O_R   0.321940 0.499980 0.618760 -0.601194
O4    O     O_R   0.321950 0.500020 0.381180 -0.528052
O5    O     O_R   0.499990 0.680320 0.618770 -0.569772
O6    O     O_R   0.500000 0.680360 0.381190 -0.593601
O7    O     O_R   0.678050 0.499980 0.618820 -0.585059
O8    O     O_R   0.678060 0.500020 0.381240 -0.580577
C23   C     C_2   0.885054 0.334037 0.325818 0.822922
O9    O     O_2   0.936511 0.297866 0.218866 -0.557503
O10   O     O_R   0.784755 0.268366 0.377574 -0.724662
H11   H     H_    0.763392 0.194190 0.316952 0.374822
C24   C     C_2   0.688613 0.136980 0.732906 0.998464
O11   O     O_2   0.753960 0.111314 0.632249 -0.571728
O12   O     O_R   0.725785 0.226438 0.830308 -0.731993
H12   H     H_    0.808331 0.263388 0.806114 0.331744
O13   O     O_3   0.922111 0.604719 0.574302 -0.729308
H13   H     H_    0.858463 0.650089 0.628260 0.338067
O14   O     O_3   0.113768 0.498790 0.257349 -0.691531
H14   H     H_    0.045545 0.505842 0.189879 0.341022
C25   C     C_2   0.461134 0.113361 0.227133 0.837537
O15   O     O_2   0.549813 0.163110 0.173310 -0.571932
O16   O     O_R   0.352499 0.099637 0.152062 -0.752820
H15   H     H_    0.357600 0.136944 0.055202 0.315137
O17   O     O_3   0.680689 0.878599 0.736339 -0.711825
H16   H     H_    0.705014 0.882060 0.636021 0.355002

loop_
_geom_bond_atom_site_label_1
_geom_bond_atom_site_label_2
_ccdc_geom_bond_type
C12   O4    A    
C18   C20   S    
C8    C22   S    
O14   H14   S    
C17   O7    A    
C2    C22   A    
C6    C7    S    
C15   H5    S    
Cu1   O1    S    
C14   H3    S    
Cu2   O6    S    
Cu2   O2    S    
O10   H11   S    
Cu1   O5    S    
C1    O1    A    
Cu1   Cu2   S    
C16   O5    A    
C19   O13   S    
C12   O3    A    
C2    C3    A    
C9    C15   S    
C17   O8    A    
O16   H15   S    
C8    H10   S    
C13   C14   S    
C7    H9    S    
C21   H7    S    
C4    H8    S    
C1    O2    A    
C15   H6    S    
C20   O14   S    
Cu1   O3    S    
C5    C6    A    
C3    C25   S    
C10   H1    S    
C8    C24   S    
C11   N2    A    
C17   C19   S    
C1    C2    S    
C25   O15   D    
C23   O10   S    
O17   H16   S    
Cu2   O8    S    
C10   N1    A    
C25   O16   S    
Cu2   N1    S    
C10   C11   A    
O12   H12   S    
C6    C22   A    
C18   C23   S    
C16   O6    A    
C7    C8    S    
Cu1   O7    S    
C20   C21   D    
Cu2   O4    S    
C13   N2    A    
C9    N1    A    
Cu1   N2    S    
C24   O11   D    
C9    C13   A    
C14   C15   S    
C18   C19   D    
C5    C16   S    
C11   H2    S    
C14   H4    S    
C23   O9    D    
C12   C21   S    
C7    O17   S    
C3    C4    A    
O13   H13   S    
C4    C5    A    
C24   O12   S    
