data_mof_unit_32792.cif
_audit_creation_date              2012-12-11T14:53:03-0500
_audit_creation_method            fapswitch 2.2
_symmetry_space_group_name_H-M    P1
_symmetry_Int_Tables_number       1
_space_group_crystal_system       triclinic
_cell_length_a                    29.013844
_cell_length_b                    17.370592
_cell_length_c                    18.924029
_cell_angle_alpha                 90.170086
_cell_angle_beta                  138.359155
_cell_angle_gamma                 89.771496
_cell_volume                      6337.21320105

loop_
_atom_site_label
_atom_site_type_symbol
_atom_type_description
_atom_site_fract_x
_atom_site_fract_y
_atom_site_fract_z
_atom_type_partial_charge
C1    C     C_R   0.685039 0.896507 0.795321 -0.198683
C2    C     C_R   0.657939 0.819937 0.566021 0.078686
C3    C     C_R   0.103893 0.305789 0.705769 0.495486
C4    C     C_R   0.672307 0.820643 0.798768 -0.064761
C5    C     C_R   0.670030 0.175818 0.806364 0.009293
C6    C     C_R   0.173560 0.320275 0.798029 0.013337
C7    C     C_R   0.170073 0.675866 0.805624 0.012597
C8    C     C_R   0.393923 0.128890 0.565644 0.052717
C9    C     C_R   0.344692 0.818335 0.447091 0.076882
C10   C     C_R   0.889036 0.636670 0.556768 0.064033
C11   C     C_R   0.883697 0.355984 0.546191 0.085603
C12   C     C_R   0.666381 0.102630 0.582384 -0.133964
C13   C     C_R   0.106008 0.633063 0.440361 0.107920
C14   C     C_R   0.667322 0.898424 0.584419 -0.075790
C15   C     C_R   0.140122 0.576217 0.518345 -0.080768
C16   C     C_R   0.167664 0.397682 0.585792 -0.066524
C17   C     C_R   0.313953 0.895027 0.198438 -0.195304
C18   C     C_R   0.318302 0.097169 0.191166 -0.136415
C19   C     C_R   0.813293 0.393845 0.200090 -0.189190
C20   C     C_R   0.818670 0.595273 0.190692 -0.113476
C21   C     C_R   0.591217 0.804428 0.512155 -0.165727
C22   C     C_R   0.587597 0.195726 0.504188 -0.137120
C23   C     C_R   0.091018 0.304397 0.511294 -0.159765
C24   C     C_R   0.157757 0.319643 0.565061 0.097183
C25   C     C_R   0.057518 0.666815 0.429201 -0.154424
C26   C     C_3   0.122352 0.867619 0.990432 -0.894920
C27   C     C_3   0.130986 0.125797 0.983699 -0.934975
C28   C     C_3   0.620768 0.363627 0.992326 -0.892872
C29   C     C_3   0.626729 0.617430 0.964455 -0.941991
C30   C     C_3   0.285837 0.677397 0.233437 -0.886632
C31   C     C_3   0.284758 0.399390 0.177783 -0.933693
C32   C     C_3   0.788428 0.174101 0.238547 -0.938318
C33   C     C_3   0.774445 0.886985 0.177033 -0.918503
C34   C     C_3   0.835467 0.283060 0.905160 -0.721605
C35   C     C_R   0.329748 0.823368 0.191767 0.057684
C36   C     C_3   0.875428 0.794939 0.958827 -0.668096
C37   C     C_3   0.330993 0.776091 0.892809 -0.727759
C38   C     C_3   0.353421 0.235151 0.913047 -0.599472
C39   C     C_3   0.440490 0.290481 0.398503 -0.910450
C40   C     C_3   0.471350 0.704427 0.322168 -0.873805
C41   C     C_3   0.951655 0.783971 0.417494 -0.847210
C42   C     C_3   0.970896 0.203487 0.323508 -0.882791
C43   C     C_R   0.335552 0.166432 0.181976 0.016485
C44   C     C_R   0.828708 0.321874 0.193758 0.054175
C45   C     C_R   0.835267 0.664217 0.180274 0.033892
C46   C     C_3   0.662337 0.259412 0.905407 -0.493192
C47   C     C_3   0.676588 0.706488 0.883133 -0.473190
C48   C     C_3   0.163232 0.760790 0.904514 -0.490809
C49   C     C_R   0.683888 0.101170 0.799755 -0.245011
C50   C     C_3   0.170387 0.226855 0.893692 -0.490065
C51   C     C_3   0.206916 0.810593 0.004273 -0.045474
C52   C     C_3   0.214897 0.180040 0.995341 -0.014546
C53   C     C_3   0.705656 0.308757 0.005779 -0.045425
C54   C     C_3   0.717401 0.669320 0.989684 -0.017172
C55   C     C_3   0.763522 0.273671 0.932051 0.503356
C56   C     C_3   0.784627 0.745991 0.938601 0.476989
C57   C     C_3   0.264236 0.772683 0.930084 0.500798
C58   C     C_3   0.273700 0.227494 0.925184 0.535481
C59   C     C_3   0.251211 0.655451 0.997717 -0.600276
C60   C     C_R   0.185357 0.396437 0.794104 -0.225839
C61   C     C_3   0.250980 0.337632 0.989761 -0.519663
C62   C     C_3   0.750676 0.154808 0.998778 -0.604179
C63   C     C_3   0.733177 0.830885 0.981015 -0.521564
C64   C     C_3   0.711133 0.216430 0.907852 0.071316
C65   C     C_3   0.716868 0.776389 0.898507 0.057497
C66   C     C_3   0.211587 0.716812 0.906679 0.069994
C67   C     C_3   0.217173 0.277802 0.899323 0.030685
C68   C     C_3   0.284974 0.782073 0.089914 0.026399
C69   C     C_3   0.292680 0.208974 0.081446 -0.091793
C70   C     C_3   0.783929 0.280998 0.091585 0.026487
C71   C     C_R   0.183960 0.601236 0.799249 -0.233352
C72   C     C_3   0.791996 0.706444 0.079318 -0.074038
C73   C     C_3   0.315908 0.801180 0.048279 0.707031
C74   C     C_3   0.324749 0.193757 0.041448 0.703926
C75   C     C_3   0.814857 0.301345 0.050349 0.703607
C76   C     C_3   0.828732 0.700213 0.046229 0.794569
C77   C     C_R   0.359783 0.072104 0.487373 -0.097342
C78   C     C_R   0.329931 0.895491 0.414699 -0.164124
C79   C     C_R   0.853144 0.581720 0.475862 -0.095607
C80   C     C_R   0.849171 0.413219 0.467791 -0.149357
C81   C     C_3   0.285221 0.692171 0.102071 0.060012
C82   C     C_R   0.401735 0.182957 0.281993 0.181625
C83   C     C_3   0.294278 0.298374 0.096877 0.072327
C84   C     C_3   0.784879 0.191110 0.103690 0.068629
C85   C     C_3   0.785265 0.794078 0.091113 0.007446
C86   C     C_R   0.708507 0.761364 0.600188 0.029670
C87   C     C_R   0.703953 0.240901 0.594693 -0.051617
C88   C     C_R   0.207760 0.261205 0.596611 0.061079
C89   C     C_R   0.121668 0.659239 0.386013 0.031204
C90   C     C_R   0.378630 0.149352 0.622452 -0.055547
C91   C     C_R   0.294134 0.760230 0.413232 0.043925
C92   C     C_R   0.875171 0.656762 0.615519 -0.052445
C93   C     C_R   0.400138 0.811886 0.286996 0.266410
C94   C     C_R   0.867344 0.332875 0.600580 0.052520
C95   C     C_R   0.387093 0.243408 0.726789 -0.251948
C96   C     C_R   0.263730 0.631501 0.418204 -0.377131
C97   C     C_R   0.885937 0.748193 0.724284 -0.248804
C98   C     C_R   0.877754 0.245045 0.711770 -0.320380
C99   C     C_R   0.418402 0.203354 0.706954 0.532589
C100  C     C_R   0.309266 0.680317 0.434072 0.518694
C101  C     C_R   0.915672 0.710375 0.700634 0.530414
C102  C     C_R   0.906084 0.276877 0.682567 0.497950
C103  C     C_R   0.316593 0.122742 0.580684 -0.265274
C104  C     C_R   0.899471 0.684243 0.281469 0.160830
C105  C     C_R   0.229834 0.786727 0.363738 -0.318575
C106  C     C_R   0.815771 0.626722 0.579370 -0.270964
C107  C     C_R   0.809700 0.366791 0.567087 -0.315825
C108  C     C_R   0.285467 0.162516 0.600129 0.152265
C109  C     C_R   0.186955 0.739142 0.353329 0.148676
C110  C     C_R   0.785956 0.664498 0.602157 0.155517
C111  C     C_R   0.780390 0.333190 0.592388 0.113908
C112  C     C_R   0.817645 0.731054 0.666715 -0.068763
C113  C     C_R   0.812102 0.268360 0.659797 0.056512
C114  C     C_R   0.317658 0.228487 0.665685 -0.080624
C115  C     C_R   0.899568 0.311180 0.287819 0.266384
C116  C     C_R   0.206410 0.662077 0.388575 -0.010268
C117  C     C_R   0.778701 0.779704 0.667165 0.444312
C118  C     C_R   0.775373 0.225027 0.667304 0.441461
C119  C     C_R   0.278355 0.278549 0.664306 0.443349
C120  C     C_R   0.170879 0.620239 0.400334 0.464180
C121  C     C_R   0.682752 0.688915 0.550503 -0.245674
C122  C     C_R   0.676831 0.311635 0.539927 -0.199438
C123  C     C_R   0.180972 0.189773 0.544254 -0.241187
C124  C     C_R   0.095611 0.730871 0.333734 -0.249970
C125  C     C_R   0.413194 0.805429 0.507399 -0.097690
C126  C     C_R   0.654757 0.181068 0.560331 0.090662
C127  C     C_R   0.440258 0.165795 0.573414 -0.148240
C128  C     C_R   0.936514 0.327237 0.564422 -0.086942
C129  C     C_R   0.938593 0.669099 0.569617 -0.165837
C130  C     C_R   0.721309 0.640678 0.551965 -0.168204
C131  C     C_R   0.715718 0.358603 0.541283 -0.183211
C132  C     C_R   0.219421 0.140901 0.546109 -0.179728
C133  C     C_R   0.127844 0.770294 0.316805 -0.188600
C134  C     C_R   0.601948 0.192319 0.710779 0.481826
C135  C     C_R   0.602828 0.806181 0.706398 0.493894
C136  C     C_R   0.101959 0.692313 0.710592 0.483190
H1    H     H_    0.734289 0.926023 0.850209 0.130385
H2    H     H_    0.722514 0.607309 0.981826 0.128415
H3    H     H_    0.839272 0.144056 0.294153 0.258625
H4    H     H_    0.782824 0.769089 0.198318 0.201838
H5    H     H_    0.753599 0.892372 0.207638 0.254039
H6    H     H_    0.745873 0.928072 0.110087 0.251042
H7    H     H_    0.830357 0.902264 0.241796 0.256283
H8    H     H_    0.828348 0.185557 0.961363 0.157068
H9    H     H_    0.871887 0.247986 0.914637 0.225083
H10   H     H_    0.865368 0.329775 0.965245 0.262963
H11   H     H_    0.796328 0.309117 0.824559 0.267034
H12   H     H_    0.840693 0.851094 0.009763 0.149654
H13   H     H_    0.204528 0.870235 0.981291 0.093556
H14   H     H_    0.895470 0.850187 0.960780 0.217478
H15   H     H_    0.852444 0.762591 0.887763 0.272985
H16   H     H_    0.919741 0.761598 0.031048 0.260245
H17   H     H_    0.329952 0.683851 0.962297 0.154537
H18   H     H_    0.361464 0.737714 0.892317 0.199365
H19   H     H_    0.365719 0.821511 0.953699 0.253759
H20   H     H_    0.289305 0.803054 0.813001 0.273816
H21   H     H_    0.335004 0.323561 0.964225 0.157600
H22   H     H_    0.381141 0.277796 0.911699 0.216011
H23   H     H_    0.320203 0.199682 0.839849 0.254986
H24   H     H_    0.213353 0.119625 0.974404 0.102956
H25   H     H_    0.392625 0.197665 0.983657 0.252635
H26   H     H_    0.409155 0.787828 0.114035 0.353482
H27   H     H_    0.426443 0.197972 0.169327 0.345416
H28   H     H_    0.910556 0.291067 0.123457 0.358330
H29   H     H_    0.930313 0.692569 0.175782 0.346936
H30   H     H_    0.836384 0.870649 0.726199 0.314414
H31   H     H_    0.786161 0.159215 0.760771 0.317298
H32   H     H_    0.337372 0.368288 0.724511 0.309810
H33   H     H_    0.235556 0.536252 0.488178 0.302327
H34   H     H_    0.507468 0.171986 0.772571 0.298056
H35   H     H_    0.292380 0.626185 0.013816 0.167439
H36   H     H_    0.369692 0.593989 0.478279 0.322780
H37   H     H_    0.004794 0.679286 0.766932 0.299947
H38   H     H_    0.990445 0.216171 0.789326 0.315777
H39   H     H_    0.609898 0.301216 0.703500 0.350503
H40   H     H_    0.609365 0.703720 0.676573 0.313126
H41   H     H_    0.109634 0.801041 0.702169 0.349379
H42   H     H_    0.112628 0.200181 0.685905 0.337510
H43   H     H_    0.469291 0.267798 0.325478 0.164591
H44   H     H_    0.460287 0.350178 0.416375 0.252594
H45   H     H_    0.477906 0.256007 0.471955 0.295683
H46   H     H_    0.285229 0.378675 0.000947 0.149250
H47   H     H_    0.390734 0.291841 0.370865 0.257514
H48   H     H_    0.455884 0.734294 0.409881 0.183022
H49   H     H_    0.510440 0.663980 0.388663 0.213523
H50   H     H_    0.496780 0.749368 0.318816 0.275436
H51   H     H_    0.440291 0.667230 0.251674 0.273622
H52   H     H_    0.938563 0.791065 0.292541 0.175463
H53   H     H_    0.956424 0.847590 0.425465 0.244883
H54   H     H_    0.004058 0.758771 0.481381 0.287529
H55   H     H_    0.918422 0.765424 0.424002 0.261907
H56   H     H_    0.956319 0.234731 0.412052 0.182460
H57   H     H_    0.791802 0.125797 0.014524 0.168822
H58   H     H_    0.009750 0.162775 0.389792 0.216431
H59   H     H_    0.996465 0.248105 0.320082 0.274097
H60   H     H_    0.939713 0.166460 0.252881 0.274414
H61   H     H_    0.754515 0.887369 0.988892 0.157074
H62   H     H_    0.714181 0.108218 0.972314 0.190790
H63   H     H_    0.683820 0.844249 0.952676 0.211196
H64   H     H_    0.214786 0.608810 0.971406 0.191191
H65   H     H_    0.733044 0.071111 0.855664 0.127576
H66   H     H_    0.208946 0.373060 0.965773 0.213513
H67   H     H_    0.337611 0.668660 0.164243 0.173935
H68   H     H_    0.347719 0.320382 0.151362 0.180749
H69   H     H_    0.837416 0.168162 0.165166 0.175433
H70   H     H_    0.835239 0.823196 0.138063 0.158897
H71   H     H_    0.320766 0.032821 0.461086 0.096058
H72   H     H_    0.279107 0.921503 0.353267 0.102042
H73   H     H_    0.805037 0.555212 0.434678 0.083917
H74   H     H_    0.799002 0.437144 0.421634 0.093642
H75   H     H_    0.630221 0.671654 0.501510 0.142522
H76   H     H_    0.234589 0.425745 0.846746 0.127160
H77   H     H_    0.623394 0.328072 0.487150 0.138668
H78   H     H_    0.127904 0.173685 0.493499 0.143700
H79   H     H_    0.054471 0.760731 0.313966 0.154593
H80   H     H_    0.916356 0.791621 0.785937 0.164696
H81   H     H_    0.904859 0.198597 0.769240 0.187523
H82   H     H_    0.417288 0.286864 0.788408 0.161984
H83   H     H_    0.276006 0.570839 0.434953 0.151160
H84   H     H_    0.195248 0.089035 0.498154 0.133093
H85   H     H_    0.110628 0.828231 0.284855 0.135325
H86   H     H_    0.697809 0.588111 0.505472 0.124934
H87   H     H_    0.233123 0.571186 0.854946 0.126966
H88   H     H_    0.691855 0.409811 0.491938 0.128525
H89   H     H_    0.287716 0.076585 0.523217 0.130641
H90   H     H_    0.215277 0.846607 0.342506 0.136245
H91   H     H_    0.788072 0.578874 0.524568 0.126847
H92   H     H_    0.782997 0.415078 0.512985 0.133530
H93   H     H_    0.441154 0.751888 0.537141 0.219846
H94   H     H_    0.473396 0.213757 0.623705 0.193665
H95   H     H_    0.971627 0.280284 0.614425 0.212118
H96   H     H_    0.972480 0.716512 0.620061 0.202382
H97   H     H_    0.714665 0.071770 0.632024 0.141422
H98   H     H_    0.631517 0.216042 0.899664 0.213407
H99   H     H_    0.714723 0.930623 0.634265 0.159510
H100  H     H_    0.183403 0.541259 0.551797 0.136380
H101  H     H_    0.215892 0.428569 0.639159 0.153099
H102  H     H_    0.265236 0.925596 0.142982 0.127756
H103  H     H_    0.271485 0.063871 0.132999 0.116051
H104  H     H_    0.764336 0.423956 0.145233 0.126123
H105  H     H_    0.772094 0.561389 0.133965 0.114574
H106  H     H_    0.575740 0.749398 0.514332 0.138306
H107  H     H_    0.568108 0.251822 0.495401 0.129308
H108  H     H_    0.075698 0.249243 0.513430 0.149301
H109  H     H_    0.624613 0.724652 0.843198 0.212415
H110  H     H_    0.024479 0.713512 0.378431 0.110028
H111  H     H_    0.623836 0.297874 0.836314 0.208405
H112  H     H_    0.668110 0.661764 0.832399 0.200535
H113  H     H_    0.124812 0.799284 0.835525 0.210099
H114  H     H_    0.137713 0.185642 0.826793 0.198106
H115  H     H_    0.163752 0.759536 0.046979 0.231090
H116  H     H_    0.106842 0.866914 0.029173 0.248726
H117  H     H_    0.076464 0.853160 0.904926 0.288654
H118  H     H_    0.140235 0.926562 0.998011 0.232023
H119  H     H_    0.171317 0.235483 0.035062 0.209378
H120  H     H_    0.132398 0.717989 0.899465 0.212056
H121  H     H_    0.111841 0.132262 0.016813 0.253139
H122  H     H_    0.151351 0.066457 0.000549 0.240100
H123  H     H_    0.087103 0.134303 0.896323 0.262054
H124  H     H_    0.662559 0.255495 0.047381 0.230826
H125  H     H_    0.604434 0.360927 0.029821 0.248573
H126  H     H_    0.575362 0.350309 0.906280 0.286054
H127  H     H_    0.638830 0.422988 0.002177 0.232779
H128  H     H_    0.661640 0.729612 0.004918 0.210660
H129  H     H_    0.605659 0.623815 0.994622 0.254989
H130  H     H_    0.648966 0.558732 0.984802 0.241194
H131  H     H_    0.133160 0.264367 0.880318 0.216134
H132  H     H_    0.583625 0.624344 0.876644 0.263680
H133  H     H_    0.704617 0.368091 0.870121 0.296367
H134  H     H_    0.740463 0.725994 0.795933 0.322004
H135  H     H_    0.206127 0.867701 0.867838 0.296718
H136  H     H_    0.221320 0.129274 0.859145 0.307898
H137  H     H_    0.293369 0.912992 0.032030 0.291143
H138  H     H_    0.304800 0.081543 0.028719 0.295509
H139  H     H_    0.791489 0.412919 0.033616 0.295984
H140  H     H_    0.791882 0.598470 0.973496 0.333045
H141  H     H_    0.229706 0.612048 0.100269 0.179589
H142  H     H_    0.702922 0.368762 0.983347 0.094767
H143  H     H_    0.254091 0.652047 0.239977 0.255084
H144  H     H_    0.292259 0.739200 0.253283 0.259834
H145  H     H_    0.336827 0.647567 0.290803 0.273916
H146  H     H_    0.282911 0.282202 0.193705 0.190414
H147  H     H_    0.262602 0.410029 0.205711 0.257283
H148  H     H_    0.260851 0.441121 0.113356 0.251446
H149  H     H_    0.341530 0.409626 0.244949 0.260449
H150  H     H_    0.730061 0.110449 0.102830 0.180284
H151  H     H_    0.757920 0.148261 0.247259 0.253595
H152  H     H_    0.795436 0.235641 0.259917 0.263945
N1    N     N_R   0.625250 0.928170 0.708660 -0.061901
N2    N     N_R   0.437960 0.130280 0.507940 -0.045109
N3    N     N_R   0.937960 0.369720 0.507940 -0.065084
N4    N     N_R   0.937960 0.630280 0.507940 -0.044352
N5    N     N_R   0.573630 0.128950 0.653340 -0.076329
N6    N     N_R   0.573630 0.871050 0.653340 -0.074177
N7    N     N_R   0.073630 0.628950 0.653340 -0.075389
N8    N     N_R   0.073630 0.371050 0.653340 -0.077103
N9    N     N_R   0.609990 0.071870 0.547380 -0.044492
N10   N     N_R   0.609990 0.928130 0.547380 -0.052023
N11   N     N_R   0.109990 0.571870 0.547380 -0.054179
N12   N     N_R   0.625250 0.071830 0.708660 -0.059294
N13   N     N_R   0.109990 0.428130 0.547380 -0.052768
N14   N     N_R   0.371090 0.922150 0.291340 -0.049838
N15   N     N_R   0.371090 0.077850 0.291340 -0.050437
N16   N     N_R   0.871090 0.422150 0.291340 -0.050197
N17   N     N_R   0.871090 0.577850 0.291340 -0.055542
N18   N     N_R   0.558380 0.869490 0.492060 -0.038926
N19   N     N_R   0.558380 0.130510 0.492060 -0.043690
N20   N     N_R   0.058380 0.369490 0.492060 -0.038486
N21   N     N_R   0.058380 0.630510 0.492060 -0.043695
N22   N     N_R   0.422710 0.124520 0.346660 -0.056108
N23   N     N_R   0.125250 0.428170 0.708660 -0.062414
N24   N     N_R   0.422710 0.875480 0.346660 -0.076630
N25   N     N_R   0.922710 0.624520 0.346660 -0.051166
N26   N     N_R   0.922710 0.375480 0.346660 -0.075813
N27   N     N_2   0.177293 0.811943 0.041671 -0.085403
N28   N     N_2   0.184980 0.181765 0.032168 -0.088303
N29   N     N_2   0.675952 0.308471 0.043014 -0.083303
N30   N     N_2   0.679462 0.675247 0.013012 -0.091846
N31   N     N_2   0.249982 0.666895 0.126022 -0.117982
N32   N     N_2   0.270578 0.320689 0.140204 -0.098154
N33   N     N_2   0.750962 0.164966 0.129749 -0.109495
N34   N     N_R   0.125250 0.571830 0.708660 -0.061460
N35   N     N_2   0.765571 0.808629 0.142066 -0.095696
N36   N     N_2   0.801184 0.234808 0.917733 -0.111441
N37   N     N_2   0.824146 0.810761 0.954513 -0.125392
N38   N     N_2   0.301018 0.731430 0.915413 -0.107217
N39   N     N_2   0.311430 0.274977 0.917263 -0.096432
N40   N     N_2   0.430825 0.257645 0.317833 -0.134221
N41   N     N_2   0.430892 0.737981 0.333195 -0.128710
N42   N     N_2   0.920622 0.762147 0.315682 -0.142964
N43   N     N_2   0.930804 0.237584 0.334995 -0.129769
N44   N     N_R   0.386350 0.070500 0.452620 -0.044877
N45   N     N_R   0.386350 0.929500 0.452620 -0.044557
N46   N     N_R   0.886350 0.570500 0.452620 -0.045135
N47   N     N_R   0.886350 0.429500 0.452620 -0.044946
N48   N     N_R   0.437960 0.869720 0.507940 -0.060651
Ni1   Ni    Ni4+2 0.616550 0.000000 0.626870 0.206045
Ni2   Ni    Ni4+2 0.116550 0.500000 0.626870 0.210210
Ni3   Ni    Ni4+2 0.379790 0.000000 0.373130 0.210857
Ni4   Ni    Ni4+2 0.879790 0.500000 0.373130 0.214700
Ni5   Ni    Ni4+2 0.498170 0.870760 0.500000 0.231727
Ni6   Ni    Ni4+2 0.498170 0.129240 0.500000 0.233370
Ni7   Ni    Ni4+2 0.998170 0.370760 0.500000 0.238193
Ni8   Ni    Ni4+2 0.998170 0.629240 0.500000 0.236993
O1    O     O_3   0.727444 0.336241 0.859830 -0.758394
O2    O     O_3   0.388808 0.232989 0.110359 -0.818681
O3    O     O_3   0.877717 0.260678 0.114865 -0.814185
O4    O     O_3   0.895360 0.733626 0.127375 -0.841829
O5    O     O_3   0.806505 0.845821 0.727707 -0.801570
O6    O     O_3   0.808689 0.165624 0.739900 -0.787111
O7    O     O_3   0.306655 0.344587 0.724983 -0.802123
O8    O     O_3   0.184654 0.543610 0.429048 -0.767916
O9    O     O_3   0.486967 0.218707 0.770951 -0.789238
O10   O     O_3   0.367732 0.650486 0.468924 -0.796826
O11   O     O_3   0.983655 0.726790 0.762430 -0.786175
O12   O     O_3   0.765441 0.695698 0.861006 -0.762205
O13   O     O_3   0.970506 0.253682 0.732739 -0.796993
O14   O     O_3   0.572303 0.263425 0.666366 -0.812696
O15   O     O_3   0.572992 0.736339 0.656769 -0.803580
O16   O     O_3   0.072131 0.763406 0.666604 -0.807486
O17   O     O_3   0.074620 0.235977 0.655230 -0.808845
O18   O     O_3   0.228538 0.834994 0.857425 -0.757181
O19   O     O_3   0.240429 0.168186 0.848411 -0.755269
O20   O     O_3   0.331256 0.880531 0.056765 -0.733165
O21   O     O_3   0.338371 0.114829 0.042585 -0.730069
O22   O     O_3   0.829984 0.380930 0.059645 -0.735618
O23   O     O_3   0.837456 0.621910 0.036123 -0.718268
O24   O     O_3   0.378747 0.760574 0.113195 -0.813713

loop_
_geom_bond_atom_site_label_1
_geom_bond_atom_site_label_2
_ccdc_geom_bond_type
C102  O13   S    
C63   C65   S    
C20   N17   A    
C32   H151  S    
C39   H44   S    
C40   H51   S    
C19   C44   A    
C124  C133  A    
C68   C81   S    
N8    Ni7   S    
C57   O18   S    
C135  N6    A    
C38   H23   S    
C88   C123  A    
C59   C66   S    
C95   C99   A    
H34   O9    S    
C12   C126  A    
C73   O24   S    
C62   C64   S    
H136  O19   S    
N11   N21   A    
C128  N3    A    
H21   N39   S    
C50   C52   S    
C44   C70   S    
C131  H88   S    
C91   C100  A    
C70   C84   S    
C20   C45   A    
C15   N11   A    
C63   C85   S    
C29   H130  S    
C5    C49   A    
C23   N20   A    
C99   O9    S    
C59   H35   S    
N19   Ni6   S    
C22   H107  S    
C20   H105  S    
C27   H121  S    
N6    Ni5   S    
C109  C133  A    
C87   C118  A    
C56   N37   S    
H137  O20   S    
C97   C112  A    
C81   N31   S    
C98   C102  A    
H36   O10   S    
C63   H61   S    
C5    C64   S    
C31   H147  S    
C89   C120  A    
C86   C121  A    
C55   N36   S    
C1    N1    A    
C69   C74   S    
C111  C113  A    
N23   Ni2   S    
C60   H76   S    
C4    C135  A    
C92   C106  A    
H38   O13   S    
C47   H109  S    
C40   N41   S    
H135  O18   S    
C80   H74   S    
N45   N48   A    
C50   H131  S    
H133  O1    S    
C37   H18   S    
C83   H68   S    
C3    N8    A    
C87   C122  A    
C122  H77   S    
H31   O6    S    
C57   N38   S    
C103  H89   S    
C30   H144  S    
N25   Ni8   S    
C41   H53   S    
C10   C129  A    
C37   N38   S    
C7    C66   S    
C34   H10   S    
C36   H14   S    
N47   Ni4   S    
C46   C53   S    
C86   C117  A    
C42   H59   S    
C2    C14   A    
H32   O7    S    
C58   C67   S    
C17   N14   A    
C94   C102  A    
C123  H78   S    
C29   H132  S    
C106  H91   S    
C96   C116  A    
H48   N41   S    
C54   N30   S    
H29   O4    S    
C30   N31   S    
C53   H142  S    
C52   H24   S    
C12   N9    A    
C123  C132  A    
C136  O16   S    
C91   C105  A    
N13   Ni2   S    
C121  C130  A    
C3    C6    A    
N26   Ni7   S    
C72   C85   S    
C61   H46   S    
C76   O4    S    
H8    N36   S    
C46   H98   S    
H30   O5    S    
C125  H93   S    
C77   H71   S    
C51   N27   S    
N45   Ni3   S    
C28   H125  S    
C36   N37   S    
C33   N35   S    
N2    Ni6   S    
C57   C73   S    
H146  N32   S    
C85   N35   S    
C38   N39   S    
C97   H80   S    
C15   H100  S    
C23   C24   A    
C82   N40   S    
N15   Ni3   S    
H26   O24   S    
C50   C67   S    
C117  O5    S    
C114  C119  A    
N18   Ni5   S    
C55   C75   S    
C25   H110  S    
H41   O16   S    
C119  O7    S    
C43   C69   S    
C55   C64   S    
C37   H20   S    
C14   H99   S    
C12   H97   S    
H12   N37   S    
C93   N24   A    
C49   H65   S    
C94   C107  A    
H33   O8    S    
C41   H55   S    
C77   N44   A    
H43   N40   S    
C36   H16   S    
C33   H5    S    
H124  N29   S    
C9    C125  A    
C116  C120  A    
C132  H84   S    
H42   O17   S    
C45   C104  A    
C61   H66   S    
N34   Ni2   S    
H140  O23   S    
C61   C67   S    
C59   H64   S    
N8    N23   A    
C18   N15   A    
C74   O21   S    
C78   N45   A    
H39   O14   S    
C135  O15   S    
C3    O17   S    
C42   N43   S    
C26   H116  S    
C111  C131  A    
C6    C67   S    
C25   N21   A    
C8    C77   A    
C90   C99   A    
C1    H1    S    
C58   C74   S    
H139  O22   S    
C62   C84   S    
C19   N16   A    
H40   O15   S    
C107  C111  A    
N20   Ni7   S    
C32   H152  S    
C26   H117  S    
C39   N40   S    
H134  O12   S    
C89   C124  A    
C28   H127  S    
C26   N27   S    
C84   N33   S    
C14   N10   A    
C28   N29   S    
N5    N12   A    
C7    C136  A    
N4    N46   A    
C96   C100  A    
C21   N18   A    
N21   Ni8   S    
C110  C112  A    
C108  C132  A    
N46   Ni4   S    
C8    C90   S    
C34   N36   S    
C70   C75   S    
N11   Ni2   S    
C48   C66   S    
N1    Ni1   S    
N9    N19   A    
C87   C126  S    
C124  H79   S    
C115  N43   S    
C29   H129  S    
C122  C131  A    
C125  N48   A    
C120  O8    S    
C33   H7    S    
C129  H96   S    
N17   Ni4   S    
H56   N43   S    
H37   O11   S    
C112  C117  A    
C56   O12   S    
C95   C114  A    
H27   O2    S    
C83   N32   S    
N17   N25   A    
C108  C114  A    
C48   H113  S    
C115  N26   A    
C29   N30   S    
C105  C109  A    
C52   C69   S    
C109  C116  A    
C31   N32   S    
C38   H25   S    
C129  N4    A    
C16   N13   A    
C133  H85   S    
C57   C66   S    
C101  O11   S    
C17   H102  S    
C10   C92   S    
C104  N25   A    
C31   H149  S    
C53   C70   S    
N44   Ni3   S    
C47   H112  S    
H119  N28   S    
C127  N2    A    
N5    Ni6   S    
C130  H86   S    
C38   H22   S    
N12   Ni1   S    
C61   C83   S    
N22   Ni6   S    
C98   C113  A    
C127  H94   S    
C22   N19   A    
C93   N41   S    
C34   H11   S    
C2    C21   A    
C42   H60   S    
C24   C88   S    
C92   C101  A    
C32   H3    S    
C47   C54   S    
C11   C94   S    
C128  H95   S    
H4    N35   S    
C58   O19   S    
C79   H73   S    
C27   H122  S    
C52   N28   S    
C41   N42   S    
C53   N29   S    
C59   C81   S    
C104  N42   S    
C10   C79   A    
C96   H83   S    
N1    N6    A    
C75   O3    S    
C134  O14   S    
C31   H148  S    
C18   C43   A    
C28   H126  S    
C110  C130  A    
C9    C78   A    
C30   H145  S    
C90   C103  A    
H150  N33   S    
C11   C80   A    
N16   Ni4   S    
C40   H50   S    
C51   H13   S    
C98   H81   S    
N14   N24   A    
C73   O20   S    
C17   C35   A    
C62   H57   S    
C23   H108  S    
C39   H47   S    
H128  N30   S    
C21   H106  S    
C56   C76   S    
C79   N46   A    
C37   H19   S    
H138  O21   S    
C72   C76   S    
C9    C91   S    
C60   N23   A    
C81   H67   S    
N4    Ni8   S    
C30   H143  S    
C41   H54   S    
H52   N42   S    
C46   H111  S    
C7    C71   A    
C4    C65   S    
C34   H9    S    
C22   C126  A    
C56   C65   S    
C80   N47   A    
C42   H58   S    
C75   O22   S    
H17   N38   S    
N3    Ni7   S    
C84   H69   S    
C48   C51   S    
C44   C115  A    
C103  C108  A    
C48   H120  S    
C74   O2    S    
C16   C24   A    
C45   C72   S    
C13   C25   A    
N10   Ni1   S    
N7    Ni8   S    
C76   O23   S    
C85   H70   S    
C78   H72   S    
C35   C93   A    
H115  N27   S    
C5    C134  A    
C71   H87   S    
C6    C60   A    
C62   H62   S    
C26   H118  S    
C40   H49   S    
N13   N20   A    
C68   C73   S    
N14   Ni3   S    
C46   C64   S    
C32   N33   S    
C88   C119  A    
C49   N12   A    
N48   Ni5   S    
C69   C83   S    
C136  N7    A    
C82   N22   A    
C8    C127  A    
N9    Ni1   S    
C107  H92   S    
C105  H90   S    
C39   H45   S    
N10   N18   A    
N15   N22   A    
C16   H101  S    
C27   N28   S    
C13   C15   A    
N7    N34   A    
C58   N39   S    
C118  O6    S    
C18   H103  S    
C106  C110  A    
C71   N34   A    
C13   C89   S    
C50   H114  S    
C95   H82   S    
C36   H15   S    
N16   N26   A    
C33   H6    S    
C27   H123  S    
C1    C4    A    
C11   C128  A    
C134  N5    A    
C19   H104  S    
C100  O10   S    
N24   Ni5   S    
C54   H2    S    
C35   C68   S    
H28   O3    S    
N3    N47   A    
C63   H63   S    
C2    C86   S    
C51   C68   S    
C121  H75   S    
H141  N31   S    
C113  C118  A    
C54   C72   S    
C55   O1    S    
C43   C82   A    
C47   C65   S    
C97   C101  A    
N2    N44   A    
