data_mof_unit_14388.cif
_audit_creation_date              2012-12-11T14:04:10-0500
_audit_creation_method            fapswitch 2.2
_symmetry_space_group_name_H-M    P1
_symmetry_Int_Tables_number       1
_space_group_crystal_system       triclinic
_cell_length_a                    18.920153
_cell_length_b                    10.991946
_cell_length_c                    18.712925
_cell_angle_alpha                 89.577779
_cell_angle_beta                  90.204968
_cell_angle_gamma                 90.441609
_cell_volume                      3891.46853585

loop_
_atom_site_label
_atom_site_type_symbol
_atom_type_description
_atom_site_fract_x
_atom_site_fract_y
_atom_site_fract_z
_atom_type_partial_charge
C1    C     C_R   0.226702 0.514176 0.637470 0.566995
C2    C     C_R   0.760251 0.466845 0.353300 0.555541
C3    C     C_R   0.726702 0.014178 0.637470 0.566951
C4    C     C_R   0.260251 0.966845 0.353300 0.555573
C5    C     C_2   0.288013 0.840259 0.536550 -0.164553
C6    C     C_2   0.691863 0.894073 0.451538 -0.165626
C7    C     C_2   0.788013 0.340255 0.536549 -0.165084
C8    C     C_2   0.191864 0.394069 0.451538 -0.165773
C9    C     C_R   0.005708 0.657748 0.425799 -0.035136
C10   C     C_R   0.992298 0.668377 0.575470 -0.041309
C11   C     C_R   0.505706 0.157748 0.425800 -0.035186
C12   C     C_R   0.492296 0.168377 0.575472 -0.041875
C13   C     C_R   0.035017 0.875227 0.422082 -0.085985
C14   C     C_R   0.003927 0.893552 0.567065 -0.068067
C15   C     C_R   0.535015 0.375227 0.422084 -0.086042
C16   C     C_R   0.503924 0.393552 0.567067 -0.068240
C17   C     C_R   0.041803 0.986674 0.456268 -0.131232
C18   C     C_R   0.024508 0.996532 0.528189 -0.125633
C19   C     C_R   0.541800 0.486675 0.456270 -0.131276
C20   C     C_R   0.524505 0.496532 0.528190 -0.125488
C21   C     C_R   0.002930 0.777370 0.535074 0.010875
C22   C     C_R   0.013708 0.770295 0.460355 0.008380
C23   C     C_R   0.502927 0.277370 0.535075 0.010845
C24   C     C_R   0.513705 0.270295 0.460356 0.008430
C25   C     C_R   0.979797 0.558399 0.539148 0.010955
C26   C     C_R   0.000772 0.549837 0.467739 0.022238
C27   C     C_R   0.479794 0.058399 0.539149 0.010941
C28   C     C_R   0.500769 0.049837 0.467741 0.022278
C29   C     C_R   0.954363 0.452854 0.574686 -0.066269
C30   C     C_R   0.013369 0.432691 0.439734 -0.083831
C31   C     C_R   0.454360 0.952855 0.574689 -0.066419
C32   C     C_R   0.513366 0.932690 0.439737 -0.083873
C33   C     C_R   0.962071 0.338571 0.544211 -0.130487
C34   C     C_R   0.993657 0.328416 0.477627 -0.152084
C35   C     C_R   0.462068 0.838571 0.544214 -0.130234
C36   C     C_R   0.493654 0.828416 0.477630 -0.151991
C37   C     C_2   0.257580 0.928679 0.916569 -0.064163
C38   C     C_2   0.741981 0.940979 0.086496 -0.053852
C39   C     C_2   0.757256 0.428681 0.916581 -0.044964
C40   C     C_2   0.241940 0.440605 0.086444 -0.053816
C41   C     C_2   0.255045 0.941953 0.072382 -0.104265
C42   C     C_2   0.729457 0.986283 0.933301 -0.126356
C43   C     C_2   0.755077 0.441646 0.072514 -0.107011
C44   C     C_2   0.229752 0.485354 0.933211 -0.129435
C45   C     C_R   0.227210 0.874429 0.647455 0.549615
C46   C     C_R   0.771319 0.878831 0.349990 0.557084
C47   C     C_R   0.727209 0.374427 0.647454 0.552405
C48   C     C_R   0.271319 0.378830 0.349990 0.557171
C49   C     C_2   0.240826 0.035447 0.027636 -0.126516
C50   C     C_2   0.757763 0.066363 0.978898 -0.161315
C51   C     C_2   0.739039 0.534293 0.027874 -0.141744
C52   C     C_2   0.257465 0.565886 0.978915 -0.161109
C53   C     C_2   0.225535 0.018507 0.951611 0.071818
C54   C     C_2   0.776898 0.031701 0.052346 0.077952
C55   C     C_2   0.724032 0.516485 0.952102 0.065968
C56   C     C_2   0.276643 0.531552 0.052364 0.077598
C57   C     C_2   0.044524 0.655848 0.933364 -0.097662
C58   C     C_2   0.017127 0.664034 0.087387 -0.107995
C59   C     C_2   0.544548 0.155879 0.933364 -0.101083
C60   C     C_2   0.517113 0.164013 0.087383 -0.108238
C61   C     C_2   0.038186 0.563810 0.053034 -0.153010
C62   C     C_2   0.060593 0.564917 0.978250 -0.170276
C63   C     C_2   0.538099 0.063762 0.053009 -0.153140
C64   C     C_2   0.560459 0.064824 0.978216 -0.170604
C65   C     C_R   0.026481 0.656085 0.646567 0.535080
C66   C     C_R   0.973299 0.654111 0.353660 0.529946
C67   C     C_R   0.526481 0.156085 0.646568 0.534027
C68   C     C_R   0.473299 0.154111 0.353661 0.530005
C69   C     C_R   0.224490 0.517840 0.858590 0.551854
C70   C     C_R   0.761679 0.469968 0.147537 0.550683
C71   C     C_R   0.724412 0.018157 0.858549 0.553054
C72   C     C_R   0.261653 0.969921 0.147516 0.548539
C73   C     C_R   0.228954 0.875877 0.851616 0.551670
C74   C     C_R   0.771193 0.877594 0.148553 0.566147
C75   C     C_R   0.728902 0.375837 0.851610 0.560633
C76   C     C_R   0.271184 0.377546 0.148558 0.565730
C77   C     C_R   0.062147 0.647767 0.858380 0.549403
C78   C     C_R   0.973041 0.652942 0.150681 0.550297
C79   C     C_R   0.562147 0.147771 0.858377 0.546925
C80   C     C_R   0.473040 0.152940 0.150683 0.549907
C81   C     C_2   0.248806 0.914703 0.576821 -0.107029
C82   C     C_2   0.743583 0.942242 0.411403 -0.113098
C83   C     C_2   0.748805 0.414699 0.576820 -0.106585
C84   C     C_2   0.243583 0.442240 0.411404 -0.113046
C85   C     C_2   0.245428 0.906804 0.420712 -0.120783
C86   C     C_2   0.735629 0.973673 0.564596 -0.112369
C87   C     C_2   0.745427 0.406801 0.420711 -0.120795
C88   C     C_2   0.235630 0.473666 0.564597 -0.112746
C89   C     C_2   0.298129 0.862974 0.460570 -0.161974
C90   C     C_2   0.680708 0.936024 0.524791 -0.163929
C91   C     C_2   0.798129 0.362970 0.460568 -0.161892
C92   C     C_2   0.180709 0.436019 0.524792 -0.164180
Cr1   Cr    Cr6+3 0.113970 0.508630 0.747920 1.018978
Cr2   Cr    Cr6+3 0.886030 0.508630 0.252080 1.021827
Cr3   Cr    Cr6+3 0.613970 0.008630 0.747920 1.022741
Cr4   Cr    Cr6+3 0.386030 0.008630 0.252080 1.021065
Cr5   Cr    Cr6+3 0.269200 0.666740 0.749850 1.004325
Cr6   Cr    Cr6+3 0.730800 0.666740 0.250150 1.008522
Cr7   Cr    Cr6+3 0.769200 0.166740 0.749850 1.007094
Cr8   Cr    Cr6+3 0.230800 0.166740 0.250150 1.009834
Cr9   Cr    Cr6+3 0.112300 0.820070 0.749800 1.027475
Cr10  Cr    Cr6+3 0.887700 0.820070 0.250200 1.038574
Cr11  Cr    Cr6+3 0.612300 0.320070 0.749800 1.025173
Cr12  Cr    Cr6+3 0.387700 0.320070 0.250200 1.037101
H1    H     H_    0.350173 0.848464 0.438233 0.171992
H2    H     H_    0.628281 0.927568 0.547781 0.170483
H3    H     H_    0.850173 0.348462 0.438232 0.172054
H4    H     H_    0.128282 0.427563 0.547782 0.170502
H5    H     H_    0.261096 0.849388 0.054150 0.067334
H6    H     H_    0.712632 0.895897 0.949810 0.087779
H7    H     H_    0.763331 0.349717 0.054148 0.067167
H8    H     H_    0.213639 0.394335 0.949470 0.091144
H9    H     H_    0.302019 0.881777 0.940996 0.070538
H10   H     H_    0.692793 0.904918 0.065007 0.054146
H11   H     H_    0.802384 0.383212 0.940635 0.067954
H12   H     H_    0.192933 0.404057 0.064797 0.054323
H13   H     H_    0.032714 0.474593 0.077862 0.154911
H14   H     H_    0.084656 0.482775 0.957966 0.135701
H15   H     H_    0.532579 0.974545 0.077825 0.154103
H16   H     H_    0.584351 0.982560 0.957896 0.135253
H17   H     H_    0.025919 0.754522 0.065574 0.106837
H18   H     H_    0.018574 0.737779 0.951141 0.120390
H19   H     H_    0.525938 0.254500 0.065586 0.102813
H20   H     H_    0.518770 0.237954 0.951171 0.115770
H21   H     H_    0.312571 0.759545 0.559016 0.148373
H22   H     H_    0.661129 0.816377 0.433231 0.147114
H23   H     H_    0.812571 0.259542 0.559015 0.148195
H24   H     H_    0.161130 0.316373 0.433231 0.147042
H25   H     H_    0.192739 0.915897 0.442889 0.118567
H26   H     H_    0.788901 0.976160 0.543077 0.113675
H27   H     H_    0.692738 0.415894 0.442888 0.118498
H28   H     H_    0.288902 0.476153 0.543078 0.113564
H29   H     H_    0.224870 0.995978 0.554229 0.115568
H30   H     H_    0.772120 0.023080 0.428693 0.109200
H31   H     H_    0.724869 0.495974 0.554227 0.116053
H32   H     H_    0.272120 0.523078 0.428694 0.109284
H33   H     H_    0.060340 0.065306 0.426546 0.108644
H34   H     H_    0.027859 0.083855 0.554276 0.110714
H35   H     H_    0.560337 0.565306 0.426548 0.108609
H36   H     H_    0.527855 0.583855 0.554277 0.111030
H37   H     H_    0.049317 0.870517 0.366200 0.123224
H38   H     H_    0.988181 0.906187 0.621983 0.138922
H39   H     H_    0.549315 0.370517 0.366202 0.123057
H40   H     H_    0.488178 0.406186 0.621985 0.138491
H41   H     H_    0.038580 0.421167 0.388404 0.134057
H42   H     H_    0.931184 0.458444 0.627415 0.135508
H43   H     H_    0.538577 0.921166 0.388407 0.133966
H44   H     H_    0.431182 0.958446 0.627417 0.134578
H45   H     H_    0.944787 0.257908 0.572881 0.107191
H46   H     H_    0.000964 0.240141 0.454236 0.106170
H47   H     H_    0.444785 0.757909 0.572884 0.107102
H48   H     H_    0.500962 0.740140 0.454239 0.106103
H49   H     H_    0.234233 0.126748 0.048570 0.141356
H50   H     H_    0.775954 0.154417 0.959214 0.126141
H51   H     H_    0.730115 0.625051 0.048683 0.146721
H52   H     H_    0.275026 0.654393 0.959358 0.127025
O1    O     O_R   0.043230 0.549300 0.667990 -0.521363
O2    O     O_R   0.956770 0.549300 0.332010 -0.523277
O3    O     O_R   0.543230 0.049300 0.667990 -0.521584
O4    O     O_R   0.456770 0.049300 0.332010 -0.523213
O5    O     O_R   0.262920 0.788600 0.824420 -0.533289
O6    O     O_R   0.737080 0.788600 0.175580 -0.522810
O7    O     O_R   0.762920 0.288600 0.824420 -0.535653
O8    O     O_R   0.237080 0.288600 0.175580 -0.522652
O9    O     O_R   0.167530 0.905110 0.830340 -0.468898
O10   O     O_R   0.832470 0.905110 0.169660 -0.462929
O11   O     O_R   0.667530 0.405110 0.830340 -0.469101
O12   O     O_R   0.332470 0.405110 0.169660 -0.463619
O13   O     O_R   0.054010 0.748440 0.822860 -0.487530
O14   O     O_R   0.945990 0.748440 0.177140 -0.497860
O15   O     O_R   0.554010 0.248440 0.822860 -0.492058
O16   O     O_R   0.445990 0.248440 0.177140 -0.498762
O17   O     O_3   0.165160 0.665150 0.749190 -0.305468
O18   O     O_3   0.834840 0.665150 0.250810 -0.245208
O19   O     O_3   0.665160 0.165150 0.749190 -0.307307
O20   O     O_3   0.334840 0.165150 0.250810 -0.245303
O21   O     O_R   0.178620 0.457600 0.674100 -0.478442
O22   O     O_R   0.821380 0.457600 0.325900 -0.490276
O23   O     O_R   0.678620 0.957600 0.674100 -0.476234
O24   O     O_R   0.321380 0.957600 0.325900 -0.490159
O25   O     O_R   0.284680 0.542100 0.669460 -0.513608
O26   O     O_R   0.715320 0.542100 0.330540 -0.522575
O27   O     O_R   0.784680 0.042100 0.669460 -0.512829
O28   O     O_R   0.215320 0.042100 0.330540 -0.522505
O29   O     O_R   0.262860 0.790390 0.676650 -0.515301
O30   O     O_R   0.737140 0.790390 0.323350 -0.500018
O31   O     O_R   0.762860 0.290390 0.676650 -0.515353
O32   O     O_R   0.237140 0.290390 0.323350 -0.499954
O33   O     O_R   0.167460 0.907030 0.670940 -0.505606
O34   O     O_R   0.832540 0.907030 0.329060 -0.509689
O35   O     O_R   0.667460 0.407030 0.670940 -0.502858
O36   O     O_R   0.332540 0.407030 0.329060 -0.509628
O37   O     O_R   0.053950 0.750220 0.675100 -0.499929
O38   O     O_R   0.946050 0.750220 0.324900 -0.497258
O39   O     O_R   0.553950 0.250220 0.675100 -0.500208
O40   O     O_R   0.446050 0.250220 0.324900 -0.497202
O41   O     O_R   0.043300 0.547370 0.827390 -0.504360
O42   O     O_R   0.956700 0.547370 0.172610 -0.515462
O43   O     O_R   0.543300 0.047370 0.827390 -0.504999
O44   O     O_R   0.456700 0.047370 0.172610 -0.515707
O45   O     O_R   0.178690 0.455820 0.821860 -0.505314
O46   O     O_R   0.821310 0.455820 0.178140 -0.491550
O47   O     O_R   0.678690 0.955820 0.821860 -0.499527
O48   O     O_R   0.321310 0.955820 0.178140 -0.492388
O49   O     O_R   0.284750 0.540170 0.828860 -0.484009
O50   O     O_R   0.715250 0.540170 0.171140 -0.515653
O51   O     O_R   0.784750 0.040170 0.828860 -0.481554
O52   O     O_R   0.215250 0.040170 0.171140 -0.513289
N1    N     N_3   0.174410 0.095332 0.916740 -0.575758
H53   H     H_    0.152039 0.154393 0.953764 0.215907
H54   H     H_    0.201618 0.149771 0.879763 0.239932
N2    N     N_3   0.837382 0.089984 0.084140 -0.581311
H55   H     H_    0.827654 0.183100 0.086966 0.218559
H56   H     H_    0.880568 0.077787 0.050294 0.238484
N3    N     N_3   0.671589 0.591056 0.918102 -0.576000
H57   H     H_    0.624462 0.581047 0.946636 0.231545
H58   H     H_    0.687930 0.681728 0.922362 0.223593
N4    N     N_3   0.336805 0.590585 0.084301 -0.582262
H59   H     H_    0.326705 0.683599 0.086994 0.218610
H60   H     H_    0.380136 0.578800 0.050592 0.235549

loop_
_geom_bond_atom_site_label_1
_geom_bond_atom_site_label_2
_ccdc_geom_bond_type
C70   O46   A    
C7    C83   D    
C14   H38   S    
Cr10  O14   S    
Cr1   O17   S    
C6    C82   D    
C87   C91   D    
Cr3   O23   S    
C14   C18   A    
Cr9   O17   S    
C35   C36   A    
C74   O10   A    
C43   C51   D    
C50   H50   S    
Cr7   O31   S    
Cr8   O52   S    
C57   C62   D    
Cr12  O20   S    
C32   H43   S    
Cr11  O11   S    
C75   O11   A    
C12   C23   A    
C51   H51   S    
C59   C64   D    
C50   C54   S    
Cr11  O39   S    
C60   C63   D    
Cr3   O3    S    
C32   C36   A    
C14   C21   A    
C49   H49   S    
C16   H40   S    
C46   O34   A    
C48   O32   A    
Cr9   O33   S    
N3    H58   S    
C2    O26   A    
Cr6   O18   S    
C49   C53   S    
C9    C22   A    
C37   H9    S    
Cr5   O29   S    
Cr3   O47   S    
C80   O44   A    
C53   N1    S    
C29   C33   A    
C11   C24   A    
C78   O14   A    
C63   H15   S    
C75   O7    A    
Cr2   O22   S    
C79   O15   A    
C18   H34   S    
C3    O23   A    
C9    C66   S    
Cr3   O19   S    
C66   O38   A    
C57   H18   S    
C46   C82   S    
C1    O21   A    
C92   H4    S    
C39   C55   D    
C88   C92   D    
Cr9   O37   S    
C40   C56   D    
C71   O47   A    
C17   C18   A    
Cr8   O20   S    
C73   O5    A    
C23   C24   A    
Cr9   O13   S    
C8    C92   S    
C39   C75   S    
Cr1   O45   S    
Cr7   O27   S    
C72   O48   A    
C37   C53   D    
C69   O49   A    
C44   C52   D    
C58   C61   D    
C71   O51   A    
Cr10  O10   S    
C41   H5    S    
C21   C22   A    
C3    C86   S    
Cr11  O15   S    
C61   C62   S    
C35   H47   S    
C4    O24   A    
C67   O39   A    
Cr10  O38   S    
C41   C49   D    
Cr6   O6    S    
C8    H24   S    
C9    C26   A    
Cr4   O48   S    
C65   O37   A    
C10   C21   A    
C25   C29   A    
C69   O45   A    
C12   C67   S    
C45   C81   S    
C79   O43   A    
C30   C34   A    
C12   C27   A    
C61   H13   S    
C57   C77   S    
C28   C32   A    
Cr5   O17   S    
C90   H2    S    
C72   O52   A    
C86   C90   D    
C59   C79   S    
C29   H42   S    
C74   O6    A    
Cr1   O21   S    
C86   H26   S    
C4    C85   S    
C51   C55   S    
C25   C26   A    
C6    C90   S    
C27   C31   A    
C4    O28   A    
C48   C84   S    
C48   O36   A    
Cr7   O51   S    
Cr2   O42   S    
C88   H28   S    
C81   H29   S    
C82   H30   S    
C60   H19   S    
C15   C19   A    
N3    H57   S    
Cr8   O8    S    
C15   H39   S    
N1    H54   S    
C85   H25   S    
Cr12  O12   S    
C5    C81   D    
N4    H60   S    
C38   C54   D    
C16   C20   A    
C7    C91   S    
Cr11  O19   S    
N1    H53   S    
Cr12  O40   S    
C2    C87   S    
C68   O40   A    
C85   C89   D    
Cr4   O24   S    
Cr1   O1    S    
C6    H22   S    
C87   H27   S    
C42   C50   D    
C41   C72   S    
Cr2   O46   S    
C31   H44   S    
C44   H8    S    
C10   C25   A    
C65   O1    A    
C15   C24   A    
Cr4   O4    S    
C73   O9    A    
Cr2   O18   S    
C26   C30   A    
C16   C23   A    
C39   H11   S    
Cr7   O7    S    
C76   O8    A    
Cr11  O35   S    
C80   O16   A    
C47   O31   A    
Cr12  O16   S    
C66   O2    A    
C11   C68   S    
C30   H41   S    
C38   C74   S    
C10   C65   S    
C45   O33   A    
C59   H20   S    
Cr4   O44   S    
C77   O13   A    
C37   C73   S    
C56   N4    S    
C60   C80   S    
C58   H17   S    
C1    O25   A    
Cr4   O20   S    
Cr8   O32   S    
C8    C84   D    
C83   H31   S    
C13   H37   S    
C36   H48   S    
N2    H56   S    
C47   C83   S    
Cr2   O2    S    
C17   H33   S    
Cr5   O25   S    
Cr10  O18   S    
C70   O50   A    
Cr6   O26   S    
C43   C70   S    
C78   O42   A    
Cr5   O5    S    
C64   H16   S    
C13   C17   A    
Cr5   O49   S    
C89   H1    S    
C20   H36   S    
C19   C20   A    
C42   H6    S    
Cr6   O30   S    
C33   H45   S    
Cr9   O9    S    
C55   N3    S    
C45   O29   A    
N4    H59   S    
C40   H12   S    
C3    O27   A    
C11   C28   A    
C1    C88   S    
C38   H10   S    
Cr1   O41   S    
C54   N2    S    
C42   C71   S    
Cr10  O34   S    
C33   C34   A    
C13   C22   A    
C76   O12   A    
C31   C35   A    
C34   H46   S    
C47   O35   A    
C52   H52   S    
Cr8   O28   S    
C62   H14   S    
C58   C78   S    
C63   C64   S    
C43   H7    S    
C40   C76   S    
Cr7   O19   S    
N2    H55   S    
C46   O30   A    
Cr3   O43   S    
C5    H21   S    
C27   C28   A    
C44   C69   S    
Cr6   O50   S    
C67   O3    A    
C2    O22   A    
C7    H23   S    
C68   O4    A    
C77   O41   A    
C19   H35   S    
C5    C89   S    
C52   C56   S    
C84   H32   S    
C91   H3    S    
Cr12  O36   S    
