data_mof_unit_51433.cif
_audit_creation_date              2013-03-05T15:42:11-0500
_audit_creation_method            fapswitch 2.2
_symmetry_space_group_name_H-M    P1
_symmetry_Int_Tables_number       1
_space_group_crystal_system       triclinic
_cell_length_a                    7.844273
_cell_length_b                    8.618251
_cell_length_c                    16.690935
_cell_angle_alpha                 93.437894
_cell_angle_beta                  78.822499
_cell_angle_gamma                 92.30868
_cell_volume                      1104.5034195

loop_
_atom_site_label
_atom_site_type_symbol
_atom_site_description
_atom_site_fract_x
_atom_site_fract_y
_atom_site_fract_z
_atom_type_partial_charge
O1    O     O_R   0.388470 0.738640 0.505270 -0.585221
O2    O     O_R   0.611530 0.261360 0.494730 -0.634991
O3    O     O_R   0.679650 0.711510 0.491500 -0.562005
O4    O     O_R   0.320350 0.288490 0.508500 -0.607537
C1    C     C_R   0.543126 0.793633 0.497815 0.871626
C2    C     C_R   0.455247 0.206426 0.504441 0.854836
O5    O     O_R   0.337210 0.515200 0.623500 -0.632069
O6    O     O_R   0.662790 0.484800 0.376500 -0.596758
O7    O     O_R   0.628380 0.488060 0.609730 -0.577044
O8    O     O_R   0.371620 0.511940 0.390270 -0.521867
C3    C     C_R   0.473094 0.489491 0.654144 0.895881
C4    C     C_R   0.525619 0.495006 0.345098 0.899235
Zn1   Zn    Zn3+2 0.305580 0.518120 0.509190 1.068349
Zn2   Zn    Zn3+2 0.694420 0.481880 0.490810 1.061129
C5    C     C_R   0.448343 0.430325 0.736708 -0.271814
C6    C     C_R   0.544280 0.472071 0.256231 -0.265492
C7    C     C_R   0.569237 0.324169 0.753797 0.440833
C8    C     C_R   0.419123 0.530113 0.216604 0.449184
C9    C     C_R   0.547491 0.270548 0.832817 -0.289961
C10   C     C_R   0.420413 0.482477 0.135010 -0.290719
C11   C     C_R   0.407753 0.318560 0.893175 0.058314
C12   C     C_R   0.549170 0.383926 0.092497 0.057752
C13   C     C_R   0.281263 0.410227 0.874112 -0.286026
C14   C     C_R   0.682228 0.339553 0.129244 -0.286782
C15   C     C_R   0.295924 0.461990 0.795345 0.471189
C16   C     C_R   0.683054 0.384431 0.210617 0.448778
C17   C     C_2   0.407907 0.301276 0.979352 -0.174260
C18   C     C_2   0.553999 0.335418 0.007268 -0.170573
H1    H     H_    0.679017 0.344015 0.965907 0.142828
H2    H     H_    0.283745 0.296003 0.021671 0.140719
H3    H     H_    0.175527 0.449996 0.921957 0.151266
H4    H     H_    0.782875 0.265332 0.095431 0.152832
H5    H     H_    0.320868 0.522172 0.104976 0.149447
H6    H     H_    0.644439 0.198577 0.848792 0.151316
C19   C     C_2   0.559587 0.952024 0.482061 0.226598
C20   C     C_2   0.433054 0.046682 0.520205 0.228805
N1    N     N_2   0.953500 0.457650 0.478520 0.191199
N2    N     N_2   0.046500 0.542350 0.521480 0.195009
O9    O     O_3   0.713222 0.284761 0.693885 -0.600551
C21   C     C_3   0.751373 0.125650 0.691716 -0.369814
H7    H     H_    0.632786 0.048690 0.703544 0.158169
H8    H     H_    0.837352 0.106131 0.735522 0.154787
H9    H     H_    0.823652 0.092012 0.629572 0.212754
O10   O     O_3   0.289083 0.623550 0.259877 -0.581791
C22   C     C_3   0.304156 0.771816 0.227198 -0.331709
H10   H     H_    0.254997 0.768498 0.169001 0.159076
H11   H     H_    0.440132 0.819934 0.218021 0.145090
H12   H     H_    0.222316 0.852752 0.271262 0.201972
O11   O     O_3   0.808883 0.327295 0.247528 -0.633995
C23   C     C_3   0.968184 0.406495 0.219520 -0.225986
H13   H     H_    0.066986 0.364802 0.251808 0.224770
H14   H     H_    0.957356 0.534130 0.233413 0.198759
H15   H     H_    0.016314 0.381549 0.153018 0.119852
O12   O     O_3   0.171104 0.558080 0.779001 -0.614652
C24   C     C_3   0.011051 0.473738 0.784369 -0.309646
H16   H     H_    0.978792 0.397406 0.836968 0.140611
H17   H     H_    0.010910 0.402440 0.726755 0.208282
H18   H     H_    0.904495 0.557374 0.793211 0.181516
O13   O     O_3   0.694491 0.999572 0.421281 -0.649690
C25   C     C_3   0.649799 0.961566 0.344353 -0.328406
H19   H     H_    0.527610 0.017849 0.338656 0.154106
H20   H     H_    0.638094 0.833426 0.332817 0.161090
H21   H     H_    0.755136 0.005719 0.296064 0.211622
O14   O     O_3   0.285192 0.990297 0.572534 -0.603598
C26   C     C_3   0.248851 0.081073 0.646819 -0.349672
H22   H     H_    0.170173 0.182121 0.640455 0.200753
H23   H     H_    0.368443 0.119973 0.669405 0.145636
H24   H     H_    0.170289 0.009056 0.694180 0.175945
O15   O     O_3   0.055394 0.366569 0.422120 -0.548010
C27   C     C_3   0.966138 0.226536 0.412182 -0.022305
H25   H     H_    0.856364 0.245105 0.381663 0.245776
H26   H     H_    0.925466 0.171651 0.471849 0.185946
H27   H     H_    0.055273 0.146024 0.371448 0.127255
O16   O     O_3   0.976178 0.681404 0.545008 -0.500219
C28   C     C_3   0.990174 0.713289 0.626531 -0.069836
H28   H     H_    0.912301 0.626003 0.665072 0.129681
H29   H     H_    0.933713 0.828021 0.646938 0.121006
H30   H     H_    0.127310 0.719578 0.634194 0.221422

loop_
_geom_bond_atom_site_label_1
_geom_bond_atom_site_label_2
_geom_bond_distance
_ccdc_geom_bond_type
C9    C11   1.395010 A    
C23   H14   1.113676 S    
O7    Zn2   1.949839 S    
C14   H4    1.084261 S    
N1    N2    1.294729 D    
N1    O15   1.345883 S    
C21   H8    1.110332 S    
C28   H29   1.107375 S    
C20   O14   1.398944 S    
C19   C20   1.346837 D    
O6    C4    1.293067 A    
C28   H28   1.105211 S    
C26   H24   1.108627 S    
C19   O13   1.384059 S    
O14   C26   1.412517 S    
C24   H16   1.112327 S    
C24   H17   1.109869 S    
C23   H13   1.108062 S    
C11   C17   1.455159 S    
O13   C25   1.411982 S    
C12   C18   1.452212 S    
C22   H10   1.110883 S    
C15   O12   1.383788 S    
Zn2   N1    2.020725 S    
O5    C3    1.300325 A    
O7    C3    1.297499 A    
C14   C16   1.390874 A    
Zn1   N2    2.020725 S    
O2    C2    1.280118 A    
O3    Zn2   1.986266 S    
O8    C4    1.302668 A    
C27   H27   1.109407 S    
C25   H21   1.109250 S    
O1    C1    1.270468 A    
C10   H5    1.082550 S    
C1    C19   1.401735 S    
O4    C2    1.285016 A    
C18   H1    1.087012 S    
C7    C9    1.400618 A    
C10   C12   1.401416 A    
C26   H22   1.109226 S    
C8    C10   1.396903 A    
C22   H11   1.114353 S    
C11   C13   1.387650 A    
C6    C16   1.418124 A    
O15   C27   1.388210 S    
O2    Zn2   1.984391 S    
C28   H30   1.106485 S    
C12   C14   1.385756 A    
C22   H12   1.109540 S    
C23   H15   1.111871 S    
C5    C15   1.415074 A    
O16   C28   1.396325 S    
C13   H3    1.084621 S    
C8    O10   1.386162 S    
O5    Zn1   1.972874 S    
C27   H25   1.103413 S    
O1    Zn1   1.984392 S    
O10   C22   1.410904 S    
C9    H6    1.081948 S    
C6    C8    1.408033 A    
O11   C23   1.410323 S    
C7    O9    1.394021 S    
C24   H18   1.108127 S    
O9    C21   1.412138 S    
C5    C7    1.422585 A    
C17   H2    1.087732 S    
O12   C24   1.415390 S    
C21   H7    1.113111 S    
O6    Zn2   1.972872 S    
N2    O16   1.344435 S    
O3    C1    1.291234 A    
C13   C15   1.395800 A    
C27   H26   1.112879 S    
C3    C5    1.472868 S    
C17   C18   1.334305 D    
C21   H9    1.109298 S    
C25   H20   1.112763 S    
C4    C6    1.464102 S    
O4    Zn1   1.986266 S    
C2    C20   1.414659 S    
C25   H19   1.114153 S    
C26   H23   1.109590 S    
O8    Zn1   1.949838 S    
C16   O11   1.381139 S    
