data_mof_unit_28484.cif
_audit_creation_date              2012-12-10T18:55:56-0500
_audit_creation_method            fapswitch 2.2
_symmetry_space_group_name_H-M    P1
_symmetry_Int_Tables_number       1
_space_group_crystal_system       triclinic
_cell_length_a                    10.702977
_cell_length_b                    9.901973
_cell_length_c                    14.981936
_cell_angle_alpha                 89.484758
_cell_angle_beta                  91.617207
_cell_angle_gamma                 89.501782
_cell_volume                      1587.03417651

loop_
_atom_site_label
_atom_site_type_symbol
_atom_type_description
_atom_site_fract_x
_atom_site_fract_y
_atom_site_fract_z
_atom_type_partial_charge
C1    C     C_R   0.260094 0.500373 0.500292 0.891642
C2    C     C_R   0.739913 0.499651 0.500085 0.871907
C3    C     C_R   0.500629 0.500358 0.327596 0.920034
C4    C     C_R   0.500641 0.499574 0.671380 1.012412
C5    C     C_R   0.588425 0.068538 0.549259 0.243088
C6    C     C_R   0.411484 0.931477 0.450830 0.256416
C7    C     C_R   0.410939 0.075832 0.451996 0.419389
C8    C     C_R   0.588336 0.924160 0.548694 0.441298
C9    C     C_R   0.065983 0.381969 0.524076 -0.154301
C10   C     C_R   0.934055 0.618370 0.477364 -0.190536
C11   C     C_R   0.937940 0.381419 0.523618 -0.179270
C12   C     C_R   0.062070 0.618936 0.477864 -0.193766
C13   C     C_R   0.552304 0.615726 0.093300 -0.268936
C14   C     C_R   0.390757 0.478010 0.902300 -0.260429
C15   C     C_R   0.611258 0.536967 0.905634 -0.286317
C16   C     C_R   0.455449 0.395110 0.089944 -0.283995
C17   C     C_R   0.555435 0.612682 0.185821 0.471800
C18   C     C_R   0.391431 0.469289 0.810001 0.439009
C19   C     C_R   0.611709 0.535827 0.812712 0.452196
C20   C     C_R   0.458955 0.388833 0.182505 0.458255
C21   C     C_R   0.504356 0.500897 0.230889 -0.280966
C22   C     C_R   0.501777 0.499495 0.766326 -0.239416
C23   C     C_R   0.502122 0.507541 0.045920 0.027827
C24   C     C_R   0.500845 0.509609 0.949698 0.031188
C25   C     C_R   0.872442 0.499565 0.500175 -0.008937
C26   C     C_R   0.127579 0.500659 0.500985 0.001964
H1    H     H_    0.588468 0.702871 0.058516 0.163494
H2    H     H_    0.304898 0.459840 0.936965 0.168163
H3    H     H_    0.696790 0.555783 0.943659 0.156517
H4    H     H_    0.416605 0.311706 0.052259 0.160324
H5    H     H_    0.116415 0.290197 0.542845 0.166618
H6    H     H_    0.883660 0.710125 0.458489 0.170700
H7    H     H_    0.890642 0.289470 0.542152 0.191701
H8    H     H_    0.109325 0.710905 0.459307 0.191787
N1    N     N_R   0.500000 0.857200 0.500000 -0.181584
N2    N     N_R   0.500000 0.142800 0.500000 -0.188479
O1    O     O_R   0.316770 0.614620 0.499990 -0.645124
O2    O     O_R   0.683230 0.385380 0.500010 -0.647319
O3    O     O_R   0.683230 0.614620 0.500010 -0.567267
O4    O     O_R   0.316770 0.385380 0.499990 -0.567895
O5    O     O_R   0.499990 0.614660 0.369060 -0.609413
O6    O     O_R   0.500010 0.385340 0.630940 -0.659984
O7    O     O_R   0.500010 0.614660 0.630940 -0.569430
O8    O     O_R   0.499990 0.385340 0.369060 -0.547515
Zn1   Zn    Zn3+2 0.500000 0.653120 0.500000 1.020697
Zn2   Zn    Zn3+2 0.500000 0.346880 0.500000 1.005447
O9    O     O_3   0.679105 0.130670 0.600728 -0.793154
H9    H     H_    0.652578 0.223978 0.610998 0.396771
O10   O     O_3   0.321043 0.869381 0.399129 -0.792386
H10   H     H_    0.347672 0.776116 0.388834 0.396445
O11   O     O_3   0.322831 0.152066 0.404474 -0.686673
H11   H     H_    0.261906 0.092546 0.373823 0.369992
O12   O     O_3   0.674830 0.847907 0.597687 -0.723463
H12   H     H_    0.735385 0.907427 0.628713 0.355556
O13   O     O_3   0.603937 0.722044 0.231439 -0.584485
C27   C     C_3   0.733042 0.699413 0.246838 -0.290001
H13   H     H_    0.783252 0.693738 0.182896 0.153202
H14   H     H_    0.771718 0.785721 0.285027 0.189914
H15   H     H_    0.751156 0.606365 0.287646 0.142607
O14   O     O_3   0.282208 0.444141 0.761562 -0.606105
C28   C     C_3   0.255658 0.305231 0.767780 -0.283627
H16   H     H_    0.334420 0.242282 0.743754 0.168165
H17   H     H_    0.232657 0.275584 0.837155 0.158154
H18   H     H_    0.172602 0.284091 0.724339 0.193011
O15   O     O_3   0.720312 0.556426 0.766053 -0.604175
C29   C     C_3   0.771339 0.683633 0.786865 -0.220485
H19   H     H_    0.822812 0.680120 0.852254 0.143464
H20   H     H_    0.839862 0.709786 0.735412 0.206148
H21   H     H_    0.698826 0.765154 0.785977 0.166550
O16   O     O_3   0.407676 0.278766 0.225330 -0.563428
C30   C     C_3   0.487896 0.165975 0.216344 -0.182894
H22   H     H_    0.450103 0.080026 0.254720 0.211366
H23   H     H_    0.492622 0.133383 0.145698 0.132676
H24   H     H_    0.583365 0.186761 0.244092 0.143858

loop_
_geom_bond_atom_site_label_1
_geom_bond_atom_site_label_2
_ccdc_geom_bond_type
C8    O12   S    
C30   H24   S    
C15   C19   A    
C23   C24   S    
N2    Zn2   S    
C6    C7    A    
C4    O7    A    
C13   C17   A    
C5    C8    A    
C15   H3    S    
C4    C22   S    
C7    N2    A    
C14   C18   A    
C29   H20   S    
O9    H9    S    
C27   H15   S    
C1    O1    A    
O3    Zn1   S    
C16   C23   A    
C19   C22   A    
O13   C27   S    
C29   H19   S    
C7    O11   S    
C30   H22   S    
O15   C29   S    
C15   C24   A    
O12   H12   S    
C6    N1    A    
C28   H18   S    
O4    Zn2   S    
O7    Zn1   S    
C20   O16   S    
C28   H16   S    
C4    O6    A    
O14   C28   S    
C17   O13   S    
C10   C12   A    
C10   C25   A    
C18   O14   S    
C16   C20   A    
C5    O9    S    
C27   H14   S    
C9    C26   A    
C19   O15   S    
C2    C25   S    
C9    C11   A    
C6    O10   S    
C12   C26   A    
C1    C26   S    
C17   C21   A    
C3    O8    A    
O2    Zn2   S    
C29   H21   S    
C3    C21   S    
C27   H13   S    
C11   C25   A    
C16   H4    S    
O1    Zn1   S    
O11   H11   S    
N1    Zn1   S    
C5    N2    A    
C10   H6    S    
C11   H7    S    
O16   C30   S    
C20   C21   A    
C13   C23   A    
C28   H17   S    
O10   H10   S    
O6    Zn2   S    
C14   C24   A    
C30   H23   S    
C2    O2    A    
C13   H1    S    
O5    Zn1   S    
C1    O4    A    
C14   H2    S    
C18   C22   A    
C12   H8    S    
C2    O3    A    
C3    O5    A    
O8    Zn2   S    
C9    H5    S    
C8    N1    A    
