data_mof_unit_58504.cif
_audit_creation_date              2012-10-26T21:15:49-0400
_audit_creation_method            fapswitch 2.2
_symmetry_space_group_name_H-M    P1
_symmetry_Int_Tables_number       1
_space_group_crystal_system       triclinic
_cell_length_a                    19.309233
_cell_length_b                    10.957342
_cell_length_c                    9.839214
_cell_angle_alpha                 92.257504
_cell_angle_beta                  89.74707
_cell_angle_gamma                 90.588708
_cell_volume                      2080.01770257

loop_
_atom_site_label
_atom_site_type_symbol
_atom_type_description
_atom_site_fract_x
_atom_site_fract_y
_atom_site_fract_z
_atom_type_partial_charge
C1    C     C_R   0.497720 0.266421 0.497701 0.557468
C2    C     C_R   0.854762 0.526927 0.500995 -0.005358
C3    C     C_2   0.537446 0.937720 0.416740 0.229301
C4    C     C_R   0.367760 0.501661 0.500606 0.555008
C5    C     C_2   0.516479 0.865101 0.515793 -0.056412
C6    C     C_2   0.542494 0.068209 0.448508 -0.111950
C7    C     C_2   0.488351 0.135817 0.490336 0.201744
C8    C     C_2   0.454884 0.446334 0.923635 0.063152
C9    C     C_2   0.467709 0.420770 0.069474 0.320346
C10   C     C_R   0.504657 0.733898 0.502785 0.569627
C11   C     C_R   0.632660 0.497045 0.499139 0.573175
C12   C     C_R   0.291743 0.507447 0.503003 -0.050107
C13   C     C_R   0.257380 0.552491 0.619800 -0.092360
C14   C     C_R   0.185147 0.559866 0.623855 0.227438
C15   C     C_R   0.146311 0.520579 0.508157 0.009658
C16   C     C_R   0.181167 0.475508 0.389501 0.164526
C17   C     C_R   0.253427 0.469564 0.388644 -0.090692
C18   C     C_R   0.930281 0.526083 0.512545 0.383437
C19   C     C_R   0.070238 0.522966 0.512290 0.408934
C20   C     C_R   0.815616 0.559277 0.615876 -0.142787
C21   C     C_R   0.743936 0.548679 0.612888 -0.146094
C22   C     C_R   0.709714 0.498892 0.497531 -0.024085
C23   C     C_R   0.749840 0.457910 0.382590 0.227656
C24   C     C_R   0.821963 0.484609 0.379967 0.233285
Cu1   Cu    Cu3+1 0.500010 0.500020 0.638630 1.133618
Cu2   Cu    Cu3+1 0.499990 0.499980 0.361370 1.204018
H1    H     H_    0.715353 0.578101 0.702803 0.211934
H2    H     H_    0.084908 0.775192 0.833848 0.393421
H3    H     H_    0.213894 0.491427 0.097129 0.363936
H4    H     H_    0.280102 0.434378 0.298723 0.201422
H5    H     H_    0.840749 0.592493 0.708608 0.182836
H6    H     H_    0.626732 0.234556 0.235608 0.409531
H7    H     H_    0.951081 0.586780 0.134875 0.403971
H8    H     H_    0.599189 0.971191 0.069661 0.388496
H9    H     H_    0.287197 0.583034 0.707876 0.189538
H10   H     H_    0.510376 0.905349 0.617924 0.137036
H11   H     H_    0.592172 0.111104 0.430434 0.167783
H12   H     H_    0.350629 0.237123 0.599672 0.348325
H13   H     H_    0.414777 0.392863 0.871885 0.157111
H14   H     H_    0.625184 0.750903 0.826133 0.355364
H15   H     H_    0.387833 0.118063 0.016305 0.413767
H16   H     H_    0.491965 0.587592 0.130630 0.279274
N1    N     N_R   0.033366 0.417665 0.495341 -0.114877
N2    N     N_R   0.964563 0.419271 0.494727 -0.126231
N3    N     N_R   0.966962 0.631431 0.532350 -0.147646
N4    N     N_R   0.035933 0.629835 0.531751 -0.110477
N5    N     N_2   0.499250 0.498660 0.846910 -0.095152
N6    N     N_2   0.499230 0.498630 0.153040 -0.296535
O1    O     O_R   0.500010 0.321960 0.617040 -0.527134
O2    O     O_2   0.396081 0.017267 0.644282 -0.269197
O3    O     O_3   0.345969 0.194502 0.509450 -0.447703
O4    O     O_2   0.507738 0.721645 0.958306 -0.255116
O5    O     O_2   0.601827 0.580359 0.012589 -0.208150
O6    O     O_3   0.602107 0.678302 0.782702 -0.493012
O7    O     O_2   0.500415 0.198567 0.152497 -0.237394
O8    O     O_2   0.389049 0.282975 0.232546 -0.221249
O9    O     O_3   0.398772 0.200645 0.984159 -0.512734
O10   O     O_2   0.088966 0.529467 0.817724 -0.214299
O11   O     O_2   0.197526 0.630543 0.888580 -0.260339
O12   O     O_R   0.499990 0.321920 0.382900 -0.420128
O13   O     O_3   0.110740 0.753477 0.749264 -0.450257
O14   O     O_2   0.100169 0.309440 0.259822 -0.139388
O15   O     O_2   0.084002 0.523017 0.204647 -0.213109
O16   O     O_3   0.192018 0.410158 0.107181 -0.430061
O17   O     O_2   0.688262 0.431124 0.139293 -0.173138
O18   O     O_2   0.766563 0.268210 0.201136 -0.175607
O19   O     O_3   0.647153 0.277592 0.316341 -0.543267
O20   O     O_2   0.906402 0.354288 0.212604 -0.156830
O21   O     O_2   0.826252 0.492384 0.103909 -0.199599
O22   O     O_3   0.932220 0.587097 0.228670 -0.473318
O23   O     O_R   0.400160 0.500010 0.617110 -0.539635
O24   O     O_2   0.603248 0.778739 0.246206 -0.227038
O25   O     O_2   0.489750 0.857478 0.179363 -0.190524
O26   O     O_3   0.597264 0.000919 0.165983 -0.480288
O27   O     O_R   0.400130 0.499970 0.382960 -0.487843
O28   O     O_R   0.500010 0.678080 0.617100 -0.448805
O29   O     O_R   0.499990 0.678040 0.382960 -0.456066
O30   O     O_R   0.599870 0.500030 0.617040 -0.455889
O31   O     O_R   0.599840 0.499990 0.382890 -0.425413
O32   O     O_2   0.385024 0.988406 0.397341 -0.178290
S1    S     S_3+6 0.402621 0.078932 0.510985 0.089790
S2    S     S_3+6 0.552764 0.619560 0.905214 0.137532
S3    S     S_3+6 0.439156 0.273478 0.115624 0.082158
S4    S     S_3+6 0.145273 0.616327 0.776181 0.079036
S5    S     S_3+6 0.136632 0.429001 0.238580 0.121209
S6    S     S_3+6 0.713542 0.357695 0.254245 0.114414
S7    S     S_3+6 0.871384 0.476068 0.225748 0.127469
S8    S     S_3+6 0.557183 0.888584 0.248351 0.103839

loop_
_geom_bond_atom_site_label_1
_geom_bond_atom_site_label_2
_ccdc_geom_bond_type
C2    C18   S    
C14   S4    S    
C3    C6    S    
C19   N4    A    
O17   S6    D    
N3    N4    A    
C15   C19   S    
C13   H9    S    
O10   S4    D    
C15   C16   A    
C5    H10   S    
N5    S2    S    
C4    O27   A    
C10   O28   A    
C8    C9    S    
C23   S6    S    
C12   C17   A    
C23   C24   A    
O9    S3    S    
Cu1   O23   S    
C8    H13   S    
C4    C12   S    
Cu1   N5    S    
O21   S7    D    
Cu2   N6    S    
H2    O13   S    
C21   H1    S    
H3    O16   S    
C13   C14   A    
O15   S5    D    
C17   H4    S    
O22   S7    S    
O24   S8    D    
C10   O29   A    
C19   N1    A    
O14   S5    D    
Cu2   O29   S    
C2    C20   A    
Cu1   O30   S    
O11   S4    D    
C1    O12   A    
C16   C17   A    
H12   O3    S    
Cu1   Cu2   S    
O5    S2    D    
N1    N2    A    
O25   S8    D    
C11   O30   A    
C18   N2    A    
C14   C15   A    
Cu2   O27   S    
C6    H11   S    
H16   N6    S    
C20   C21   A    
O4    S2    D    
C11   O31   A    
H7    O22   S    
C9    S3    S    
H6    O19   S    
C7    S1    S    
H8    O26   S    
H14   O6    S    
C2    C24   A    
C16   S5    S    
O7    S3    D    
C18   N3    A    
O16   S5    S    
O6    S2    S    
O8    S3    D    
O3    S1    S    
O19   S6    S    
C3    S8    S    
C1    C7    S    
O32   S1    D    
C3    C5    D    
O13   S4    S    
O18   S6    D    
C6    C7    D    
C11   C22   S    
Cu2   O31   S    
Cu1   O28   S    
C8    N5    D    
H15   O9    S    
C5    C10   S    
Cu2   O12   S    
C24   S7    S    
Cu1   O1    S    
C12   C13   A    
C9    N6    D    
O20   S7    D    
C22   C23   A    
O26   S8    S    
C21   C22   A    
C1    O1    A    
C4    O23   A    
O2    S1    D    
C20   H5    S    
