data_mof_unit_61264.cif
_audit_creation_date              2012-12-10T21:27:31-0500
_audit_creation_method            fapswitch 2.2
_symmetry_space_group_name_H-M    P1
_symmetry_Int_Tables_number       1
_space_group_crystal_system       triclinic
_cell_length_a                    10.711675
_cell_length_b                    16.190211
_cell_length_c                    16.809028
_cell_angle_alpha                 85.248654
_cell_angle_beta                  93.437394
_cell_angle_gamma                 108.1806
_cell_volume                      2758.25603716

loop_
_atom_site_label
_atom_site_type_symbol
_atom_type_description
_atom_site_fract_x
_atom_site_fract_y
_atom_site_fract_z
_atom_type_partial_charge
Br1   Br    Br    0.121682 0.540833 0.624054 -0.365032
Br2   Br    Br    0.387378 0.895390 0.356471 -0.321303
Br3   Br    Br    0.878318 0.459166 0.375946 -0.365031
Br4   Br    Br    0.244181 0.390190 0.264572 -0.359467
Br5   Br    Br    0.755817 0.609810 0.735430 -0.359467
Br6   Br    Br    0.248089 0.338014 0.717681 -0.377050
Br7   Br    Br    0.751910 0.661987 0.282318 -0.377049
Br8   Br    Br    0.671802 0.315674 0.623050 -0.290513
Br9   Br    Br    0.328197 0.684325 0.376950 -0.290514
Br10  Br    Br    0.612624 0.104610 0.643528 -0.321304
C1    C     C_R   0.499256 0.487089 0.652642 0.973612
C2    C     C_R   0.460811 0.101317 0.492992 0.158867
C3    C     C_R   0.614751 0.860598 0.562114 -0.206543
C4    C     C_R   0.385250 0.139402 0.437885 -0.206543
C5    C     C_R   0.599049 0.770376 0.562829 -0.076114
C6    C     C_R   0.400951 0.229624 0.437171 -0.076114
C7    C     C_R   0.745272 0.537916 0.500649 0.938003
C8    C     C_R   0.254728 0.462084 0.499351 0.938003
C9    C     C_2   0.888083 0.564453 0.502642 -0.278025
C10   C     C_2   0.111917 0.435547 0.497358 -0.278025
C11   C     C_2   0.943307 0.508476 0.477680 0.221991
C12   C     C_R   0.500744 0.512911 0.347358 0.973612
C13   C     C_2   0.056693 0.491524 0.522320 0.221990
C14   C     C_R   0.499111 0.475372 0.738437 -0.175682
C15   C     C_R   0.500888 0.524628 0.261562 -0.175683
C16   C     C_R   0.603206 0.528774 0.783421 0.211487
C17   C     C_R   0.396790 0.471227 0.216579 0.211487
C18   C     C_R   0.597264 0.523103 0.865736 -0.149248
C19   C     C_R   0.402729 0.476900 0.134264 -0.149247
C20   C     C_R   0.487087 0.465023 0.903509 0.220522
C21   C     C_R   0.512904 0.534981 0.096491 0.220521
C22   C     C_R   0.388490 0.407886 0.858999 -0.164725
C23   C     C_R   0.393200 0.412864 0.776302 0.234257
C24   C     C_R   0.611503 0.592117 0.141000 -0.164725
C25   C     C_2   0.032562 0.347595 0.472514 1.020689
C26   C     C_2   0.967438 0.652405 0.527487 1.020688
C27   C     C_2   0.716613 0.914164 0.616251 1.042067
C28   C     C_2   0.283388 0.085837 0.383748 1.042066
C29   C     C_R   0.606796 0.587137 0.223697 0.234257
C30   C     C_R   0.445453 0.755140 0.453589 0.369293
C31   C     C_R   0.554547 0.244860 0.546411 0.369293
C32   C     C_R   0.459326 0.845157 0.449328 0.152023
C33   C     C_R   0.540675 0.154843 0.550671 0.152022
C34   C     C_R   0.539190 0.898683 0.507007 0.158867
H1    H     H_    0.657881 0.741512 0.603966 0.225130
H2    H     H_    0.140460 0.972269 0.367991 0.379817
H3    H     H_    0.342119 0.258488 0.396034 0.225130
H4    H     H_    0.322687 0.434767 0.099995 0.199161
H5    H     H_    0.677305 0.565236 0.900005 0.199161
H6    H     H_    0.304884 0.362291 0.888544 0.198343
H7    H     H_    0.695109 0.637712 0.111454 0.198343
H8    H     H_    0.861488 0.249324 0.479665 0.368974
H9    H     H_    0.138512 0.750676 0.520335 0.368974
H10   H     H_    0.859542 0.027731 0.632007 0.379817
N1    N     N_2   0.470343 0.464474 0.985885 -0.144992
N2    N     N_2   0.529647 0.535531 0.014114 -0.144992
N3    N     N_R   0.515370 0.719110 0.509820 -0.142068
N4    N     N_R   0.484630 0.280890 0.490180 -0.142068
N5    N     N_2   0.551831 0.990160 0.508185 -0.054313
N6    N     N_2   0.448171 0.009840 0.491813 -0.054313
O1    O     O_R   0.494500 0.421750 0.612630 -0.575250
O2    O     O_R   0.905283 0.309205 0.499952 -0.731818
O3    O     O_2   0.920734 0.692124 0.570021 -0.553298
O4    O     O_R   0.094717 0.690795 0.500048 -0.731818
O5    O     O_2   0.739261 0.883416 0.682454 -0.557848
O6    O     O_R   0.791254 0.998450 0.590315 -0.735417
O7    O     O_2   0.260740 0.116585 0.317545 -0.557848
O8    O     O_R   0.208748 0.001549 0.409683 -0.735417
O9    O     O_R   0.505500 0.578250 0.387370 -0.575250
O10   O     O_R   0.504370 0.562470 0.618930 -0.591307
O11   O     O_R   0.495630 0.437530 0.381070 -0.591307
O12   O     O_R   0.679100 0.455920 0.498020 -0.554999
O13   O     O_R   0.320900 0.544080 0.501980 -0.554999
O14   O     O_R   0.688960 0.596630 0.504320 -0.587474
O15   O     O_R   0.311040 0.403370 0.495680 -0.587474
O16   O     O_2   0.079266 0.307875 0.429979 -0.553298
Zn1   Zn    Zn3+2 0.493410 0.406040 0.495790 1.078254
Zn2   Zn    Zn3+2 0.506590 0.593960 0.504210 1.078254

loop_
_geom_bond_atom_site_label_1
_geom_bond_atom_site_label_2
_ccdc_geom_bond_type
N1    N2    D    
C8    O15   A    
C17   C19   A    
C31   C33   A    
C1    O10   A    
C24   H7    S    
C9    C11   D    
C14   C16   A    
C31   N4    A    
C2    C33   A    
C9    C26   S    
H9    O4    S    
O10   Zn2   S    
C34   N5    S    
C1    C14   S    
N4    Zn1   S    
C10   C25   S    
O1    Zn1   S    
C12   C15   S    
C27   O5    D    
O13   Zn2   S    
C21   N2    S    
C26   O3    D    
C12   O9    A    
C3    C27   S    
C30   C32   A    
N5    N6    D    
C5    N3    A    
O9    Zn2   S    
C32   C34   A    
C6    H3    S    
C25   O16   D    
C19   H4    S    
C24   C29   A    
Br8   C31   S    
Br9   C30   S    
H2    O8    S    
O12   Zn1   S    
C4    C28   S    
C18   H5    S    
C10   C13   D    
C27   O6    S    
C21   C24   A    
C6    N4    A    
O15   Zn1   S    
C22   H6    S    
C2    C4    A    
Br1   C13   S    
C8    O13   A    
C11   C13   S    
C3    C5    A    
C7    O14   A    
C4    C6    A    
Br3   C11   S    
C5    H1    S    
C12   O11   A    
O11   Zn1   S    
Br4   C17   S    
C30   N3    A    
Br10  C33   S    
N3    Zn2   S    
C28   O8    S    
C1    O1    A    
H10   O6    S    
C15   C17   A    
C20   N1    S    
C16   C18   A    
C14   C23   A    
Br6   C23   S    
C22   C23   A    
C18   C20   A    
C19   C21   A    
H8    O2    S    
C15   C29   A    
C20   C22   A    
Br2   C32   S    
C7    C9    S    
C25   O2    S    
C8    C10   S    
Br5   C16   S    
C2    N6    S    
C28   O7    D    
C7    O12   A    
O14   Zn2   S    
Br7   C29   S    
C26   O4    S    
C3    C34   A    
