data_mof_unit_41581.cif
_audit_creation_date              2013-03-05T16:30:49-0500
_audit_creation_method            fapswitch 2.2
_symmetry_space_group_name_H-M    P1
_symmetry_Int_Tables_number       1
_space_group_crystal_system       triclinic
_cell_length_a                    11.046976
_cell_length_b                    10.899985
_cell_length_c                    9.555798
_cell_angle_alpha                 91.156851
_cell_angle_beta                  102.402434
_cell_angle_gamma                 90.243604
_cell_volume                      1123.50691018

loop_
_atom_site_label
_atom_site_type_symbol
_atom_site_description
_atom_site_fract_x
_atom_site_fract_y
_atom_site_fract_z
_atom_type_partial_charge
O1    O     O_R   0.500000 0.319640 0.618810 -0.566205
O2    O     O_R   0.500010 0.319680 0.381230 -0.585224
C1    C     C_R   0.498139 0.262955 0.498199 0.812201
O3    O     O_R   0.320680 0.500000 0.575130 -0.594893
O4    O     O_R   0.320690 0.500040 0.337550 -0.587523
C2    C     C_R   0.262866 0.498176 0.442102 0.836741
Cu1   Cu    Cu3+1 0.499990 0.499980 0.640670 0.988667
Cu2   Cu    Cu3+1 0.500010 0.500020 0.359330 0.984258
O5    O     O_R   0.499990 0.680320 0.618770 -0.585546
O6    O     O_R   0.500000 0.680360 0.381190 -0.591229
O7    O     O_R   0.679310 0.499960 0.662450 -0.563087
O8    O     O_R   0.679320 0.500000 0.424870 -0.562810
C3    C     C_R   0.499630 0.737622 0.500754 0.824914
C4    C     C_R   0.737067 0.498581 0.558045 0.898253
H1    H     H_    0.883684 0.463023 0.376758 0.218764
H2    H     H_    0.117103 0.495502 0.628182 0.172434
C5    C     C_2   0.128078 0.490965 0.410001 -0.292019
C6    C     C_2   0.067519 0.488891 0.516843 -0.148644
H3    H     H_    0.921343 0.512023 0.701702 0.156494
C7    C     C_2   0.871873 0.497236 0.591299 -0.313817
C8    C     C_2   0.933108 0.480656 0.486475 -0.061881
H4    H     H_    0.078236 0.485838 0.298810 0.191622
C9    C     C_R   0.503659 0.066554 0.619419 0.057865
C10   C     C_R   0.493181 0.130827 0.494302 -0.095439
C11   C     C_R   0.478392 0.062104 0.365112 -0.177593
H5    H     H_    0.467679 0.107214 0.263275 0.172018
C12   C     C_R   0.478656 0.933091 0.367243 -0.166488
H6    H     H_    0.467084 0.883013 0.266251 0.156242
C13   C     C_R   0.495168 0.870746 0.498656 -0.061360
C14   C     C_R   0.506214 0.942840 0.622487 0.073526
C15   C     C_3   0.535607 0.942399 0.782537 -0.541304
C16   C     C_3   0.530474 0.083156 0.777912 0.184117
H7    H     H_    0.459456 0.901527 0.826227 0.172533
H8    H     H_    0.630448 0.907856 0.825755 0.238719
H9    H     H_    0.452517 0.124389 0.818926 0.096618
C17   C     C_R   0.600520 0.543478 0.099837 0.223913
N1    N     N_R   0.500780 0.500930 0.148120 -0.221159
C18   C     C_R   0.407168 0.444962 0.050012 -0.061527
H10   H     H_    0.330968 0.402028 0.085579 0.145505
C19   C     C_R   0.407201 0.444895 0.901283 -0.047801
H11   H     H_    0.331054 0.401817 0.825955 0.132137
N2    N     N_R   0.500790 0.500890 0.852210 -0.185866
C20   C     C_R   0.600165 0.543427 0.951954 0.288062
C21   C     C_3   0.648992 0.670708 0.959651 -0.573105
C22   C     C_3   0.650503 0.671722 0.118805 0.112561
H12   H     H_    0.741022 0.676595 0.930719 0.243716
H13   H     H_    0.577154 0.730657 0.899993 0.183358
H14   H     H_    0.585621 0.738688 0.151421 0.118564
N3    N     N_R   0.650562 0.142673 0.834582 0.164955
O9    O     O_R   0.748596 0.111653 0.787467 -0.337765
O10   O     O_R   0.659240 0.229527 0.931650 -0.353892
N4    N     N_R   0.775618 0.678743 0.208586 0.159192
O11   O     O_R   0.798044 0.751367 0.320996 -0.339298
O12   O     O_R   0.866079 0.616647 0.174935 -0.392473

loop_
_geom_bond_atom_site_label_1
_geom_bond_atom_site_label_2
_geom_bond_distance
_ccdc_geom_bond_type
O4    Cu2   1.946884 S    
C18   C19   1.421289 A    
C9    C10   1.381559 A    
C15   H7    1.111592 S    
C10   C11   1.409550 A    
C13   C14   1.390045 A    
C5    H4    1.086866 S    
C11   C12   1.406805 A    
C6    C8    1.452492 S    
C9    C14   1.349673 A    
C15   C16   1.536709 S    
C21   H13   1.098585 S    
H1    C8    1.085972 S    
Cu2   O8    1.945008 S    
C9    C16   1.486627 S    
C19   N2    1.369592 A    
C5    C6    1.335891 D    
C15   H8    1.110765 S    
C17   C22   1.493971 S    
H2    C6    1.087852 S    
N4    O11   1.300585 A    
Cu1   O7    1.946886 S    
C1    C10   1.440424 S    
O4    C2    1.296709 A    
O3    Cu1   1.945007 S    
C3    C13   1.452499 S    
C17   N1    1.365524 A    
N1    C18   1.369521 A    
O8    C4    1.295702 A    
O2    C1    1.292198 A    
C20   C21   1.481089 S    
C14   C15   1.493833 S    
O7    C4    1.294446 A    
C16   N3    1.464214 S    
C22   H14   1.111251 S    
C12   C13   1.417434 A    
Cu2   N1    2.020348 S    
C16   H9    1.112833 S    
C4    C7    1.454645 S    
Cu1   Cu2   2.688485 S    
C18   H10   1.081233 S    
C7    C8    1.333566 D    
O3    C2    1.293961 A    
N3    O9    1.302404 A    
N2    C20   1.362696 A    
Cu1   N2    2.019376 S    
C12   H6    1.082022 S    
Cu1   O5    1.981010 S    
C2    C5    1.455765 S    
O5    C3    1.299405 A    
C19   H11   1.081252 S    
C17   C20   1.412295 A    
C21   H12   1.111317 S    
C22   N4    1.462640 S    
O1    C1    1.292851 A    
C11   H5    1.083099 S    
O1    Cu1   1.972576 S    
Cu2   O6    1.972577 S    
O2    Cu2   1.981009 S    
C21   C22   1.517160 S    
H3    C7    1.087367 S    
N4    O12   1.301985 A    
N3    O10   1.300540 A    
O6    C3    1.291584 A    
