data_mof_unit_35351.cif
_audit_creation_date              2013-03-05T16:05:04-0500
_audit_creation_method            fapswitch 2.2
_symmetry_space_group_name_H-M    P1
_symmetry_Int_Tables_number       1
_space_group_crystal_system       triclinic
_cell_length_a                    6.923639
_cell_length_b                    23.284926
_cell_length_c                    25.816937
_cell_angle_alpha                 104.703497
_cell_angle_beta                  90.118607
_cell_angle_gamma                 90.575561
_cell_volume                      4025.56534059

loop_
_atom_site_label
_atom_site_type_symbol
_atom_site_description
_atom_site_fract_x
_atom_site_fract_y
_atom_site_fract_z
_atom_type_partial_charge
O1    O     O_R   0.505750 0.453350 0.547660 -0.589670
O2    O     O_R   0.170990 0.432220 0.437590 -0.598264
O3    O     O_R   0.005600 0.546650 0.452340 -0.598568
C1    C     C_R   0.339851 0.415187 0.417561 0.941069
O4    O     O_R   0.175720 0.446240 0.546340 -0.601104
O5    O     O_R   0.010370 0.560770 0.561860 -0.599905
C2    C     C_R   0.344579 0.434180 0.562895 0.954543
O6    O     O_R   0.500990 0.439230 0.438140 -0.599281
O7    O     O_3   0.340820 0.537560 0.504970 -0.264308
V1    V     V_3+5 0.064050 0.493030 0.499080 1.156759
O8    O     O_R   0.680940 0.567780 0.562410 -0.548122
C3    C     C_R   0.850343 0.583804 0.582941 1.020159
O9    O     O_R   0.676210 0.553760 0.453660 -0.602471
C4    C     C_R   0.845481 0.565562 0.436950 0.912682
V2    V     V_3+5 0.564640 0.506970 0.500920 1.179363
O10   O     O_3   0.837740 0.462440 0.495030 -0.283742
C5    C     C_R   0.793318 0.903500 0.139455 0.254896
C6    C     C_R   0.777200 0.865053 0.173907 0.227895
C7    C     C_R   0.923576 0.823044 0.174439 -0.107590
C8    C     C_R   0.078504 0.818609 0.138627 -0.103168
H1    H     H_    0.192132 0.786881 0.138209 0.163310
C9    C     C_R   0.090964 0.855266 0.103425 -0.099905
H2    H     H_    0.211263 0.849754 0.075913 0.164737
C10   C     C_R   0.949977 0.898081 0.103188 -0.329487
C11   C     C_R   0.957141 0.723963 0.196412 -0.143159
H3    H     H_    0.988822 0.703492 0.154800 0.113149
C12   C     C_R   0.948643 0.688298 0.232732 -0.164149
H4    H     H_    0.974971 0.641150 0.218495 0.118627
C13   C     C_R   0.900947 0.712961 0.286634 0.085911
C14   C     C_R   0.868181 0.774227 0.303901 -0.173924
H5    H     H_    0.834689 0.794457 0.345453 0.132561
C15   C     C_R   0.881240 0.810077 0.267935 -0.024579
H6    H     H_    0.859240 0.857368 0.282743 0.144702
C16   C     C_R   0.920691 0.785199 0.213406 0.193614
C17   C     C_R   0.719201 0.676107 0.356176 -0.143502
H7    H     H_    0.599351 0.704284 0.352266 0.123580
C18   C     C_R   0.704655 0.640185 0.392169 -0.161380
H8    H     H_    0.574087 0.641729 0.415491 0.133199
C19   C     C_R   0.858226 0.603382 0.398456 -0.123911
C20   C     C_R   0.025309 0.602769 0.367288 -0.153936
H9    H     H_    0.145944 0.574753 0.370886 0.127976
C21   C     C_R   0.038053 0.637743 0.330562 -0.153675
H10   H     H_    0.168266 0.636367 0.307105 0.116333
C22   C     C_R   0.885723 0.675024 0.324879 0.119005
C23   C     C_R   0.714999 0.638335 0.672187 0.439994
C24   C     C_R   0.861869 0.631825 0.633247 -0.254532
C25   C     C_R   0.025473 0.669215 0.643402 -0.305137
C26   C     C_R   0.042296 0.714328 0.690842 0.143491
C27   C     C_R   0.892843 0.722831 0.729068 0.019722
C28   C     C_R   0.728332 0.684909 0.719926 -0.016967
C29   C     C_R   0.206248 0.751451 0.700422 -0.173040
C30   C     C_R   0.222802 0.796803 0.747487 -0.192126
C31   C     C_R   0.075092 0.806225 0.785706 0.152569
C32   C     C_R   0.908233 0.769558 0.776453 0.028089
C33   C     C_R   0.757364 0.779447 0.814433 -0.016388
C34   C     C_R   0.596306 0.740770 0.805100 -0.183944
C35   C     C_R   0.580681 0.695090 0.758434 -0.184558
C36   C     C_R   0.091772 0.851991 0.832772 -0.348180
C37   C     C_R   0.941844 0.863235 0.870406 -0.229540
C38   C     C_R   0.772620 0.827305 0.861056 0.436765
H11   H     H_    0.139928 0.663401 0.613963 0.175116
H12   H     H_    0.322516 0.745236 0.671551 0.144721
H13   H     H_    0.351551 0.824611 0.753980 0.142994
H14   H     H_    0.219768 0.880169 0.839414 0.160373
H15   H     H_    0.479579 0.745053 0.833525 0.146572
H16   H     H_    0.449266 0.668729 0.752857 0.145255
C39   C     C_R   0.287778 0.170338 0.140174 -0.250530
C40   C     C_R   0.456129 0.135592 0.130971 -0.162666
C41   C     C_R   0.605468 0.148045 0.169449 -0.174068
C42   C     C_R   0.584510 0.192963 0.217268 0.121414
C43   C     C_R   0.415460 0.227551 0.225897 0.029529
C44   C     C_R   0.267628 0.216571 0.186888 0.161779
C45   C     C_R   0.728750 0.203607 0.256951 -0.165062
C46   C     C_R   0.707790 0.248736 0.304142 -0.214011
C47   C     C_R   0.541624 0.283956 0.312744 0.142384
C48   C     C_R   0.393992 0.273115 0.273675 0.032770
C49   C     C_R   0.225287 0.307882 0.282217 0.157917
C50   C     C_R   0.081084 0.297221 0.242515 -0.212974
C51   C     C_R   0.101625 0.251872 0.195442 -0.230411
C52   C     C_R   0.521152 0.329965 0.359582 -0.237097
C53   C     C_R   0.353235 0.364893 0.368707 -0.142690
C54   C     C_R   0.204718 0.352977 0.329968 -0.260546
H17   H     H_    0.172180 0.161560 0.110725 0.137014
H18   H     H_    0.735732 0.121824 0.162870 0.169049
H19   H     H_    0.858736 0.177247 0.251355 0.158004
H20   H     H_    0.822527 0.256357 0.333793 0.147716
H21   H     H_    0.636309 0.338488 0.389165 0.142390
H22   H     H_    0.075650 0.379803 0.336315 0.134089
H23   H     H_    0.951276 0.323660 0.248050 0.142239
H24   H     H_    0.986767 0.244180 0.165825 0.137144
C55   C     C_R   0.280142 0.108776 0.872112 -0.168315
H25   H     H_    0.150867 0.085718 0.879747 0.138236
C56   C     C_R   0.270313 0.142913 0.834735 -0.115707
H26   H     H_    0.134402 0.145154 0.814500 0.152334
C57   C     C_R   0.434583 0.173056 0.822878 0.163846
C58   C     C_R   0.608289 0.169185 0.850136 -0.075317
H27   H     H_    0.736192 0.192979 0.842681 0.100623
C59   C     C_R   0.618897 0.134400 0.887103 -0.163442
H28   H     H_    0.755411 0.131852 0.906910 0.124474
C60   C     C_R   0.454894 0.103644 0.898510 -0.124006
C61   C     C_R   0.560937 0.205033 0.741534 0.361922
C62   C     C_R   0.546486 0.242604 0.706716 -0.269402
H29   H     H_    0.650786 0.238482 0.674812 0.166504
C63   C     C_R   0.394508 0.283151 0.710927 0.046809
C64   C     C_R   0.256342 0.285993 0.751188 -0.109149
H30   H     H_    0.138712 0.317173 0.756012 0.108705
C65   C     C_R   0.270659 0.249752 0.786664 -0.142238
H31   H     H_    0.163639 0.254101 0.817936 0.120285
C66   C     C_R   0.422555 0.209206 0.782808 -0.075441
C67   C     C_R   0.200241 0.334313 0.653074 -0.131908
H32   H     H_    0.068733 0.315111 0.664334 0.114394
C68   C     C_R   0.188005 0.370564 0.617345 -0.161185
H33   H     H_    0.047186 0.378815 0.602568 0.128716
C69   C     C_R   0.355570 0.395481 0.600751 -0.137174
C70   C     C_R   0.535331 0.383344 0.621041 -0.138161
H34   H     H_    0.667558 0.401991 0.609576 0.130580
C71   C     C_R   0.547443 0.347232 0.656718 -0.158980
H35   H     H_    0.688101 0.339637 0.671993 0.105311
C72   C     C_R   0.380281 0.322083 0.673167 0.148779
O11   O     O_R   0.308350 0.060850 0.061810 -0.594183
O12   O     O_R   0.633860 0.053770 0.953650 -0.608924
O13   O     O_R   0.798960 0.939210 0.938150 -0.554885
C73   C     C_R   0.465127 0.065776 0.937029 0.908473
O14   O     O_R   0.638360 0.067800 0.062400 -0.593375
O15   O     O_R   0.803500 0.953330 0.047670 -0.563605
C74   C     C_R   0.469463 0.085041 0.082285 1.020827
O16   O     O_R   0.303810 0.046730 0.952290 -0.607414
O17   O     O_3   0.468430 0.962490 0.995010 -0.234943
V3    V     V_3+5 0.745300 0.006960 0.000930 1.212245
O18   O     O_R   0.132880 0.946160 0.046390 -0.575001
C75   C     C_R   0.963555 0.935262 0.063879 1.029608
O19   O     O_R   0.128380 0.932130 0.937650 -0.613300
C76   C     C_R   0.957970 0.914569 0.918223 1.001254
V4    V     V_3+5 0.244670 0.992930 0.999140 1.209834
O20   O     O_3   0.971670 0.037510 0.005000 -0.299884
N1    N     N_R   0.652320 0.948896 0.142426 0.261060
O21   O     O_R   0.470668 0.934999 0.133673 -0.368320
O22   O     O_R   0.704539 0.004507 0.156662 -0.410065
O23   O     O_3   0.563440 0.597936 0.662863 -0.756020
H36   H     H_    0.531391 0.587942 0.696897 0.302208
O24   O     O_3   0.627662 0.838806 0.898816 -0.743134
H37   H     H_    0.502289 0.835511 0.879754 0.307636
N2    N     N_R   0.610667 0.868393 0.207665 0.241041
O25   O     O_R   0.511032 0.820692 0.207596 -0.422872
O26   O     O_R   0.558674 0.918982 0.238831 -0.333981
N3    N     N_R   0.711313 0.161488 0.732769 0.224188
O27   O     O_R   0.674564 0.107699 0.736300 -0.377452
O28   O     O_R   0.877819 0.173024 0.714146 -0.413013

loop_
_geom_bond_atom_site_label_1
_geom_bond_atom_site_label_2
_geom_bond_distance
_ccdc_geom_bond_type
C33   C34   1.407533 A    
C39   H17   1.084290 S    
C56   H26   1.083459 S    
C12   C13   1.405498 A    
C45   C46   1.401252 A    
C57   C58   1.407349 A    
O16   V4    1.990193 S    
C35   H16   1.081072 S    
C1    O6    1.293981 A    
O17   V3    2.156117 S    
C68   C69   1.407410 A    
C69   C70   1.408114 A    
C23   C24   1.413385 A    
C64   C65   1.398006 A    
C61   C62   1.408510 A    
C49   C54   1.410399 A    
C2    C69   1.490335 S    
C6    N2    1.437573 S    
C17   C18   1.402326 A    
C18   H8    1.083036 S    
C39   C44   1.406220 A    
C52   H21   1.084318 S    
C41   C42   1.409766 A    
C71   C72   1.406203 A    
O5    C3    1.295272 A    
C14   H5    1.083133 S    
O11   C74   1.294147 A    
C61   C66   1.420000 A    
C27   C32   1.418883 A    
C23   O23   1.381350 S    
C34   C35   1.393271 A    
C6    C7    1.418030 A    
C24   C25   1.404588 A    
C67   H32   1.082770 S    
C68   H33   1.082802 S    
C51   H24   1.083625 S    
C4    C19   1.487958 S    
V3    O20   1.706600 S    
O8    V2    2.001038 S    
C26   C29   1.402684 A    
C1    C53   1.491212 S    
C7    C8    1.404969 A    
C40   C41   1.408359 A    
C70   C71   1.398838 A    
C58   C59   1.401992 A    
C65   H31   1.083320 S    
C42   C43   1.413197 A    
O1    V2    1.984387 S    
C55   C60   1.408368 A    
C47   C52   1.405748 A    
O13   V3    1.992476 S    
C11   C16   1.406934 A    
C63   C72   1.493914 S    
C33   C38   1.420556 A    
C20   C21   1.400289 A    
C37   C38   1.416888 A    
C56   C57   1.405110 A    
O9    C4    1.300362 A    
C65   C66   1.407105 A    
O18   V4    1.983542 S    
C29   H12   1.083803 S    
C21   C22   1.403516 A    
C42   C45   1.403642 A    
C63   C64   1.403692 A    
C53   C54   1.408456 A    
N3    O28   1.301521 A    
C50   H23   1.083571 S    
C36   H14   1.084348 S    
C61   N3    1.438395 S    
C5    C10   1.419880 A    
C46   C47   1.404646 A    
C39   C40   1.411448 A    
C48   C49   1.413424 A    
C3    C24   1.484578 S    
C57   C66   1.492911 S    
C19   C20   1.408659 A    
O4    C2    1.301466 A    
C50   C51   1.401597 A    
C52   C53   1.411184 A    
C11   H3    1.082846 S    
C49   C50   1.403803 A    
C7    C16   1.496224 S    
C29   C30   1.396535 A    
C17   H7    1.083246 S    
C15   C16   1.408110 A    
O2    C1    1.303556 A    
C47   C48   1.409669 A    
O13   C76   1.292707 A    
O5    V1    1.992369 S    
C13   C14   1.403364 A    
O17   V4    1.702428 S    
C38   O24   1.380658 S    
C55   C56   1.399213 A    
C34   H15   1.080982 S    
O15   C75   1.294973 A    
C73   O16   1.296120 A    
C25   C26   1.400327 A    
C31   C36   1.401805 A    
C58   H27   1.083145 S    
C5    N1    1.433913 S    
C5    C6    1.416891 A    
C46   H20   1.083634 S    
C62   C63   1.406692 A    
C17   C22   1.406002 A    
C45   H19   1.083596 S    
O3    C4    1.295212 A    
N1    O22   1.300382 A    
C26   C27   1.411734 A    
C8    C9    1.398053 A    
C59   H28   1.083004 S    
O6    V2    1.998601 S    
C59   C60   1.407498 A    
O9    V2    1.983476 S    
C13   C22   1.485796 S    
C9    C10   1.403351 A    
C11   C12   1.402448 A    
C21   H10   1.083309 S    
O2    V1    1.989498 S    
C40   C74   1.491803 S    
C55   H25   1.083074 S    
C30   C31   1.402293 A    
O14   C74   1.303641 A    
N3    O27   1.301319 A    
O7    V1    2.156180 S    
N2    O26   1.301223 A    
C32   C33   1.414232 A    
C20   H9    1.083148 S    
O1    C2    1.296186 A    
C28   C35   1.406788 A    
O12   V3    1.990389 S    
N1    O21   1.300417 A    
C30   H13   1.083818 S    
C67   C72   1.408364 A    
C25   H11   1.084601 S    
O23   H36   0.989448 S    
C31   C32   1.412847 A    
V4    O20   2.152669 S    
C44   C51   1.404732 A    
C64   H30   1.082731 S    
C60   C73   1.489137 S    
C15   H6    1.082524 S    
O18   C75   1.302697 A    
C36   C37   1.403780 A    
O4    V1    1.990296 S    
C18   C19   1.406941 A    
C41   H18   1.083567 S    
V1    O10   1.706609 S    
C71   H35   1.082806 S    
C14   C15   1.399810 A    
C10   C75   1.494345 S    
C70   H34   1.082875 S    
C43   C48   1.417318 A    
C23   C28   1.422182 A    
C54   H22   1.084181 S    
V2    O10   2.152691 S    
C37   C76   1.487582 S    
O14   V3    1.989541 S    
O19   C76   1.301755 A    
O11   V4    1.999355 S    
O7    V2    1.704327 S    
C62   H29   1.082979 S    
C67   C68   1.402460 A    
O12   C73   1.300943 A    
O15   V3    1.987693 S    
C43   C44   1.409623 A    
C8    H1    1.082825 S    
O19   V4    2.000894 S    
C27   C28   1.416215 A    
C12   H4    1.083052 S    
O3    V1    1.987870 S    
C9    H2    1.083065 S    
O24   H37   0.989583 S    
N2    O25   1.301239 A    
O8    C3    1.297723 A    
