data_mof_unit_51880.cif
_audit_creation_date              2012-12-10T22:11:07-0500
_audit_creation_method            fapswitch 2.2
_symmetry_space_group_name_H-M    P1
_symmetry_Int_Tables_number       1
_space_group_crystal_system       triclinic
_cell_length_a                    12.094301
_cell_length_b                    12.359911
_cell_length_c                    23.003479
_cell_angle_alpha                 89.022236
_cell_angle_beta                  90.382433
_cell_angle_gamma                 89.914109
_cell_volume                      3438.08143244

loop_
_atom_site_label
_atom_site_type_symbol
_atom_type_description
_atom_site_fract_x
_atom_site_fract_y
_atom_site_fract_z
_atom_type_partial_charge
C1    C     C_R   0.658713 0.996783 0.577908 0.859658
C2    C     C_R   0.086841 0.849095 0.806665 -0.208466
C3    C     C_R   0.913498 0.237070 0.154684 -0.226042
C4    C     C_R   0.086502 0.762930 0.845316 -0.226042
C5    C     C_R   0.097775 0.915220 0.337056 -0.107237
C6    C     C_R   0.902225 0.084780 0.662944 -0.107237
C7    C     C_R   0.177003 0.919898 0.380281 -0.177679
C8    C     C_R   0.822997 0.080102 0.619719 -0.177679
C9    C     C_R   0.881933 0.086020 0.317804 -0.239095
C10   C     C_R   0.118067 0.913980 0.682196 -0.239094
C11   C     C_R   0.804323 0.093650 0.361671 -0.014394
C12   C     C_R   0.341287 0.003217 0.422092 0.859657
C13   C     C_R   0.195677 0.906350 0.638329 -0.014394
C14   C     C_3   0.001808 0.988132 0.246993 -0.077904
C15   C     C_3   0.998192 0.011867 0.753007 -0.077904
C16   C     C_R   0.654930 0.002509 0.420557 0.866935
C17   C     C_R   0.345070 0.997491 0.579443 0.866935
C18   C     C_R   0.094170 0.994221 0.292070 0.171111
C19   C     C_R   0.905830 0.005779 0.707930 0.171111
C20   C     C_R   0.250916 0.006181 0.381067 -0.007238
C21   C     C_R   0.749084 0.993819 0.618933 -0.007237
C22   C     C_R   0.897467 0.990279 0.285881 0.031810
C23   C     C_R   0.905538 0.808306 0.126693 -0.180646
C24   C     C_R   0.102533 0.009721 0.714119 0.031810
C25   C     C_R   0.737254 0.003522 0.374400 -0.119000
C26   C     C_R   0.262746 0.996478 0.625599 -0.118999
C27   C     C_R   0.007001 0.083940 0.201823 0.037533
C28   C     C_R   0.992999 0.916060 0.798177 0.037532
C29   C     C_R   0.004269 0.256081 0.119420 -0.087122
C30   C     C_R   0.995731 0.743919 0.880580 -0.087122
C31   C     C_R   0.001532 0.888527 0.209076 0.088252
C32   C     C_R   0.998468 0.111473 0.790924 0.088252
C33   C     C_R   0.989094 0.732341 0.123297 -0.066132
C34   C     C_R   0.094462 0.191694 0.873307 -0.180646
C35   C     C_R   0.010906 0.267658 0.876703 -0.066132
C36   C     C_R   0.991980 0.658435 0.076133 0.886515
C37   C     C_R   0.008020 0.341565 0.923867 0.886515
C38   C     C_R   0.000275 0.348153 0.079263 0.894544
C39   C     C_R   0.999725 0.651847 0.920737 0.894544
C40   C     C_R   0.159176 0.088101 0.298598 -0.185349
C41   C     C_R   0.840824 0.911898 0.701402 -0.185349
C42   C     C_R   0.239006 0.092787 0.341919 -0.201523
C43   C     C_R   0.760994 0.907213 0.658081 -0.201524
C44   C     C_R   0.831313 0.898128 0.301538 0.151281
C45   C     C_R   0.084223 0.805240 0.206692 0.191213
C46   C     C_R   0.168687 0.101871 0.698462 0.151282
C47   C     C_R   0.749752 0.908888 0.342937 -0.215041
C48   C     C_R   0.250248 0.091112 0.657062 -0.215041
C49   C     C_R   0.098148 0.099202 0.162398 -0.032821
C50   C     C_R   0.901852 0.900798 0.837602 -0.032821
C51   C     C_R   0.095070 0.184274 0.120793 0.111821
C52   C     C_R   0.904930 0.815726 0.879207 0.111821
C53   C     C_R   0.911328 0.885019 0.169183 -0.146593
C54   C     C_R   0.088672 0.114981 0.830817 -0.146593
C55   C     C_R   0.193918 0.024281 0.158523 0.125813
C56   C     C_R   0.915777 0.194760 0.793308 0.191214
C57   C     C_R   0.192457 0.944071 0.115766 -0.109723
C58   C     C_R   0.288126 0.885581 0.103146 -0.103085
C59   C     C_R   0.387366 0.908932 0.131634 -0.068438
C60   C     C_R   0.391249 0.991637 0.172234 -0.087171
C61   C     C_R   0.295640 0.050284 0.184898 -0.091460
C62   C     C_R   0.806082 0.975719 0.841477 0.125813
C63   C     C_R   0.704360 0.949716 0.815102 -0.091460
C64   C     C_R   0.608751 0.008363 0.827766 -0.087171
C65   C     C_R   0.612634 0.091068 0.868366 -0.068437
C66   C     C_R   0.711874 0.114419 0.896854 -0.103085
C67   C     C_R   0.074103 0.727596 0.164335 -0.191203
C68   C     C_R   0.807543 0.055929 0.884234 -0.109723
C69   C     C_R   0.801859 0.194977 0.394905 0.149726
C70   C     C_R   0.842169 0.196879 0.452287 -0.112536
C71   C     C_R   0.844573 0.294168 0.482467 -0.133725
C72   C     C_R   0.806874 0.389730 0.455625 -0.110397
C73   C     C_R   0.767277 0.388388 0.398420 -0.123424
C74   C     C_R   0.765257 0.291461 0.367971 -0.146625
C75   C     C_R   0.198141 0.805023 0.605095 0.149726
C76   C     C_R   0.234743 0.708539 0.632029 -0.146625
C77   C     C_R   0.232723 0.611612 0.601580 -0.123424
C78   C     C_R   0.925897 0.272404 0.835665 -0.191203
C79   C     C_R   0.193126 0.610270 0.544375 -0.110398
C80   C     C_R   0.155427 0.705831 0.517533 -0.133725
C81   C     C_R   0.157831 0.803120 0.547713 -0.112536
C82   C     C_R   0.913159 0.150905 0.193335 -0.208466
H1    H     H_    0.292607 0.162779 0.344037 0.155880
H2    H     H_    0.064204 0.845168 0.689766 0.165497
H3    H     H_    0.698682 0.839185 0.352970 0.197716
H4    H     H_    0.301318 0.160815 0.647030 0.197716
H5    H     H_    0.838077 0.810669 0.095461 0.181460
H6    H     H_    0.161923 0.189330 0.904539 0.181461
H7    H     H_    0.136751 0.665124 0.161366 0.181896
H8    H     H_    0.863249 0.334876 0.838634 0.181896
H9    H     H_    0.840828 0.288366 0.151759 0.172933
H10   H     H_    0.159172 0.711633 0.848241 0.172933
H11   H     H_    0.182384 0.854605 0.412091 0.149530
H12   H     H_    0.707393 0.837221 0.655963 0.155880
H13   H     H_    0.817616 0.145395 0.587909 0.149530
H14   H     H_    0.149165 0.158729 0.270783 0.141007
H15   H     H_    0.850835 0.841270 0.729217 0.141007
H16   H     H_    0.117502 0.928764 0.091268 0.145282
H17   H     H_    0.285547 0.823234 0.070697 0.146286
H18   H     H_    0.461585 0.864130 0.121601 0.139624
H19   H     H_    0.468907 0.011925 0.192978 0.131411
H20   H     H_    0.302779 0.119225 0.212907 0.127179
H21   H     H_    0.697221 0.880775 0.787093 0.127179
H22   H     H_    0.531092 0.988075 0.807022 0.131411
H23   H     H_    0.845386 0.944284 0.170241 0.156666
H24   H     H_    0.538415 0.135870 0.878399 0.139624
H25   H     H_    0.714453 0.176766 0.929303 0.146286
H26   H     H_    0.882498 0.071236 0.908732 0.145282
H27   H     H_    0.872392 0.123409 0.473302 0.109618
H28   H     H_    0.876398 0.295836 0.526507 0.133715
H29   H     H_    0.808925 0.464923 0.479042 0.137466
H30   H     H_    0.738761 0.462570 0.377561 0.156726
H31   H     H_    0.735427 0.291468 0.323462 0.132053
H32   H     H_    0.264573 0.708532 0.676538 0.132053
H33   H     H_    0.261239 0.537430 0.622439 0.156726
H34   H     H_    0.154613 0.055716 0.829759 0.156666
H35   H     H_    0.191075 0.535076 0.520958 0.137466
H36   H     H_    0.123602 0.704164 0.473493 0.133715
H37   H     H_    0.127608 0.876591 0.526698 0.109618
H38   H     H_    0.835856 0.136660 0.215212 0.159841
H39   H     H_    0.164144 0.863340 0.784788 0.159841
H40   H     H_    0.043082 0.846225 0.336867 0.170380
H41   H     H_    0.956918 0.153775 0.663133 0.170380
H42   H     H_    0.935795 0.154832 0.310234 0.165497
I1    I     I_    0.849153 0.729969 0.280928 -0.436142
I2    I     I_    0.150847 0.270031 0.719072 -0.436142
I3    I     I_    0.238635 0.782610 0.251747 -0.407023
I4    I     I_    0.761365 0.217390 0.748253 -0.407024
I5    I     I_    0.223218 0.192898 0.055071 -0.388966
I6    I     I_    0.776782 0.807102 0.944929 -0.388967
O1    O     O_R   0.621380 0.090460 0.561410 -0.611935
O2    O     O_R   0.912410 0.372520 0.941210 -0.639752
O3    O     O_R   0.905660 0.383870 0.059980 -0.629314
O4    O     O_R   0.094340 0.616130 0.940020 -0.629314
O5    O     O_R   0.092570 0.390420 0.063230 -0.590605
O6    O     O_R   0.907430 0.609580 0.936770 -0.590606
O7    O     O_R   0.900680 0.620930 0.055550 -0.600871
O8    O     O_R   0.099320 0.379070 0.944450 -0.600871
O9    O     O_R   0.378620 0.909540 0.438590 -0.611935
O10   O     O_R   0.617150 0.909540 0.438590 -0.621917
O11   O     O_R   0.382850 0.090460 0.561410 -0.621917
O12   O     O_R   0.619720 0.093230 0.440890 -0.613710
O13   O     O_R   0.380280 0.906770 0.559110 -0.613710
O14   O     O_R   0.618800 0.906770 0.559110 -0.629184
O15   O     O_R   0.381200 0.093230 0.440890 -0.629184
O16   O     O_R   0.087590 0.627480 0.058790 -0.639752
Zn1   Zn    Zn3+2 0.501730 0.123520 0.501540 0.979523
Zn2   Zn    Zn3+2 0.498270 0.876480 0.498460 0.979523
Zn3   Zn    Zn3+2 0.125690 0.504390 0.002180 1.001587
Zn4   Zn    Zn3+2 0.874310 0.495610 0.997820 1.001587

loop_
_geom_bond_atom_site_label_1
_geom_bond_atom_site_label_2
_ccdc_geom_bond_type
C66   C68   A    
C1    C21   S    
O2    Zn4   S    
C73   C74   A    
C14   C18   S    
C16   O12   A    
C82   H38   S    
C66   H25   S    
O14   Zn2   S    
O10   Zn2   S    
C51   I5    S    
C15   C32   S    
C78   H8    S    
C15   C19   S    
C6    C19   A    
C19   C41   A    
C17   C26   S    
C47   H3    S    
C3    H9    S    
C35   C37   S    
C9    C22   A    
C11   C25   A    
C71   H28   S    
C79   H35   S    
C67   H7    S    
C33   C36   S    
C56   C78   A    
C23   C33   A    
C17   O11   A    
C34   C35   A    
C38   O3    A    
C3    C29   A    
C18   C40   A    
C30   C52   A    
C21   C43   A    
C28   C50   A    
C22   C44   A    
C13   C75   S    
C49   C51   A    
C54   H34   S    
C29   C38   S    
C45   C67   A    
C76   H32   S    
O1    Zn1   S    
C70   C71   A    
C14   C27   S    
C36   O7    A    
C14   C31   S    
C44   C47   A    
C26   C48   A    
C72   C73   A    
C40   C42   A    
C72   H29   S    
C59   C60   A    
C23   H5    S    
C59   H18   S    
C41   C43   A    
C16   O10   A    
C8    H13   S    
C6    H41   S    
C40   H14   S    
C32   C54   A    
O15   Zn1   S    
C23   C53   A    
C46   C48   A    
C39   O6    A    
C77   C79   A    
O8    Zn3   S    
O13   Zn2   S    
C7    H11   S    
C80   H36   S    
O9    Zn2   S    
C58   H17   S    
C76   C77   A    
C63   H21   S    
C5    C7    A    
C75   C81   A    
C6    C8    A    
C5    C18   A    
C10   C24   A    
C58   C59   A    
C49   C55   S    
C74   H31   S    
C5    H40   S    
C7    C20   A    
C63   C64   A    
C60   C61   A    
C12   O15   A    
C2    C4    A    
C75   C76   A    
C62   C63   A    
C70   H27   S    
O16   Zn3   S    
C50   C52   A    
C12   C20   S    
C3    C82   A    
C8    C21   A    
C12   O9    A    
C20   C42   A    
C69   C74   A    
C34   H6    S    
C38   O5    A    
C31   C53   A    
C9    C11   A    
C36   O16   A    
C15   C24   S    
C34   C54   A    
C37   O8    A    
C55   C57   A    
C50   C62   S    
C41   H15   S    
C13   C26   A    
C15   C28   S    
C60   H19   S    
C65   H24   S    
C33   C67   A    
C73   H30   S    
C29   C51   A    
C2    H39   S    
C16   C25   S    
C64   H22   S    
C25   C47   A    
O12   Zn1   S    
C46   I2    S    
C27   C82   A    
O3    Zn4   S    
C80   C81   A    
C1    O1    A    
C10   C13   A    
O6    Zn4   S    
C44   I1    S    
C11   C69   S    
C81   H37   S    
C35   C78   A    
C37   O2    A    
C62   C68   A    
C17   O13   A    
C24   C46   A    
C64   C65   A    
C14   C22   S    
C61   H20   S    
C42   H1    S    
C52   I6    S    
C71   C72   A    
C1    O14   A    
O5    Zn3   S    
O4    Zn3   S    
C57   C58   A    
C45   I3    S    
C57   H16   S    
C55   C61   A    
C10   H2    S    
C30   C39   S    
C48   H4    S    
C9    H42   S    
C56   I4    S    
C69   C70   A    
O7    Zn4   S    
O11   Zn1   S    
C79   C80   A    
C53   H23   S    
C43   H12   S    
C65   C66   A    
C31   C45   A    
C2    C28   A    
C68   H26   S    
C77   H33   S    
C32   C56   A    
C4    C30   A    
C27   C49   A    
C4    H10   S    
C39   O4    A    
