data_mof_unit_16331.cif
_audit_creation_date              2012-12-11T14:58:24-0500
_audit_creation_method            fapswitch 2.2
_symmetry_space_group_name_H-M    P1
_symmetry_Int_Tables_number       1
_space_group_crystal_system       triclinic
_cell_length_a                    10.934766
_cell_length_b                    11.042227
_cell_length_c                    18.605513
_cell_angle_alpha                 90.085911
_cell_angle_beta                  89.961373
_cell_angle_gamma                 59.420233
_cell_volume                      1934.06199711

loop_
_atom_site_label
_atom_site_type_symbol
_atom_type_description
_atom_site_fract_x
_atom_site_fract_y
_atom_site_fract_z
_atom_type_partial_charge
C1    C     C_R   0.355918 0.778071 0.399005 0.544649
C2    C     C_R   0.598088 0.054032 0.198672 0.085651
C3    C     C_R   0.324245 0.262916 0.181198 0.027230
C4    C     C_R   0.426506 0.173019 0.298191 -0.116347
C5    C     C_R   0.445901 0.160678 0.224033 0.011732
C6    C     C_R   0.102515 0.659316 0.307599 0.091234
C7    C     C_R   0.014083 0.778314 0.349159 -0.051030
C8    C     C_R   0.621131 0.967828 0.139731 -0.111855
C9    C     C_R   0.749892 0.892648 0.103930 -0.064376
C10   C     C_R   0.206820 0.374097 0.216805 -0.094106
C11   C     C_R   0.213117 0.399034 0.289573 -0.002615
C12   C     C_R   0.377720 0.345872 0.393614 0.544487
C13   C     C_R   0.934319 0.771538 0.406003 -0.052293
C14   C     C_R   0.941780 0.645116 0.422276 -0.103314
C15   C     C_R   0.028298 0.525548 0.381382 -0.103238
C16   C     C_R   0.106017 0.532112 0.322781 0.084739
C17   C     C_R   0.331155 0.303287 0.328931 -0.003542
C18   C     C_R   0.674307 0.357016 0.268609 -0.042781
C19   C     C_R   0.720257 0.334127 0.196631 0.217888
C20   C     C_R   0.815978 0.374946 0.174875 -0.000626
C21   C     C_R   0.823571 0.477792 0.217087 -0.044295
C22   C     C_R   0.797663 0.481017 0.289325 -0.156888
C23   C     C_R   0.708213 0.419253 0.395139 0.576728
C24   C     C_R   0.734559 0.409173 0.317485 -0.046076
C25   C     C_R   0.452595 0.791556 0.282824 -0.098103
C26   C     C_R   0.432354 0.831533 0.211380 -0.097996
C27   C     C_R   0.299119 0.938021 0.188337 0.006206
C28   C     C_R   0.188490 0.009279 0.238323 -0.166525
C29   C     C_R   0.207995 0.965199 0.309862 -0.165429
C30   C     C_R   0.338895 0.851359 0.331268 0.017338
C31   C     C_R   0.404459 0.180502 0.692077 -0.106510
C32   C     C_R   0.381694 0.159245 0.762788 -0.113858
C33   C     C_R   0.268439 0.266614 0.801739 0.018986
C34   C     C_R   0.369969 0.707001 0.611606 0.568000
C35   C     C_R   0.163920 0.385250 0.764720 -0.143685
C36   C     C_R   0.185687 0.405004 0.692339 -0.148028
C37   C     C_R   0.313610 0.309432 0.658389 0.018286
C38   C     C_R   0.774279 0.463881 0.729144 -0.144945
C39   C     C_R   0.771508 0.459535 0.802491 -0.134585
C40   C     C_R   0.810433 0.333101 0.837013 0.012067
C41   C     C_R   0.828404 0.217237 0.797274 -0.092406
C42   C     C_R   0.820802 0.223444 0.722143 -0.011710
C43   C     C_R   0.797005 0.348090 0.687492 -0.010115
C44   C     C_R   0.238919 0.741476 0.730156 -0.002065
C45   C     C_R   0.366782 0.347285 0.594522 0.530060
C46   C     C_R   0.232921 0.769203 0.803118 -0.138346
C47   C     C_R   0.323707 0.808062 0.833953 0.021791
C48   C     C_R   0.437285 0.797812 0.794799 -0.152991
C49   C     C_R   0.449952 0.764431 0.722711 -0.157481
C50   C     C_R   0.349813 0.740114 0.688426 0.027602
C51   C     C_R   0.900829 0.322976 0.108897 0.548667
C52   C     C_R   0.304244 0.254836 0.102552 0.558647
C53   C     C_R   0.269542 0.965818 0.111958 0.531063
C54   C     C_R   0.876998 0.311997 0.906827 0.551050
C55   C     C_R   0.266729 0.251276 0.880294 0.563750
C56   C     C_R   0.761676 0.377152 0.611339 0.526331
C57   C     C_R   0.280690 0.886986 0.900432 0.565558
C58   C     C_R   0.868751 0.888693 0.131653 0.254723
C59   C     C_R   0.856993 0.958384 0.196069 0.009335
C60   C     C_R   0.725796 0.032601 0.232191 0.240624
Cr1   Cr    Cr6+3 0.601770 0.606860 0.505860 0.996869
Cr2   Cr    Cr6+3 0.291380 0.601660 0.495070 1.046157
Cr3   Cr    Cr6+3 0.606880 0.291510 0.499120 1.059396
Cr4   Cr    Cr6+3 0.062440 0.063090 0.008210 1.092803
Cr5   Cr    Cr6+3 0.062880 0.375170 0.998920 1.051330
Cr6   Cr    Cr6+3 0.374700 0.061720 0.992470 1.008496
H1    H     H_    0.501067 0.088756 0.332364 0.193926
H2    H     H_    0.869697 0.863608 0.438773 0.155303
H3    H     H_    0.882783 0.639110 0.467480 0.139466
H4    H     H_    0.037040 0.426523 0.396110 0.118178
H5    H     H_    0.590479 0.338952 0.285607 0.209323
H6    H     H_    0.808052 0.555993 0.321675 0.199976
H7    H     H_    0.553917 0.705504 0.299052 0.136934
H8    H     H_    0.518073 0.773179 0.173615 0.131292
H9    H     H_    0.085133 0.092989 0.221132 0.120666
H10   H     H_    0.758157 0.831247 0.056782 0.118817
H11   H     H_    0.119997 0.014944 0.347259 0.138491
H12   H     H_    0.500169 0.099734 0.666045 0.167057
H13   H     H_    0.459426 0.062307 0.788403 0.140111
H14   H     H_    0.069993 0.465105 0.792315 0.130627
H15   H     H_    0.107412 0.497832 0.664222 0.148668
H16   H     H_    0.755217 0.561285 0.705390 0.143664
H17   H     H_    0.754379 0.551700 0.831956 0.140907
H18   H     H_    0.859519 0.118699 0.824187 0.172194
H19   H     H_    0.013906 0.874882 0.340510 0.133550
H20   H     H_    0.147130 0.774104 0.834843 0.142576
H21   H     H_    0.511087 0.824342 0.818540 0.126875
H22   H     H_    0.535412 0.764232 0.693303 0.140632
H23   H     H_    0.950426 0.951051 0.219679 0.110760
H24   H     H_    0.539678 0.955192 0.122714 0.160249
H25   H     H_    0.114866 0.449799 0.186884 0.186625
O1    O     O_R   0.748800 0.497470 0.428000 -0.548587
O2    O     O_R   0.300070 0.471040 0.567100 -0.504554
O3    O     O_R   0.491670 0.258900 0.574910 -0.514893
O4    O     O_R   0.718780 0.304180 0.577850 -0.509690
O5    O     O_3   0.500010 0.500010 0.500020 -0.298747
O6    O     O_R   0.186690 0.923650 0.086970 -0.415403
O7    O     O_R   0.957250 0.194250 0.084630 -0.483420
O8    O     O_R   0.934970 0.407490 0.085330 -0.558507
O9    O     O_R   0.203780 0.365190 0.067090 -0.439524
O10   O     O_R   0.417600 0.174890 0.067840 -0.475169
O11   O     O_R   0.375320 0.946260 0.070860 -0.557895
O12   O     O_R   0.476420 0.724060 0.429470 -0.514792
O13   O     O_R   0.160600 0.919630 0.926660 -0.488934
O14   O     O_R   0.933060 0.190520 0.936020 -0.491382
O15   O     O_R   0.908880 0.403460 0.925020 -0.533357
O16   O     O_R   0.179600 0.361450 0.918490 -0.473325
O17   O     O_R   0.391510 0.170860 0.907530 -0.493388
O18   O     O_R   0.351130 0.942530 0.922260 -0.527987
O19   O     O_3   0.166667 0.166667 0.999870 -0.335319
O20   O     O_R   0.264580 0.744340 0.416750 -0.518631
O21   O     O_R   0.309380 0.472470 0.418200 -0.498969
O22   O     O_R   0.501710 0.260430 0.414300 -0.478691
O23   O     O_R   0.728090 0.305600 0.428960 -0.439717
O24   O     O_R   0.738760 0.495930 0.588610 -0.527836
O25   O     O_R   0.467110 0.722640 0.578360 -0.513131
O26   O     O_R   0.254530 0.742800 0.577360 -0.445945
Cl1   Cl    Cl    0.632666 0.292984 0.130452 -0.547661
C61   C     C_2   0.827707 0.600009 0.186709 0.218008
H26   H     H_    0.797567 0.631258 0.131486 0.147760
O27   O     O_2   0.855709 0.673123 0.224385 -0.546778
C62   C     C_2   0.845012 0.097020 0.682160 0.270160
H27   H     H_    0.888940 0.076132 0.628257 0.152877
O28   O     O_2   0.815982 0.014180 0.709431 -0.504445
C63   C     C_2   0.121146 0.721803 0.704764 0.255893
H28   H     H_    0.079010 0.675933 0.741557 0.091570
O29   O     O_2   0.057622 0.770004 0.648627 -0.463878
Cl2   Cl    Cl    0.033671 0.775319 0.091936 -0.552488
Cl3   Cl    Cl    0.738716 0.075476 0.321429 -0.713200
C64   C     C_2   0.198234 0.669735 0.254360 0.277143
H29   H     H_    0.171132 0.770731 0.232647 0.138422
O30   O     O_2   0.311169 0.567871 0.236255 -0.473773

loop_
_geom_bond_atom_site_label_1
_geom_bond_atom_site_label_2
_ccdc_geom_bond_type
C33   C55   S    
C56   O4    A    
C58   Cl2   S    
Cr2   O5    S    
C41   C42   A    
Cr6   O11   S    
C35   C36   A    
Cr6   O10   S    
C6    C64   S    
C45   O2    A    
Cr1   O5    S    
Cr4   O14   S    
Cr3   O3    S    
C28   C29   A    
C26   C27   A    
C18   C24   A    
C36   C37   A    
Cr1   O12   S    
C18   C19   A    
C20   C51   S    
C38   C39   A    
C2    C60   A    
C34   O25   A    
C15   C16   A    
Cr3   O4    S    
C35   H14   S    
C18   H5    S    
C9    C58   A    
C59   H23   S    
C15   H4    S    
Cr2   O26   S    
C26   H8    S    
Cr3   O23   S    
C57   O18   A    
Cr2   O20   S    
C31   C32   A    
C19   Cl1   S    
C8    C9    A    
C12   C17   S    
Cr1   O24   S    
C23   C24   S    
C9    H10   S    
C36   H15   S    
Cr1   O1    S    
C51   O7    A    
Cr4   O7    S    
C59   C60   A    
C21   C22   A    
C38   H16   S    
C49   H22   S    
C45   O3    A    
C22   H6    S    
C44   C46   A    
C61   O27   D    
C51   O8    A    
C44   C63   S    
C52   O10   A    
C34   C50   S    
C54   O15   A    
Cr5   O8    S    
C32   H13   S    
C39   C40   A    
C53   O6    A    
C58   C59   A    
C41   H18   S    
Cr3   O5    S    
C52   O9    A    
C31   C37   A    
C55   O16   A    
C64   O30   D    
C29   C30   A    
C47   C57   S    
C11   C16   S    
Cr4   O19   S    
C47   C48   A    
C53   O11   A    
C3    C52   S    
Cr1   O25   S    
C48   H21   S    
Cr2   O21   S    
Cr6   O19   S    
C4    C17   A    
Cr4   O6    S    
C10   H25   S    
C40   C54   S    
C63   H28   S    
C14   H3    S    
C22   C24   A    
C2    C5    S    
C8    H24   S    
C42   C43   A    
C62   O28   D    
Cr5   O15   S    
C12   O21   A    
C42   C62   S    
C31   H12   S    
C12   O22   A    
C44   C50   A    
C25   C30   A    
Cr4   O13   S    
C57   O13   A    
C1    O12   A    
C46   C47   A    
C48   C49   A    
C54   O14   A    
C14   C15   A    
C2    C8    A    
Cr5   O9    S    
Cr6   O17   S    
C4    C5    A    
C3    C5    A    
C11   C17   A    
C60   Cl3   S    
C4    H1    S    
C61   H26   S    
C27   C53   S    
C6    C7    A    
C55   O17   A    
C32   C33   A    
C19   C20   A    
C64   H29   S    
C25   C26   A    
C39   H17   S    
C38   C43   A    
C21   C61   S    
C3    C10   A    
C1    O20   A    
C23   O23   A    
C7    H19   S    
C34   O26   A    
C1    C30   S    
C33   C35   A    
C56   O24   A    
C25   H7    S    
Cr6   O18   S    
Cr5   O19   S    
C10   C11   A    
C6    C16   A    
Cr3   O22   S    
C43   C56   S    
C7    C13   A    
C29   H11   S    
C20   C21   A    
C49   C50   A    
Cr2   O2    S    
C27   C28   A    
C63   O29   D    
C23   O1    A    
C40   C41   A    
C62   H27   S    
C13   C14   A    
C28   H9    S    
C37   C45   S    
Cr5   O16   S    
C46   H20   S    
C13   H2    S    
