data_mof_unit_40087.cif
_audit_creation_date              2013-03-05T16:00:37-0500
_audit_creation_method            fapswitch 2.2
_symmetry_space_group_name_H-M    P1
_symmetry_Int_Tables_number       1
_space_group_crystal_system       triclinic
_cell_length_a                    10.876281
_cell_length_b                    14.745544
_cell_length_c                    14.761929
_cell_angle_alpha                 64.941514
_cell_angle_beta                  104.942029
_cell_angle_gamma                 102.810944
_cell_volume                      2054.92038674

loop_
_atom_site_label
_atom_site_type_symbol
_atom_site_description
_atom_site_fract_x
_atom_site_fract_y
_atom_site_fract_z
_atom_type_partial_charge
O1    O     O_R   0.455060 0.022100 0.338110 -0.536031
O2    O     O_R   0.512640 0.160150 0.379180 -0.604224
C1    C     C_R   0.480476 0.119898 0.312028 0.898364
O3    O     O_R   0.288900 0.930980 0.479450 -0.592196
O4    O     O_R   0.346480 0.069030 0.520520 -0.531270
C2    C     C_R   0.259600 0.002410 0.497122 0.872039
Cu1   Cu    Cu3+1 0.465900 0.918260 0.475680 1.074871
Cu2   Cu    Cu3+1 0.534100 0.081740 0.524320 1.106472
O5    O     O_R   0.487360 0.839850 0.620820 -0.592659
O6    O     O_R   0.544940 0.977900 0.661890 -0.518129
O7    O     O_R   0.653520 0.930970 0.479480 -0.533465
O8    O     O_R   0.711100 0.069020 0.520550 -0.554734
C3    C     C_R   0.519871 0.880745 0.688097 0.898313
C4    C     C_R   0.739483 0.999894 0.498864 0.900097
C5    C     C_3   0.039198 0.910638 0.479086 -0.441238
C6    C     C_3   0.895105 0.913966 0.465394 0.177292
H1    H     H_    0.143174 0.930703 0.658618 0.212077
H2    H     H_    0.930965 0.912537 0.656401 0.253846
C7    C     C_3   0.102825 0.998566 0.596993 -0.334151
C8    C     C_3   0.068894 0.105362 0.400987 0.400923
C9    C     C_3   0.121054 0.006840 0.492617 -0.178950
C10   C     C_3   0.875680 0.002263 0.492289 -0.237152
C11   C     C_3   0.959638 0.987658 0.599164 -0.369126
C12   C     C_3   0.923569 0.108051 0.407662 0.343645
H3    H     H_    0.154944 0.063106 0.616659 0.290398
H4    H     H_    0.944017 0.039919 0.629204 0.275182
C13   C     C_R   0.474560 0.189216 0.204181 -0.018929
C14   C     C_R   0.524480 0.815120 0.797060 -0.245749
C15   C     C_R   0.464826 0.222929 0.027497 -0.071244
C16   C     C_R   0.468783 0.155055 0.128165 -0.048501
C17   C     C_R   0.480650 0.292781 0.178500 -0.128001
C18   C     C_R   0.480163 0.363867 0.077846 0.071204
C19   C     C_R   0.472921 0.327700 0.000932 0.009048
C20   C     C_R   0.488012 0.469610 0.052222 0.025982
C21   C     C_R   0.498468 0.538177 0.951458 0.058765
C22   C     C_R   0.481287 0.499897 0.875669 -0.180389
C23   C     C_R   0.471137 0.396670 0.899178 0.328188
C24   C     C_R   0.483019 0.509229 0.123218 -0.206150
C25   C     C_R   0.483046 0.612019 0.095408 0.385613
C26   C     C_R   0.496607 0.679957 0.996189 -0.068617
C27   C     C_R   0.517090 0.644092 0.926882 -0.015928
C28   C     C_R   0.491147 0.783197 0.964923 -0.135763
C29   C     C_R   0.492892 0.848930 0.864029 0.292913
C30   C     C_R   0.557559 0.716016 0.835747 0.225881
H5    H     H_    0.470571 0.076297 0.146387 0.220890
H6    H     H_    0.470542 0.462411 0.200062 0.156083
N1    N     N_R   0.585360 0.204570 0.560800 -0.246172
N2    N     N_R   0.414550 0.795430 0.439160 -0.267849
C31   C     C_R   0.721102 0.289650 0.665118 -0.224835
C32   C     C_R   0.686316 0.206257 0.638531 0.565484
C33   C     C_R   0.517465 0.285107 0.509176 0.028402
C34   C     C_R   0.545841 0.370566 0.536778 -0.002902
C35   C     C_R   0.651601 0.371216 0.615521 0.080384
C36   C     C_R   0.473797 0.454587 0.490150 0.114570
C37   C     C_R   0.511401 0.538339 0.521613 0.140029
C38   C     C_R   0.618846 0.534390 0.600068 -0.102347
C39   C     C_R   0.687353 0.452558 0.645667 -0.046575
C40   C     C_R   0.364812 0.457098 0.413888 -0.137587
C41   C     C_R   0.295730 0.538335 0.368354 0.012364
C42   C     C_R   0.333380 0.622399 0.394902 -0.011177
C43   C     C_R   0.441438 0.623820 0.472347 -0.035029
C44   C     C_R   0.267668 0.707245 0.341110 0.192788
C45   C     C_R   0.314312 0.795010 0.360710 0.410708
C46   C     C_R   0.475638 0.711887 0.495507 0.014878
H7    H     H_    0.442492 0.280783 0.446962 0.167290
H8    H     H_    0.070915 0.842605 0.546026 0.231273
N3    N     N_R   0.916282 0.192249 0.436204 0.161843
O9    O     O_R   0.831260 0.254207 0.383123 -0.270908
O10   O     O_R   0.990333 0.205219 0.515499 -0.274852
N4    N     N_R   0.461148 0.363893 0.818432 0.120247
O11   O     O_R   0.384541 0.403140 0.732168 -0.339476
O12   O     O_R   0.544157 0.309418 0.824130 -0.337851
N5    N     N_R   0.654237 0.695056 0.797723 0.122031
O13   O     O_R   0.719976 0.620242 0.855752 -0.300291
O14   O     O_R   0.701099 0.763444 0.719981 -0.339170
N6    N     N_R   0.461459 0.948956 0.831805 0.170014
O15   O     O_R   0.367797 0.981033 0.756094 -0.368486
O16   O     O_R   0.507098 0.999051 0.890287 -0.265099
N7    N     N_R   0.470465 0.645946 0.170000 0.107735
O17   O     O_R   0.371839 0.689896 0.155698 -0.336973
O18   O     O_R   0.546449 0.619374 0.258351 -0.329051
H9    H     H_    0.456066 0.191930 0.971336 0.223353
H10   H     H_    0.489092 0.316059 0.239767 0.151195
H11   H     H_    0.055604 0.900617 0.413825 0.261928
H12   H     H_    0.476536 0.550603 0.796546 0.175587
H13   H     H_    0.475616 0.812708 0.016174 0.236803
H14   H     H_    0.768831 0.452509 0.706249 0.177602
H15   H     H_    0.551856 0.716775 0.556797 0.198894
N8    N     N_R   0.258178 0.884778 0.294348 0.168311
O19   O     O_R   0.304285 0.940711 0.212186 -0.302987
O20   O     O_R   0.138199 0.885891 0.291275 -0.284851
H16   H     H_    0.214615 0.535969 0.308484 0.213734
H17   H     H_    0.801844 0.289501 0.726310 0.194381
N9    N     N_R   0.760739 0.124456 0.694049 0.124075
O21   O     O_R   0.883027 0.144093 0.693143 -0.320615
O22   O     O_R   0.723682 0.052412 0.774445 -0.284749
H18   H     H_    0.853515 0.930839 0.384077 0.215567
H19   H     H_    0.652445 0.593106 0.629006 0.189685
H20   H     H_    0.330611 0.397534 0.386392 0.184607
N10   N     N_R   0.154812 0.705714 0.265005 0.156073
O23   O     O_R   0.152442 0.768331 0.170768 -0.196606
O24   O     O_R   0.051649 0.645131 0.291174 -0.286580
N11   N     N_R   0.832947 0.813245 0.522647 0.153496
O25   O     O_R   0.876526 0.764495 0.618682 -0.319125
O26   O     O_R   0.753586 0.763359 0.472188 -0.334882
N12   N     N_R   0.147509 0.201240 0.402009 0.133769
O27   O     O_R   0.218165 0.209503 0.484469 -0.355314
O28   O     O_R   0.130312 0.283871 0.321250 -0.283579
N13   N     N_R   0.078015 0.099512 0.304577 0.139625
O29   O     O_R   0.183647 0.137503 0.268443 -0.321248
O30   O     O_R   0.991856 0.045541 0.262062 -0.269550
N14   N     N_R   0.840128 0.127626 0.305742 0.129487
O31   O     O_R   0.734628 0.069369 0.291202 -0.396055
O32   O     O_R   0.866249 0.210911 0.229362 -0.210927

loop_
_geom_bond_atom_site_label_1
_geom_bond_atom_site_label_2
_geom_bond_distance
_ccdc_geom_bond_type
C37   C38   1.409052 A    
N5    O13   1.302093 A    
C16   H5    1.078950 S    
C21   C22   1.409090 A    
C12   N14   1.488198 S    
C38   H19   1.076159 S    
N14   O32   1.302961 A    
Cu1   Cu2   2.697282 S    
Cu1   O7    1.995652 S    
C44   C45   1.402216 A    
C22   C23   1.395464 A    
C7    C9    1.554279 S    
N6    O16   1.301515 A    
N13   O30   1.301712 A    
C24   C25   1.392351 A    
O7    C4    1.294579 A    
C6    H18   1.106514 S    
N2    C46   1.364130 A    
N12   O27   1.299568 A    
C5    C6    1.536786 S    
C15   C19   1.411579 A    
C17   H10   1.072565 S    
C38   C39   1.384323 A    
C42   C44   1.403178 A    
C20   C21   1.417767 A    
C33   H7    1.073684 S    
C11   H4    1.098060 S    
O5    C3    1.306385 A    
C12   N3    1.493062 S    
C8    C12   1.618940 S    
C3    C14   1.479065 S    
N4    O11   1.301220 A    
C28   H13   1.080582 S    
N8    O20   1.297501 A    
C26   C28   1.401728 A    
C41   C42   1.400522 A    
C20   C24   1.415867 A    
C23   N4    1.436697 S    
C13   C16   1.394752 A    
N5    O14   1.298886 A    
N9    O21   1.299280 A    
O3    Cu1   1.992112 S    
C21   C27   1.424585 A    
N14   O31   1.301038 A    
C34   C36   1.432739 A    
N1    C32   1.373052 A    
C8    N12   1.485054 S    
C13   C17   1.399238 A    
N3    O9    1.303214 A    
N6    O15   1.299754 A    
O3    C2    1.305172 A    
C25   C26   1.404826 A    
N7    O18   1.300924 A    
C35   C39   1.394249 A    
C32   N9    1.426634 S    
N2    C45   1.371768 A    
N1    C33   1.366904 A    
C40   C41   1.381257 A    
C2    C9    1.505860 S    
C14   C30   1.418215 A    
C19   C23   1.410904 A    
H2    C11   1.108167 S    
C42   C43   1.416043 A    
N3    O10   1.300211 A    
C25   N7    1.433918 S    
C43   C46   1.427563 A    
C7    C11   1.537043 S    
C15   C16   1.392169 A    
C6    N11   1.470790 S    
C17   C18   1.409107 A    
C5    C9    1.559827 S    
Cu2   O8    1.992114 S    
C45   N8    1.426914 S    
N10   O24   1.301119 A    
N11   O26   1.300761 A    
N9    O22   1.299341 A    
C44   N10   1.437837 S    
C26   C27   1.415683 A    
O8    C4    1.305239 A    
C27   C30   1.420619 A    
C10   C12   1.609260 S    
N7    O17   1.300315 A    
C28   C29   1.393442 A    
C34   C35   1.410475 A    
C36   C40   1.403506 A    
C29   N6    1.436676 S    
Cu1   O5    1.935242 S    
C36   C37   1.439456 A    
C6    C10   1.581311 S    
O1    Cu1   1.950667 S    
O2    Cu2   1.935242 S    
C40   H20   1.074144 S    
O6    C3    1.299256 A    
O4    Cu2   1.995652 S    
C5    H11   1.096671 S    
C22   H12   1.082686 S    
C14   C29   1.418617 A    
C31   H17   1.085023 S    
Cu1   N2    2.026386 S    
C4    C10   1.501096 S    
C1    C13   1.476936 S    
O2    C1    1.298012 A    
Cu2   N1    2.026040 S    
C33   C34   1.430684 A    
N13   O29   1.302211 A    
C18   C19   1.424056 A    
C5    H8    1.113465 S    
O4    C2    1.297947 A    
N12   O28   1.302481 A    
C31   C35   1.387751 A    
C37   C43   1.435325 A    
N10   O23   1.300930 A    
H1    C7    1.113220 S    
C41   H16   1.082146 S    
C30   N5    1.453164 S    
C7    H3    1.105081 S    
C24   H6    1.075297 S    
C8    N13   1.491101 S    
C39   H14   1.084513 S    
C15   H9    1.079938 S    
C8    C9    1.602247 S    
Cu2   O6    1.950667 S    
C31   C32   1.391130 A    
N11   O25   1.300962 A    
C10   C11   1.557491 S    
N4    O12   1.301008 A    
O1    C1    1.308444 A    
N8    O19   1.298317 A    
C46   H15   1.073748 S    
C18   C20   1.428140 A    
