data_mof_unit_15371.cif
_audit_creation_date              2013-03-05T15:51:08-0500
_audit_creation_method            fapswitch 2.2
_symmetry_space_group_name_H-M    P1
_symmetry_Int_Tables_number       1
_space_group_crystal_system       triclinic
_cell_length_a                    10.533382
_cell_length_b                    12.050363
_cell_length_c                    12.861785
_cell_angle_alpha                 92.928444
_cell_angle_beta                  90.473519
_cell_angle_gamma                 85.601381
_cell_volume                      1625.61054098

loop_
_atom_site_label
_atom_site_type_symbol
_atom_site_description
_atom_site_fract_x
_atom_site_fract_y
_atom_site_fract_z
_atom_type_partial_charge
O1    O     O_R   0.506270 0.421700 0.658830 -0.578969
O2    O     O_R   0.493730 0.578300 0.341170 -0.579115
O3    O     O_R   0.491200 0.609310 0.646410 -0.652474
O4    O     O_R   0.508800 0.390690 0.353590 -0.652485
C1    C     C_R   0.497913 0.521763 0.700267 0.924036
C2    C     C_R   0.502118 0.478234 0.299734 0.923852
O5    O     O_R   0.693580 0.406210 0.506230 -0.589427
O6    O     O_R   0.306420 0.593790 0.493770 -0.589742
O7    O     O_R   0.678510 0.593830 0.493810 -0.613172
O8    O     O_R   0.321490 0.406170 0.506190 -0.613140
C3    C     C_R   0.742395 0.499397 0.498475 0.969286
C4    C     C_R   0.257603 0.500605 0.501554 0.969002
Zn1   Zn    Zn3+2 0.510060 0.374730 0.508290 1.024966
Zn2   Zn    Zn3+2 0.489940 0.625270 0.491710 1.024948
C5    C     C_3   0.968615 0.393489 0.506140 -0.203871
C6    C     C_3   0.031372 0.606505 0.493942 -0.203679
C7    C     C_3   0.042915 0.459811 0.587749 0.376025
C8    C     C_3   0.957080 0.540184 0.412328 0.375916
H1    H     H_    0.941533 0.306822 0.511932 0.214897
H2    H     H_    0.058389 0.693195 0.488209 0.215438
C9    C     C_3   0.122985 0.501512 0.502183 -0.134989
C10   C     C_3   0.877009 0.498486 0.497891 -0.135043
C11   C     C_3   0.049997 0.436347 0.418441 -0.301517
C12   C     C_3   0.949992 0.563644 0.581638 -0.301616
H3    H     H_    0.093626 0.386232 0.351264 0.184260
H4    H     H_    0.906359 0.613758 0.648814 0.184292
C13   C     C_R   0.501243 0.464974 0.188515 -0.050416
C14   C     C_R   0.498898 0.534994 0.811486 -0.050524
C15   C     C_R   0.549243 0.639594 0.968600 -0.132421
C16   C     C_R   0.451006 0.360337 0.031395 -0.132288
C17   C     C_R   0.538053 0.632730 0.861243 -0.196651
C18   C     C_R   0.462111 0.367231 0.138756 -0.196790
C19   C     C_R   0.466910 0.445696 0.868089 -0.120257
C20   C     C_R   0.533339 0.554234 0.131910 -0.120080
C21   C     C_R   0.479134 0.451184 0.974714 0.144518
C22   C     C_R   0.521139 0.548740 0.025282 0.144445
H5    H     H_    0.566224 0.628743 0.170920 0.207148
H6    H     H_    0.434053 0.371173 0.829081 0.207055
H7    H     H_    0.437021 0.297884 0.182807 0.163235
H8    H     H_    0.563086 0.702095 0.817192 0.163237
H9    H     H_    0.580929 0.714813 0.007022 0.169630
H10   H     H_    0.419324 0.285117 0.992972 0.169755
N1    N     N_R   0.523490 0.207800 0.519350 -0.159223
N2    N     N_R   0.476510 0.792200 0.480650 -0.159408
C23   C     C_R   0.406997 0.955195 0.386217 -0.322250
C24   C     C_R   0.592923 0.044752 0.613756 -0.322226
C25   C     C_R   0.411467 0.839549 0.398580 0.456549
C26   C     C_R   0.588330 0.160417 0.601535 0.456088
C27   C     C_R   0.536626 0.858677 0.551642 -0.076437
C28   C     C_R   0.463506 0.141308 0.448259 -0.076519
C29   C     C_R   0.532708 0.975618 0.541893 0.035479
C30   C     C_R   0.467377 0.024351 0.457996 0.035585
H11   H     H_    0.411856 0.179365 0.384459 0.142337
H12   H     H_    0.588336 0.820624 0.615417 0.142324
H13   H     H_    0.355328 0.990571 0.320986 0.182846
H14   H     H_    0.644450 0.009343 0.679040 0.183124
N3    N     N_R   0.088738 0.415862 0.685850 0.216625
O9    O     O_R   0.008123 0.381535 0.750780 -0.312771
O10   O     O_R   0.208591 0.414358 0.710994 -0.423036
N4    N     N_R   0.911273 0.584134 0.314223 0.216697
O11   O     O_R   0.991902 0.618444 0.249296 -0.312522
O12   O     O_R   0.791425 0.585638 0.289065 -0.423102
N5    N     N_R   0.652268 0.227084 0.677276 0.220693
O13   O     O_R   0.627367 0.219031 0.775384 -0.405211
O14   O     O_R   0.758098 0.267442 0.652373 -0.359120
N6    N     N_R   0.346889 0.772848 0.323308 0.221089
O15   O     O_R   0.240045 0.734285 0.348422 -0.360003
O16   O     O_R   0.372424 0.779567 0.225121 -0.404880

loop_
_geom_bond_atom_site_label_1
_geom_bond_atom_site_label_2
_geom_bond_distance
_ccdc_geom_bond_type
N2    C27   1.367455 A    
N6    O16   1.301197 A    
O7    Zn2   1.993566 S    
N5    O14   1.298750 A    
N1    C28   1.367662 A    
C5    C7    1.532850 S    
C6    C9    1.538807 S    
C20   H5    1.084753 S    
C1    C14   1.431257 S    
N1    C26   1.378318 A    
C3    C10   1.417219 S    
C28   C30   1.418747 A    
C21   C22   1.413397 A    
C19   H6    1.084765 S    
N2    C25   1.377968 A    
C6    H2    1.109731 S    
O6    C4    1.279162 A    
Zn1   N1    2.017896 S    
C5    C11   1.554768 S    
N6    O15   1.299401 A    
C29   C30   1.404730 A    
C6    C12   1.554740 S    
C27   H12   1.082821 S    
C8    C10   1.520459 S    
N4    O12   1.299628 A    
C16   C18   1.383632 A    
O7    C3    1.280707 A    
C15   C22   1.397356 A    
N3    O9    1.300182 A    
O2    C2    1.290212 A    
O3    Zn2   2.008587 S    
O8    C4    1.280707 A    
C16   C21   1.397346 A    
N4    O11   1.300181 A    
C15   C17   1.383654 A    
O1    C1    1.290172 A    
C24   C29   1.394034 A    
C8    N4    1.457561 S    
C13   C20   1.393253 A    
C19   C21   1.375048 A    
C12   H4    1.110448 S    
C14   C19   1.393265 A    
O5    C3    1.279133 A    
Zn2   N2    2.017896 S    
C20   C22   1.375068 A    
C11   H3    1.110448 S    
C9    C11   1.536322 S    
O2    Zn2   1.989148 S    
C10   C12   1.536296 S    
N3    O10   1.299634 A    
C28   H11   1.082803 S    
O1    Zn1   1.989150 S    
C8    C11   1.533199 S    
C7    C12   1.533203 S    
C24   C26   1.407703 A    
O3    C1    1.288496 A    
O5    Zn1   1.998945 S    
C17   H8    1.083466 S    
C23   H13   1.084088 S    
C6    C8    1.532834 S    
O4    C2    1.288458 A    
C5    C10   1.538814 S    
C23   C25   1.407833 A    
C24   H14   1.084088 S    
O4    Zn1   2.008584 S    
C18   H7    1.083467 S    
C16   H10   1.084027 S    
C26   N5    1.428341 S    
O6    Zn2   1.998947 S    
C25   N6    1.428118 S    
C23   C30   1.394370 A    
C15   H9    1.084026 S    
C13   C18   1.399967 A    
C5    H1    1.109779 S    
C4    C9    1.417274 S    
C14   C17   1.399963 A    
C7    C9    1.520496 S    
C2    C13   1.431260 S    
C7    N3    1.457556 S    
N5    O13   1.300904 A    
C27   C29   1.418547 A    
O8    Zn1   1.993566 S    
