data_mof_unit_13412.cif
_audit_creation_date              2012-12-10T16:53:28-0500
_audit_creation_method            fapswitch 2.2
_symmetry_space_group_name_H-M    P1
_symmetry_Int_Tables_number       1
_space_group_crystal_system       triclinic
_cell_length_a                    7.862855
_cell_length_b                    8.624101
_cell_length_c                    13.54561
_cell_angle_alpha                 93.183827
_cell_angle_beta                  77.84044
_cell_angle_gamma                 93.472001
_cell_volume                      895.411140913

loop_
_atom_site_label
_atom_site_type_symbol
_atom_type_description
_atom_site_fract_x
_atom_site_fract_y
_atom_site_fract_z
_atom_type_partial_charge
C1    C     C_R   0.544657 0.794004 0.498769 0.911989
C2    C     C_1   0.561801 0.460624 0.118809 -0.077530
C3    C     C_2   0.560191 0.956843 0.513726 -0.112654
C4    C     C_2   0.437412 0.043184 0.489886 -0.105697
C5    C     C_3   0.156304 0.609913 0.046389 0.087658
C6    C     C_3   0.042340 0.691838 0.136538 -0.777709
C7    C     C_3   0.831762 0.362527 0.954122 0.091126
C8    C     C_3   0.940645 0.268048 0.868046 -0.807261
C9    C     C_3   0.972924 0.255991 0.360808 0.196495
C10   C     C_3   0.079099 0.194927 0.260520 -0.896308
C11   C     C_3   0.020484 0.677254 0.674022 0.203914
C12   C     C_R   0.454863 0.206090 0.502506 0.907186
C13   C     C_3   0.903760 0.783926 0.748392 -0.923497
C14   C     C_R   0.469444 0.504751 0.687391 0.890118
C15   C     C_R   0.530266 0.493987 0.312612 0.884686
C16   C     C_1   0.551021 0.475940 0.207427 -0.161284
C17   C     C_1   0.446652 0.515130 0.792829 -0.189152
C18   C     C_2   0.556777 0.450478 0.014322 0.385484
C19   C     C_2   0.433601 0.528068 0.986728 0.391483
C20   C     C_1   0.432772 0.523570 0.881805 -0.081829
H1    H     H_    0.112441 0.484625 0.046233 0.117330
H2    H     H_    0.898448 0.142960 0.873315 0.260466
H3    H     H_    0.811271 0.985131 0.530330 0.198784
H4    H     H_    0.661909 0.973064 0.639548 0.187145
H5    H     H_    0.321330 0.026921 0.369117 0.175799
H6    H     H_    0.182106 0.009304 0.482558 0.200548
H7    H     H_    0.842048 0.273778 0.348033 0.185994
H8    H     H_    0.966119 0.168091 0.418485 0.124451
H9    H     H_    0.217262 0.186582 0.265408 0.261586
H10   H     H_    0.025262 0.078226 0.240457 0.213297
H11   H     H_    0.073685 0.275165 0.199959 0.253926
H12   H     H_    0.138528 0.662227 0.976178 0.143881
H13   H     H_    0.149968 0.738593 0.653625 0.178658
H14   H     H_    0.026881 0.567876 0.712603 0.148612
H15   H     H_    0.769427 0.730791 0.767881 0.272506
H16   H     H_    0.955273 0.803104 0.818647 0.212911
H17   H     H_    0.900609 0.897990 0.714833 0.252878
H18   H     H_    0.081733 0.817561 0.139275 0.252316
H19   H     H_    0.903861 0.678493 0.129730 0.195662
H20   H     H_    0.055612 0.640252 0.207735 0.282027
H21   H     H_    0.848602 0.317872 0.026836 0.147514
H22   H     H_    0.880608 0.486320 0.947763 0.120219
H23   H     H_    0.925200 0.308679 0.794178 0.257787
H24   H     H_    0.080270 0.282139 0.872428 0.201766
N1    N     N_2   0.954190 0.457600 0.473930 0.167329
N2    N     N_2   0.045810 0.542400 0.526070 0.168359
N3    N     N_3   0.689020 0.020674 0.568276 -0.438951
N4    N     N_3   0.303058 0.978391 0.439725 -0.415703
O1    O     O_R   0.388300 0.738660 0.506400 -0.615078
O2    O     O_3   0.655508 0.346889 0.946217 -0.615547
O3    O     O_3   0.055090 0.394443 0.390200 -0.519554
O4    O     O_3   0.948367 0.645787 0.588416 -0.525693
O5    O     O_R   0.611700 0.261340 0.493600 -0.639638
O6    O     O_R   0.679920 0.711490 0.489690 -0.582835
O7    O     O_R   0.320080 0.288510 0.510310 -0.621142
O8    O     O_R   0.333200 0.515510 0.649910 -0.683763
O9    O     O_R   0.666800 0.484490 0.350090 -0.650999
O10   O     O_R   0.624820 0.488340 0.633200 -0.563050
O11   O     O_R   0.375180 0.511660 0.366800 -0.537282
O12   O     O_3   0.331898 0.628784 0.055441 -0.614299
Zn1   Zn    Zn3+2 0.305280 0.518140 0.511160 1.007715
Zn2   Zn    Zn3+2 0.694720 0.481860 0.488840 1.016851

loop_
_geom_bond_atom_site_label_1
_geom_bond_atom_site_label_2
_ccdc_geom_bond_type
O10   Zn2   S    
C14   O8    A    
C1    O6    A    
C6    H18   S    
C11   H13   S    
C19   O12   S    
C2    C18   S    
C11   C13   S    
O5    Zn2   S    
C10   H10   S    
O1    Zn1   S    
C13   H17   S    
C19   C20   S    
H5    N4    S    
C8    H23   S    
H6    N4    S    
C5    H12   S    
C9    O3    S    
H3    N3    S    
C9    H8    S    
C10   H9    S    
C7    C8    S    
N1    N2    D    
C2    C16   T    
C15   O9    A    
C14   C17   S    
C18   O2    S    
C12   O5    A    
C1    O1    A    
O7    Zn1   S    
C9    C10   S    
C3    N3    S    
C13   H15   S    
C7    H21   S    
C5    C6    S    
C14   O10   A    
C6    H20   S    
O11   Zn1   S    
C12   O7    A    
C4    C12   S    
N1    O3    S    
N2    Zn1   S    
C15   C16   S    
N2    O4    S    
N1    Zn2   S    
O9    Zn2   S    
C17   C20   T    
C5    H1    S    
C9    H7    S    
C13   H16   S    
C18   C19   D    
C4    N4    S    
C7    H22   S    
C6    H19   S    
C11   O4    S    
O6    Zn2   S    
C5    O12   S    
O8    Zn1   S    
H4    N3    S    
C15   O11   A    
C8    H2    S    
C11   H14   S    
C3    C4    D    
C8    H24   S    
C7    O2    S    
C1    C3    S    
C10   H11   S    
