data_mof_unit_32917.cif
_audit_creation_date              2013-03-05T15:44:46-0500
_audit_creation_method            fapswitch 2.2
_symmetry_space_group_name_H-M    P1
_symmetry_Int_Tables_number       1
_space_group_crystal_system       triclinic
_cell_length_a                    12.956469
_cell_length_b                    13.046079
_cell_length_c                    15.237466
_cell_angle_alpha                 117.017683
_cell_angle_beta                  63.307887
_cell_angle_gamma                 97.309064
_cell_volume                      2040.42727299

loop_
_atom_site_label
_atom_site_type_symbol
_atom_site_description
_atom_site_fract_x
_atom_site_fract_y
_atom_site_fract_z
_atom_type_partial_charge
C1    C     C_R   0.026355 0.834495 0.028507 -0.128608
H1    H     H_    0.073170 0.898046 0.067589 0.090868
N1    N     N_R   0.037310 0.720000 0.995790 -0.044325
C2    C     C_R   0.700186 0.406285 0.212278 -0.140595
H2    H     H_    0.644380 0.348691 0.180685 0.088147
N2    N     N_R   0.790790 0.446160 0.152010 -0.041509
C3    C     C_R   0.738941 0.580065 0.950547 -0.100357
H3    H     H_    0.746831 0.628203 0.906663 0.095899
N3    N     N_R   0.824890 0.517960 0.936420 -0.039074
C4    C     C_R   0.942680 0.719227 0.316862 -0.135270
H4    H     H_    0.892781 0.691616 0.379584 0.103742
N4    N     N_R   0.003210 0.648190 0.211380 -0.040092
C5    C     C_R   0.660651 0.483950 0.051175 -0.109936
H5    H     H_    0.601775 0.446893 0.103491 0.090724
N5    N     N_R   0.774330 0.457010 0.995840 -0.046788
C6    C     C_R   0.029745 0.821698 0.223862 -0.131879
H6    H     H_    0.066260 0.892255 0.205500 0.092366
N6    N     N_R   0.053760 0.709140 0.151960 -0.039661
C7    C     C_R   0.804804 0.488358 0.303893 -0.132910
H7    H     H_    0.851741 0.501194 0.350447 0.144357
N7    N     N_R   0.853860 0.498840 0.211410 -0.046231
C8    C     C_R   0.927276 0.749332 0.931132 -0.143210
H8    H     H_    0.882504 0.734898 0.882278 0.095851
N8    N     N_R   0.974240 0.667310 0.936390 -0.042390
C9    C     C_R   0.951099 0.855724 0.995276 0.145693
C10   C     C_R   0.706008 0.432258 0.309419 0.089032
C11   C     C_R   0.636162 0.564190 0.026292 0.136478
C12   C     C_R   0.954814 0.830150 0.327293 0.077560
C13   C     C_R   0.322044 0.580684 0.012773 -0.123356
H9    H     H_    0.367783 0.644942 0.987353 0.083993
N9    N     N_R   0.225670 0.542990 0.004160 -0.045286
C14   C     C_R   0.898127 0.203876 0.795091 -0.145264
H10   H     H_    0.837802 0.154192 0.832755 0.089592
N10   N     N_R   0.946240 0.290860 0.848040 -0.044222
C15   C     C_R   0.219445 0.433323 0.684497 -0.128669
H11   H     H_    0.192829 0.384445 0.620542 0.133174
N11   N     N_R   0.146140 0.501160 0.788590 -0.046423
C16   C     C_R   0.096642 0.250592 0.044511 -0.103962
H12   H     H_    0.157269 0.265946 0.078881 0.104505
N12   N     N_R   0.025760 0.332690 0.063610 -0.042725
C17   C     C_R   0.997311 0.166431 0.947504 -0.099920
H13   H     H_    0.965766 0.103478 0.891237 0.095706
N13   N     N_R   0.962690 0.280000 0.004210 -0.044133
C18   C     C_R   0.321034 0.516514 0.780887 -0.126785
H14   H     H_    0.389175 0.543221 0.806348 0.098315
N14   N     N_R   0.209210 0.553840 0.847990 -0.043857
C19   C     C_R   0.243101 0.480588 0.108302 -0.165697
H15   H     H_    0.219471 0.451112 0.170163 0.103376
N15   N     N_R   0.175110 0.482040 0.063580 -0.042014
C20   C     C_R   0.982174 0.300077 0.697014 -0.098900
H16   H     H_    0.004953 0.336103 0.640192 0.144472
N16   N     N_R   0.996790 0.351810 0.788620 -0.050113
Ni1   Ni    Ni4+2 0.130310 0.630310 0.999970 0.211726
Ni2   Ni    Ni4+2 0.869690 0.369690 0.000030 0.211292
Ni3   Ni    Ni4+2 0.985640 0.509470 0.863740 0.236776
Ni4   Ni    Ni4+2 0.014360 0.490530 0.136260 0.219647
C21   C     C_R   0.335196 0.542926 0.078081 0.161039
C22   C     C_R   0.916097 0.208771 0.700782 0.091270
C23   C     C_R   0.330898 0.437935 0.677087 0.067436
C24   C     C_R   0.082650 0.143965 0.970185 0.047139
C25   C     C_R   0.913197 0.043871 0.430787 -0.300163
H17   H     H_    0.938453 0.050838 0.355816 0.158182
C26   C     C_R   0.892715 0.143582 0.528456 0.359061
C27   C     C_R   0.873153 0.130314 0.621616 0.000445
C28   C     C_R   0.838817 0.025414 0.624965 -0.202439
H18   H     H_    0.813886 0.013236 0.697155 0.126530
C29   C     C_R   0.854397 0.928323 0.529546 -0.158843
H19   H     H_    0.838340 0.847100 0.533808 0.119119
C30   C     C_R   0.904415 0.935351 0.430041 0.094337
C31   C     C_R   0.634447 0.439269 0.497369 0.209150
C32   C     C_R   0.543483 0.425936 0.584052 -0.247701
H20   H     H_    0.548504 0.462506 0.661235 0.142429
C33   C     C_R   0.441032 0.386137 0.576721 0.060264
C34   C     C_R   0.444956 0.321576 0.471552 0.199527
C35   C     C_R   0.538599 0.329623 0.382119 -0.305110
H21   H     H_    0.537213 0.286845 0.303148 0.125549
C36   C     C_R   0.628215 0.398120 0.396297 0.062308
C37   C     C_2   0.428760 0.564578 0.109171 -0.196658
H22   H     H_    0.430764 0.520888 0.154308 0.126959
C38   C     C_2   0.522118 0.608189 0.057464 -0.189336
H23   H     H_    0.518989 0.655715 0.015895 0.124101
C39   C     C_2   0.894344 0.967767 0.030930 -0.239630
H24   H     H_    0.854266 0.973794 0.984175 0.133809
C40   C     C_2   0.880132 0.059484 0.125227 -0.095560
H25   H     H_    0.913649 0.057463 0.178212 0.134900
N17   N     N_R   0.890013 0.255543 0.532635 0.214385
O1    O     O_R   0.818973 0.340523 0.622145 -0.452555
O2    O     O_R   0.944879 0.268918 0.443584 -0.447549
N18   N     N_2   0.725224 0.503119 0.517730 -0.115205
H26   H     H_    0.758455 0.474865 0.553921 0.244156
C41   C     C_3   0.697350 0.627320 0.575288 -0.997398
H27   H     H_    0.775579 0.670295 0.580204 0.253847
H28   H     H_    0.627188 0.653507 0.660115 0.259008
H29   H     H_    0.669342 0.656797 0.530695 0.267304
N19   N     N_2   0.353770 0.254151 0.455300 -0.124688
H30   H     H_    0.353637 0.230526 0.380893 0.169875
C42   C     C_3   0.336432 0.158979 0.483166 -0.916964
H31   H     H_    0.260173 0.115712 0.473144 0.250224
H32   H     H_    0.319298 0.190253 0.569940 0.260284
H33   H     H_    0.414266 0.095020 0.428040 0.258035

loop_
_geom_bond_atom_site_label_1
_geom_bond_atom_site_label_2
_geom_bond_distance
_ccdc_geom_bond_type
C6    C12   1.390437 A    
N19   H30   1.031786 S    
C33   C34   1.411192 A    
C7    H7    1.074607 S    
C14   C22   1.379247 A    
C42   H31   1.110630 S    
C3    H3    1.075075 S    
C19   N15   1.340164 A    
N8    Ni3   1.829486 S    
C15   N11   1.336499 A    
N9    N15   1.367436 A    
C16   H12   1.079649 S    
N17   O2    1.301514 A    
C41   H28   1.111756 S    
C18   C23   1.395528 A    
C4    C12   1.378294 A    
C3    C11   1.383657 A    
C15   C23   1.392565 A    
C1    H1    1.076066 S    
C17   H13   1.079959 S    
C25   C26   1.396990 A    
C7    C10   1.379154 A    
N6    Ni1   1.853905 S    
N12   N13   1.384114 A    
C12   C30   1.455530 S    
C6    H6    1.074087 S    
N12   Ni4   1.829485 S    
C8    C9    1.380807 A    
C20   N16   1.337455 A    
C31   C32   1.386333 A    
N3    Ni3   1.857862 S    
N18   C41   1.448569 S    
C23   C33   1.475651 S    
N16   Ni3   1.830226 S    
C5    H5    1.077526 S    
C31   C36   1.419904 A    
C1    C9    1.386901 A    
C17   N13   1.341947 A    
N1    N8    1.384114 A    
N2    Ni2   1.853883 S    
C34   N19   1.425264 S    
C42   H32   1.110512 S    
C18   N14   1.333424 A    
C22   C27   1.465838 S    
C10   C36   1.479662 S    
C34   C35   1.397253 A    
C29   H19   1.079190 S    
C20   C22   1.383352 A    
N5    Ni2   1.823024 S    
C40   H25   1.085515 S    
C2    N2    1.342439 A    
C11   C38   1.440836 S    
C41   H27   1.110278 S    
C32   C33   1.396152 A    
C37   H22   1.083780 S    
C2    H2    1.079334 S    
C28   C29   1.373792 A    
N2    N7    1.384098 A    
C1    N1    1.346729 A    
C15   H11   1.075451 S    
C14   N10   1.329411 A    
C35   H21   1.080043 S    
C13   H9    1.079988 S    
C19   C21   1.377295 A    
N13   Ni2   1.822228 S    
C19   H15   1.081769 S    
C20   H16   1.078203 S    
N9    Ni1   1.823025 S    
C35   C36   1.406892 A    
N4    Ni4   1.830226 S    
C4    N4    1.325320 A    
C16   C24   1.392669 A    
C13   C21   1.371514 A    
N10   Ni2   1.853907 S    
C39   C40   1.336617 D    
C5    N5    1.323109 A    
C26   N17   1.437116 S    
C9    C39   1.471603 S    
C8    N8    1.345021 A    
C31   N18   1.420283 S    
N18   H26   1.031371 S    
C42   H33   1.111349 S    
C18   H14   1.076099 S    
C25   C30   1.401083 A    
C3    N3    1.341143 A    
C7    N7    1.325462 A    
N17   O1    1.301754 A    
C21   C37   1.442560 S    
C17   C24   1.394874 A    
C38   H23   1.083311 S    
N7    Ni4   1.858135 S    
C2    C10   1.396286 A    
N19   C42   1.447315 S    
N15   Ni4   1.857861 S    
N10   N16   1.367421 A    
C27   C28   1.400555 A    
N3    N5    1.367435 A    
C32   H20   1.079836 S    
C13   N9    1.323091 A    
C14   H10   1.080031 S    
C41   H29   1.111611 S    
C16   N12   1.342487 A    
N1    Ni1   1.822226 S    
N14   Ni1   1.853883 S    
C37   C38   1.335491 D    
C28   H18   1.079853 S    
C25   H17   1.082253 S    
C4    H4    1.076827 S    
C26   C27   1.413548 A    
N11   Ni3   1.858132 S    
C6    N6    1.342317 A    
C39   H24   1.084897 S    
N4    N6    1.367423 A    
C8    H8    1.076523 S    
C5    C11   1.376026 A    
C29   C30   1.398446 A    
N11   N14   1.384098 A    
