data_mof_unit_57326.cif
_audit_creation_date              2013-03-05T15:51:07-0500
_audit_creation_method            fapswitch 2.2
_symmetry_space_group_name_H-M    P1
_symmetry_Int_Tables_number       1
_space_group_crystal_system       triclinic
_cell_length_a                    10.544799
_cell_length_b                    12.117195
_cell_length_c                    12.890539
_cell_angle_alpha                 95.889053
_cell_angle_beta                  92.235365
_cell_angle_gamma                 87.907906
_cell_volume                      1636.25297857

loop_
_atom_site_label
_atom_site_type_symbol
_atom_site_description
_atom_site_fract_x
_atom_site_fract_y
_atom_site_fract_z
_atom_type_partial_charge
O1    O     O_R   0.506270 0.421700 0.658830 -0.536950
O2    O     O_R   0.493730 0.578300 0.341170 -0.536976
O3    O     O_R   0.491200 0.609310 0.646410 -0.641395
O4    O     O_R   0.508800 0.390690 0.353590 -0.641616
C1    C     C_R   0.496562 0.524163 0.700321 0.960572
C2    C     C_R   0.503381 0.475838 0.299678 0.960657
O5    O     O_R   0.693580 0.406210 0.506230 -0.571258
O6    O     O_R   0.306420 0.593790 0.493770 -0.571281
O7    O     O_R   0.678510 0.593830 0.493810 -0.613738
O8    O     O_R   0.321490 0.406170 0.506190 -0.613589
C3    C     C_R   0.741759 0.501669 0.500636 0.983033
C4    C     C_R   0.258238 0.498338 0.499368 0.983442
Zn1   Zn    Zn3+2 0.510060 0.374730 0.508290 1.096526
Zn2   Zn    Zn3+2 0.489940 0.625270 0.491710 1.096561
C5    C     C_3   0.963155 0.462277 0.586380 0.249470
C6    C     C_3   0.036832 0.537786 0.413635 0.249553
C7    C     C_3   0.046402 0.564319 0.585334 -0.288734
C8    C     C_3   0.953592 0.435734 0.414675 -0.288645
H1    H     H_    0.086418 0.615312 0.654570 0.243133
H2    H     H_    0.913578 0.384740 0.345438 0.243167
C9    C     C_3   0.123988 0.496032 0.499956 -0.294326
C10   C     C_3   0.876005 0.504012 0.500055 -0.294523
C11   C     C_3   0.041160 0.395496 0.503054 0.255984
C12   C     C_3   0.958823 0.604553 0.496966 0.255774
C13   C     C_R   0.504937 0.457609 0.186945 -0.320519
C14   C     C_R   0.494707 0.542417 0.813047 -0.320771
C15   C     C_R   0.592520 0.624039 0.974510 0.466668
C16   C     C_R   0.406518 0.376242 0.025583 0.467595
C17   C     C_R   0.567865 0.625160 0.867172 0.171315
C18   C     C_R   0.431385 0.375074 0.132923 0.171222
C19   C     C_R   0.432461 0.465815 0.865419 0.294013
C20   C     C_R   0.567215 0.534128 0.134519 0.293907
C21   C     C_R   0.458264 0.460506 0.972689 -0.147403
C22   C     C_R   0.541176 0.539542 0.027311 -0.147684
N1    N     N_R   0.523490 0.207800 0.519350 -0.199238
N2    N     N_R   0.476510 0.792200 0.480650 -0.199135
C23   C     C_R   0.371258 0.945656 0.406058 0.183880
C24   C     C_R   0.628697 0.054346 0.593990 0.183950
C25   C     C_R   0.386651 0.830337 0.414004 0.465415
C26   C     C_R   0.613313 0.169665 0.586030 0.465632
C27   C     C_R   0.558092 0.862453 0.538236 0.563299
C28   C     C_R   0.441926 0.137539 0.461755 0.562675
C29   C     C_R   0.547632 0.978885 0.533375 -0.201438
C30   C     C_R   0.452353 0.021113 0.466646 -0.201361
N3    N     N_R   0.918394 0.422688 0.681115 0.266047
O9    O     O_R   0.952187 0.324352 0.706094 -0.239418
O10   O     O_R   0.847122 0.487299 0.742961 -0.325085
N4    N     N_R   0.081543 0.577480 0.318930 0.266142
O11   O     O_R   0.047571 0.675784 0.293968 -0.239371
O12   O     O_R   0.152981 0.513015 0.257099 -0.324937
N5    N     N_R   0.087423 0.281097 0.506810 0.273646
O13   O     O_R   0.162141 0.254242 0.583525 -0.237784
O14   O     O_R   0.051302 0.204685 0.434610 -0.242190
N6    N     N_R   0.912538 0.718948 0.493228 0.273595
O15   O     O_R   0.837800 0.745805 0.416524 -0.237906
O16   O     O_R   0.948638 0.795354 0.565444 -0.242238
N7    N     N_R   0.659326 0.603546 0.191727 0.282241
O17   O     O_R   0.765929 0.559200 0.224114 -0.332188
O18   O     O_R   0.627483 0.704727 0.227706 -0.256599
N8    N     N_R   0.340830 0.396046 0.808032 0.282496
O19   O     O_R   0.234372 0.440074 0.774973 -0.332522
O20   O     O_R   0.373087 0.294796 0.772574 -0.256449
N9    N     N_R   0.380261 0.290524 0.187196 0.201069
O21   O     O_R   0.259374 0.292263 0.204217 -0.275521
O22   O     O_R   0.448575 0.200662 0.198353 -0.305349
N10   N     N_R   0.619082 0.709747 0.812994 0.201518
O23   O     O_R   0.740281 0.708912 0.797415 -0.272849
O24   O     O_R   0.550165 0.799017 0.800723 -0.306850
O25   O     O_3   0.668076 0.703260 0.028521 -0.633205
H3    H     H_    0.677201 0.767434 0.988167 0.401019
O26   O     O_3   0.330415 0.297398 0.971608 -0.633911
H4    H     H_    0.318099 0.234465 0.012875 0.401637
O27   O     O_3   0.347088 0.179571 0.399781 -0.618136
H5    H     H_    0.366973 0.255972 0.390080 0.393720
O28   O     O_3   0.653002 0.820411 0.600143 -0.618256
H6    H     H_    0.633109 0.744030 0.609932 0.393568
O29   O     O_3   0.686198 0.246908 0.644930 -0.655827
H7    H     H_    0.732548 0.212210 0.701975 0.384605
O30   O     O_3   0.313736 0.753098 0.355130 -0.655919
H8    H     H_    0.267294 0.787811 0.298137 0.384591
N11   N     N_R   0.272863 0.984201 0.337574 0.265455
O31   O     O_R   0.299825 0.003784 0.243704 -0.239722
O32   O     O_R   0.154673 0.978718 0.361399 -0.225939
N12   N     N_R   0.727014 0.015807 0.662550 0.265392
O33   O     O_R   0.699905 0.996049 0.756337 -0.239431
O34   O     O_R   0.845245 0.021387 0.638873 -0.226004

loop_
_geom_bond_atom_site_label_1
_geom_bond_atom_site_label_2
_geom_bond_distance
_ccdc_geom_bond_type
N10   O24   1.300762 A    
N9    O22   1.300787 A    
C6    C9    1.529891 S    
C1    C14   1.448022 S    
C15   C17   1.399207 A    
O27   H5    0.978075 S    
O7    Zn2   2.010558 S    
C6    N4    1.458063 S    
N11   O31   1.300762 A    
O29   H7    0.988326 S    
O5    C3    1.290014 A    
O1    C1    1.302594 A    
N12   O34   1.300806 A    
Zn1   N1    2.041685 S    
Zn2   N2    2.041685 S    
N7    O18   1.302471 A    
C2    C13   1.447944 S    
C12   N6    1.457535 S    
N8    O20   1.302469 A    
O4    Zn1   2.022660 S    
N1    C28   1.374662 A    
C5    C10   1.529811 S    
C19   C21   1.406359 A    
C15   O25   1.384342 S    
C13   C20   1.398336 A    
N4    O12   1.299612 A    
N10   O23   1.300938 A    
C14   C19   1.398490 A    
C6    C12   1.525468 S    
C18   N9    1.430561 S    
C27   C29   1.418713 A    
C23   N11   1.432400 S    
N2    C27   1.374672 A    
O2    C2    1.302542 A    
C28   C30   1.418698 A    
C20   N7    1.439187 S    
N11   O32   1.300802 A    
N3    O10   1.299638 A    
C15   C22   1.420185 A    
N6    O16   1.299947 A    
C7    C12   1.545037 S    
N5    O13   1.300437 A    
N12   O33   1.300767 A    
O4    C2    1.300185 A    
N3    O9    1.299703 A    
C4    C9    1.417271 S    
C7    C9    1.548928 S    
C24   C29   1.426765 A    
N9    O21   1.300927 A    
N8    O19   1.300774 A    
N5    O14   1.299932 A    
C25   O30   1.379978 S    
C19   N8    1.439123 S    
O28   H6    0.978125 S    
C27   O28   1.371816 S    
C11   N5    1.457534 S    
C8    C11   1.545091 S    
O6    C4    1.289951 A    
C21   C22   1.432508 A    
O7    C3    1.288742 A    
O3    Zn2   2.022663 S    
O8    C4    1.288822 A    
N4    O11   1.299713 A    
C16   C21   1.420458 A    
C9    C11   1.529338 S    
C29   C30   1.412975 A    
C10   C12   1.529310 S    
O30   H8    0.988334 S    
C16   O26   1.384501 S    
O1    Zn1   1.966973 S    
C5    N3    1.458040 S    
C13   C18   1.399381 A    
C5    C7    1.543763 S    
N6    O15   1.300448 A    
C28   O27   1.371739 S    
O6    Zn2   1.987743 S    
C24   N12   1.432412 S    
C8    C10   1.548907 S    
N2    C25   1.354785 A    
O3    C1    1.300166 A    
O8    Zn1   2.010558 S    
C3    C10   1.417238 S    
C23   C30   1.426767 A    
C16   C18   1.399628 A    
N1    C26   1.354806 A    
O26   H4    0.988543 S    
C23   C25   1.414539 A    
C24   C26   1.414571 A    
N7    O17   1.300757 A    
C5    C11   1.525478 S    
C7    H1    1.110356 S    
C8    H2    1.110355 S    
O25   H3    0.988374 S    
O2    Zn2   1.966970 S    
C17   N10   1.430618 S    
O5    Zn1   1.987741 S    
C14   C17   1.399311 A    
C6    C8    1.543808 S    
C26   O29   1.379973 S    
C20   C22   1.406125 A    
