data_mof_unit_25815.cif
_audit_creation_date              2012-12-11T15:13:52-0500
_audit_creation_method            fapswitch 2.2
_symmetry_space_group_name_H-M    P1
_symmetry_Int_Tables_number       1
_space_group_crystal_system       triclinic
_cell_length_a                    6.946896
_cell_length_b                    13.513651
_cell_length_c                    20.092868
_cell_angle_alpha                 104.159862
_cell_angle_beta                  90.274296
_cell_angle_gamma                 90.556952
_cell_volume                      1828.82964081

loop_
_atom_site_label
_atom_site_type_symbol
_atom_type_description
_atom_site_fract_x
_atom_site_fract_y
_atom_site_fract_z
_atom_type_partial_charge
O1    O     O_R   0.506780 0.600060 0.449950 -0.539380
O2    O     O_R   0.179840 0.597110 0.589410 -0.544137
O3    O     O_R   0.004570 0.399940 0.550050 -0.538761
C1    C     C_R   0.348864 0.618969 0.616894 0.675203
O4    O     O_R   0.177380 0.612160 0.452890 -0.540503
O5    O     O_R   0.002100 0.415100 0.412560 -0.537149
C2    C     C_R   0.346508 0.638855 0.436425 0.694601
O6    O     O_R   0.509250 0.584900 0.587440 -0.541505
O7    O     O_3   0.337570 0.435330 0.486930 -0.367300
V1    V     V_3+5 0.064650 0.512000 0.502430 1.417382
O8    O     O_R   0.672090 0.402890 0.410590 -0.544415
C3    C     C_R   0.839711 0.381799 0.382853 0.688838
O9    O     O_R   0.674540 0.387840 0.547110 -0.539858
C4    C     C_R   0.843121 0.360756 0.563407 0.709217
V2    V     V_3+5 0.564040 0.488000 0.497570 1.420128
O10   O     O_3   0.840990 0.564670 0.513070 -0.371182
C5    C     C_R   0.867210 0.104230 0.606531 -0.175163
H1    H     H_    0.880553 0.979237 0.689503 0.116808
H2    H     H_    0.873873 0.023878 0.580573 0.120684
C6    C     C_R   0.851357 0.280888 0.601165 -0.035846
C7    C     C_R   0.852576 0.318470 0.932046 -0.163905
C8    C     C_R   0.845100 0.394750 0.896715 -0.122059
C9    C     C_R   0.846482 0.370147 0.825187 -0.165780
C10   C     C_R   0.855492 0.267233 0.786742 0.090699
C11   C     C_R   0.863024 0.189318 0.823441 0.068509
C12   C     C_R   0.857167 0.239013 0.713293 0.074711
C13   C     C_R   0.866016 0.134141 0.678533 0.106645
C14   C     C_R   0.873575 0.059414 0.715711 -0.206290
C15   C     C_R   0.872169 0.086337 0.786920 -0.201424
C16   C     C_R   0.850285 0.311180 0.672967 -0.267448
C17   C     C_R   0.859713 0.176548 0.567283 0.159318
C18   C     C_R   0.861415 0.216112 0.896207 -0.076808
H3    H     H_    0.843779 0.392034 0.695613 0.100641
H4    H     H_    0.878235 0.025305 0.813136 0.115562
C19   C     C_3   0.773268 0.161063 0.249294 -0.139046
C20   C     C_3   0.948652 0.208938 0.294059 -0.173343
C21   C     C_3   0.846279 0.312511 0.311899 -0.017135
C22   C     C_3   0.670283 0.265457 0.267799 -0.153373
C23   C     C_3   0.762418 0.293712 0.204528 -0.147751
C24   C     C_3   0.937419 0.340176 0.249380 0.206261
C25   C     C_3   0.041784 0.236928 0.230946 -0.117295
C26   C     C_3   0.865470 0.190111 0.187056 -0.040052
H5    H     H_    0.517551 0.277524 0.283411 0.117946
H6    H     H_    0.194713 0.225575 0.215412 0.106895
C27   C     C_3   0.538458 0.725578 0.730856 -0.123628
C28   C     C_3   0.457842 0.835364 0.749892 -0.138649
C29   C     C_3   0.356406 0.811587 0.812283 -0.004747
C30   C     C_3   0.437117 0.702656 0.794065 -0.141745
C31   C     C_3   0.254928 0.665469 0.749908 -0.136941
C32   C     C_3   0.174339 0.775260 0.768931 -0.119875
C33   C     C_3   0.275672 0.798146 0.705704 -0.138217
C34   C     C_3   0.356408 0.689173 0.687505 -0.005291
H7    H     H_    0.171481 0.594788 0.749429 0.099593
H8    H     H_    0.024286 0.796054 0.784884 0.105678
H9    H     H_    0.209550 0.837206 0.668787 0.099476
C35   C     C_R   0.371477 0.893711 0.394929 -0.159179
H10   H     H_    0.364542 0.842246 0.487658 0.101887
C36   C     C_R   0.356727 0.716940 0.397785 -0.028348
C37   C     C_R   0.355614 0.681900 0.067963 -0.165890
C38   C     C_R   0.355429 0.604622 0.102906 0.216573
C39   C     C_R   0.358561 0.629974 0.174700 -0.161864
C40   C     C_R   0.360629 0.733144 0.213312 0.037595
C41   C     C_R   0.361207 0.811049 0.176867 0.020372
C42   C     C_R   0.362878 0.761208 0.286721 0.047638
C43   C     C_R   0.368584 0.866528 0.322340 0.127619
C44   C     C_R   0.369662 0.942565 0.285075 0.139690
C45   C     C_R   0.365429 0.914148 0.213399 -0.193803
C46   C     C_R   0.358197 0.687794 0.326255 -0.201809
C47   C     C_R   0.364289 0.819549 0.432054 -0.184410
C48   C     C_R   0.358764 0.784262 0.104074 -0.104548
H11   H     H_    0.360906 0.566726 0.198383 0.117706
O11   O     O_R   0.203580 0.914920 0.912610 -0.541601
O12   O     O_R   0.535710 0.887810 0.047120 -0.540484
O13   O     O_R   0.710730 0.084950 0.087430 -0.539843
C49   C     C_R   0.366992 0.861741 0.064302 0.697750
O14   O     O_R   0.533010 0.902850 0.910600 -0.544080
O15   O     O_R   0.708010 0.100090 0.949930 -0.538364
C50   C     C_R   0.364011 0.881322 0.883019 0.679354
O16   O     O_R   0.206300 0.899780 0.050100 -0.537959
O17   O     O_3   0.375170 0.064580 0.013100 -0.369428
V3    V     V_3+5 0.648200 0.988020 0.997570 1.415332
O18   O     O_R   0.038030 0.112330 0.952840 -0.539857
C51   C     C_R   0.869476 0.138601 0.935952 0.687471
O19   O     O_R   0.040730 0.097300 0.089360 -0.544433
C52   C     C_R   0.872859 0.119356 0.116738 0.689049
V4    V     V_3+5 0.148780 0.012220 0.002360 1.418614
O20   O     O_3   0.871930 0.935430 0.986900 -0.370351
C53   C     C_3   0.861073 0.139087 0.490091 -0.804521
H12   H     H_    0.854544 0.201768 0.463427 0.187821
H13   H     H_    0.994840 0.095704 0.473850 0.207866
H14   H     H_    0.735121 0.087765 0.472964 0.209298
H15   H     H_    0.709200 0.085055 0.247650 0.130914
H16   H     H_    0.686902 0.328760 0.167311 0.104060
C54   C     C_3   0.031922 0.441939 0.249267 -0.826754
H17   H     H_    0.081597 0.440909 0.196708 0.208065
H18   H     H_    0.927064 0.504394 0.266099 0.212352
H19   H     H_    0.157130 0.455001 0.284916 0.205017
H20   H     H_    0.541198 0.906072 0.750399 0.110330
H21   H     H_    0.688567 0.704970 0.714894 0.107002
H22   H     H_    0.503159 0.663657 0.831026 0.099252
C55   C     C_3   0.373805 0.054725 0.320763 -0.825092
H23   H     H_    0.361580 0.103719 0.283972 0.206538
H24   H     H_    0.251572 0.072532 0.356804 0.205210
H25   H     H_    0.510752 0.074383 0.349953 0.211732
H26   H     H_    0.378192 0.972395 0.424012 0.127647
H27   H     H_    0.354080 0.607070 0.303486 0.093375
H28   H     H_    0.354785 0.662521 0.012296 0.097991
C56   C     C_3   0.353468 0.494375 0.064107 -0.803315
H29   H     H_    0.352416 0.485978 0.007702 0.212446
H30   H     H_    0.483412 0.456129 0.077754 0.204501
H31   H     H_    0.223058 0.455663 0.077742 0.204353
H32   H     H_    0.366020 0.974009 0.186079 0.119810
H33   H     H_    0.851450 0.339304 0.987678 0.100938
H34   H     H_    0.840283 0.433727 0.801817 0.103126
H35   H     H_    0.838166 0.473862 0.925022 0.121157
H36   H     H_    0.020476 0.175614 0.332579 0.119684

loop_
_geom_bond_atom_site_label_1
_geom_bond_atom_site_label_2
_ccdc_geom_bond_type
C24   C25   S    
C55   H23   S    
C25   C26   S    
C19   C20   S    
C1    O6    A    
C6    C16   A    
C27   C28   S    
C35   C47   A    
C14   C15   A    
C12   C13   A    
C32   H8    S    
C1    C34   S    
C42   C46   A    
C20   C21   S    
O14   C50   A    
C21   C24   S    
O5    C3    A    
C22   C23   S    
O15   C51   A    
V2    O10   S    
C56   H29   S    
C3    C21   S    
C19   C26   S    
C23   H16   S    
O17   V4    S    
O8    V2    S    
C40   C42   A    
C9    C10   A    
C41   C48   A    
O1    V2    S    
C29   C32   S    
O7    V1    S    
C2    C36   S    
C38   C56   S    
C19   H15   S    
C39   H11   S    
C11   C18   A    
C44   C45   A    
C28   H20   S    
C37   C38   A    
C55   H24   S    
O9    C4    A    
O12   C49   A    
C44   C55   S    
C20   C25   S    
C54   H17   S    
C46   H27   S    
O12   V3    S    
C23   C26   S    
C11   C15   A    
C30   H22   S    
C7    C18   A    
C41   C45   A    
C33   C34   S    
C5    C13   A    
C4    C6    S    
C19   C22   S    
H1    C14   S    
C10   C11   A    
C7    H33   S    
C27   H21   S    
C23   C24   S    
O4    C2    A    
V4    O20   S    
C54   H19   S    
O18   V4    S    
C28   C33   S    
C37   H28   S    
C38   C39   A    
O2    C1    A    
C21   C22   S    
C29   C30   S    
C53   H14   S    
O15   V3    S    
C31   C34   S    
C40   C41   A    
C32   C33   S    
C26   C52   S    
O19   C52   A    
C54   H18   S    
V3    O20   S    
O3    C4    A    
C36   C46   A    
C8    H35   S    
C53   H13   S    
O18   C51   A    
O6    V2    S    
O9    V2    S    
C5    C17   A    
C25   H6    S    
O13   V3    S    
O2    V1    S    
C48   C49   S    
C27   C30   S    
C18   C51   S    
C28   C29   S    
C30   C31   S    
C17   C53   S    
C16   H3    S    
O1    C2    A    
C10   C12   A    
C24   C54   S    
O17   V3    S    
O14   V3    S    
O5    V1    S    
O11   V4    S    
O8    C3    A    
C36   C47   A    
C12   C16   A    
C55   H25   S    
C27   C34   S    
C56   H31   S    
C42   C43   A    
O7    V2    S    
C22   H5    S    
O3    V1    S    
V1    O10   S    
C9    H34   S    
C31   H7    S    
C15   H4    S    
C5    H2    S    
C56   H30   S    
C33   H9    S    
C43   C44   A    
O13   C52   A    
C39   C40   A    
C35   H26   S    
C37   C48   A    
C45   H32   S    
O4    V1    S    
C53   H12   S    
C31   C32   S    
O11   C50   A    
C13   C14   A    
C8    C9    A    
O19   V4    S    
C29   C50   S    
H10   C47   S    
C7    C8    A    
C49   O16   A    
O16   V4    S    
C35   C43   A    
C6    C17   A    
C20   H36   S    
