data_mof_unit_24535.cif
_audit_creation_date              2012-12-10T18:59:18-0500
_audit_creation_method            fapswitch 2.2
_symmetry_space_group_name_H-M    P1
_symmetry_Int_Tables_number       1
_space_group_crystal_system       triclinic
_cell_length_a                    10.833948
_cell_length_b                    10.826885
_cell_length_c                    9.541871
_cell_angle_alpha                 90.200302
_cell_angle_beta                  90.478206
_cell_angle_gamma                 91.453927
_cell_volume                      1118.83451242

loop_
_atom_site_label
_atom_site_type_symbol
_atom_type_description
_atom_site_fract_x
_atom_site_fract_y
_atom_site_fract_z
_atom_type_partial_charge
C1    C     C_R   0.496549 0.262418 0.499654 0.825718
C2    C     C_R   0.061699 0.524301 0.628620 -0.051727
C3    C     C_R   0.127553 0.513037 0.501310 -0.184773
C4    C     C_R   0.063964 0.481270 0.377357 -0.262848
C5    C     C_R   0.937029 0.461294 0.377305 0.494909
C6    C     C_R   0.871890 0.470089 0.503913 -0.201036
C7    C     C_R   0.494512 0.064467 0.624558 0.087443
C8    C     C_R   0.483733 0.129313 0.499443 -0.127996
C9    C     C_R   0.457304 0.063185 0.375237 -0.238215
C10   C     C_R   0.458600 0.934159 0.375433 -0.220576
C11   C     C_R   0.485503 0.870640 0.500078 -0.072760
C12   C     C_R   0.262367 0.508359 0.500087 0.855976
C13   C     C_R   0.494560 0.937387 0.625117 -0.025792
C14   C     C_3   0.588084 0.932821 0.740814 -0.609472
C15   C     C_3   0.588581 0.075040 0.740465 0.950617
C16   C     C_R   0.548490 0.598341 0.074675 0.232410
C17   C     C_R   0.436280 0.411843 0.074256 -0.201030
C18   C     C_R   0.431863 0.413233 0.923237 0.624872
C19   C     C_R   0.548902 0.598311 0.927604 0.184022
C20   C     C_3   0.678420 0.647725 0.925350 -0.505498
C21   C     C_3   0.677139 0.648942 0.084089 -0.456025
C22   C     C_R   0.497905 0.737732 0.500061 0.810132
C23   C     C_R   0.737170 0.486707 0.500909 0.821962
C24   C     C_R   0.112826 0.575180 0.755367 0.436175
C25   C     C_R   0.060553 0.539982 0.884910 0.382004
C26   C     C_R   0.954218 0.464903 0.885083 -0.265048
C27   C     C_R   0.891763 0.437277 0.760212 -0.257872
C28   C     C_R   0.939503 0.478071 0.631276 -0.016724
Cu1   Cu    Cu3+1 0.499990 0.499980 0.640670 1.030471
Cu2   Cu    Cu3+1 0.500010 0.500020 0.359330 0.950064
H1    H     H_    0.112712 0.468921 0.279829 0.214539
H2    H     H_    0.673694 0.887717 0.707409 0.166970
H3    H     H_    0.390117 0.339484 0.132961 0.147677
H4    H     H_    0.742057 0.580828 0.881432 0.231976
H5    H     H_    0.687763 0.741201 0.880585 0.195123
H6    H     H_    0.742426 0.583376 0.130860 0.269042
H7    H     H_    0.681257 0.743617 0.129652 0.185521
H8    H     H_    0.915468 0.433738 0.983038 0.220084
H9    H     H_    0.807374 0.382019 0.765698 0.220945
H10   H     H_    0.441114 0.110663 0.277393 0.159296
H11   H     H_    0.443763 0.884994 0.277433 0.168232
H12   H     H_    0.545923 0.892334 0.836594 0.200927
N1    N     N_R   0.500790 0.500930 0.147930 -0.203076
N2    N     N_R   0.500790 0.500890 0.852020 -0.225668
O1    O     O_R   0.500000 0.319640 0.618810 -0.503733
O2    O     O_R   0.500010 0.319680 0.381230 -0.611716
O3    O     O_R   0.319640 0.499980 0.618820 -0.508734
O4    O     O_R   0.319650 0.500020 0.381230 -0.598805
O5    O     O_R   0.499990 0.680320 0.618770 -0.554039
O6    O     O_R   0.500000 0.680360 0.381190 -0.595834
O7    O     O_R   0.680350 0.499980 0.618770 -0.596060
O8    O     O_R   0.680360 0.500020 0.381180 -0.540687
O9    O     O_3   0.532977 0.124001 0.861571 -0.571303
C29   C     C_3   0.619438 0.132913 0.972755 -0.292984
H13   H     H_    0.687992 0.208822 0.953264 0.188892
H14   H     H_    0.666772 0.044284 0.990974 0.142313
H15   H     H_    0.569863 0.156329 0.070055 0.164915
O10   O     O_3   0.697402 0.144492 0.701661 -0.600862
C30   C     C_3   0.775587 0.084266 0.607024 -0.457854
H16   H     H_    0.724425 0.038190 0.519218 0.174517
H17   H     H_    0.834255 0.018004 0.663813 0.183099
H18   H     H_    0.838629 0.154785 0.560179 0.197374
O11   O     O_3   0.365243 0.325915 0.843728 -0.518216
C31   C     C_3   0.264433 0.271220 0.915149 -0.335044
H19   H     H_    0.210336 0.340384 0.973289 0.162834
H20   H     H_    0.296490 0.197152 0.985965 0.174610
H21   H     H_    0.201221 0.227180 0.836594 0.190036
O12   O     O_3   0.210218 0.660754 0.755130 -0.580679
C32   C     C_3   0.169633 0.772446 0.697195 -0.338800
H22   H     H_    0.085689 0.805638 0.750848 0.154325
H23   H     H_    0.152379 0.763074 0.582618 0.160864
H24   H     H_    0.243601 0.844078 0.712215 0.201822
O13   O     O_3   0.110391 0.576487 0.012574 -0.742551
H25   H     H_    0.189188 0.622651 0.997506 0.348396
O14   O     O_3   0.878507 0.431006 0.252370 -0.578823
C33   C     C_3   0.859158 0.301707 0.247578 -0.348781
H26   H     H_    0.794047 0.269753 0.330244 0.164872
H27   H     H_    0.947871 0.252384 0.256270 0.153924
H28   H     H_    0.816869 0.276679 0.145018 0.171739

loop_
_geom_bond_atom_site_label_1
_geom_bond_atom_site_label_2
_ccdc_geom_bond_type
C16   C21   S    
C1    C8    S    
O13   H25   S    
C19   C20   S    
C33   H28   S    
C12   O4    A    
C7    C8    A    
C21   H6    S    
Cu1   O5    S    
O9    C29   S    
C26   C27   A    
Cu1   O3    S    
C15   O9    S    
Cu2   O4    S    
C33   H27   S    
C5    C6    A    
C1    O2    A    
C32   H23   S    
C3    C12   S    
O12   C32   S    
C20   H5    S    
C6    C28   A    
C27   H9    S    
C8    C9    A    
C9    C10   A    
C14   H12   S    
C20   H4    S    
C7    C15   S    
Cu2   O6    S    
C30   H16   S    
C13   C14   S    
C10   H11   S    
C17   H3    S    
C12   O3    A    
C29   H14   S    
C30   H17   S    
C31   H21   S    
C33   H26   S    
C26   H8    S    
C25   C26   A    
C9    H10   S    
Cu1   O1    S    
C31   H20   S    
C5    O14   S    
C32   H24   S    
O14   C33   S    
C17   N1    A    
Cu1   Cu2   S    
C18   N2    A    
C23   O7    A    
C17   C18   A    
C24   C25   A    
C16   N1    A    
C22   O5    A    
Cu1   N2    S    
C2    C24   A    
C15   O10   S    
Cu2   N1    S    
C3    C4    A    
C19   N2    A    
Cu1   O7    S    
Cu2   O8    S    
C29   H13   S    
C30   H18   S    
Cu2   O2    S    
C14   H2    S    
C4    C5    A    
C11   C22   S    
C22   O6    A    
C31   H19   S    
C2    C3    A    
O10   C30   S    
C11   C13   A    
C1    O1    A    
C23   O8    A    
C16   C19   A    
C6    C23   S    
C25   O13   S    
C32   H22   S    
C18   O11   S    
C4    H1    S    
C10   C11   A    
C24   O12   S    
O11   C31   S    
C7    C13   A    
C21   H7    S    
C20   C21   S    
C27   C28   A    
C14   C15   S    
C2    C28   A    
C29   H15   S    
