data_mof_unit_27493.cif
_audit_creation_date              2012-12-11T18:51:45-0500
_audit_creation_method            fapswitch 2.2
_symmetry_space_group_name_H-M    P1
_symmetry_Int_Tables_number       1
_space_group_crystal_system       triclinic
_cell_length_a                    8.247676
_cell_length_b                    15.016371
_cell_length_c                    15.106062
_cell_angle_alpha                 99.265923
_cell_angle_beta                  96.930273
_cell_angle_gamma                 99.066262
_cell_volume                      1802.82295163

loop_
_atom_site_label
_atom_site_type_symbol
_atom_type_description
_atom_site_fract_x
_atom_site_fract_y
_atom_site_fract_z
_atom_type_partial_charge
Ba1   Ba    Ba6+2 0.844890 0.542420 0.457460 1.615405
Ba2   Ba    Ba6+2 0.344950 0.457650 0.542550 1.612665
C1    C     C_3   0.586507 0.874096 0.244747 -0.374607
C2    C     C_R   0.885991 0.455189 0.926712 -0.014505
C3    C     C_R   0.041670 0.463413 0.109833 -0.012108
C4    C     C_3   0.064740 0.746609 0.224604 0.346517
C5    C     C_R   0.881176 0.415968 0.077863 -0.049031
C6    C     C_R   0.796560 0.421723 0.993960 0.010920
C7    C     C_R   0.109871 0.473163 0.203039 0.063536
C8    C     C_R   0.272688 0.519713 0.231284 -0.268228
C9    C     C_R   0.080662 0.530247 0.800619 0.032296
C10   C     C_R   0.149348 0.538806 0.893665 -0.064024
C11   C     C_R   0.056698 0.497867 0.955461 -0.012204
C12   C     C_3   0.591984 0.782823 0.275268 0.373116
C13   C     C_R   0.308300 0.588702 0.926836 -0.117495
C14   C     C_R   0.385049 0.594919 0.016313 0.330765
C15   C     C_R   0.299546 0.551669 0.078582 -0.021807
C16   C     C_3   0.019181 0.782414 0.137764 -0.195215
C17   C     C_R   0.132954 0.504311 0.047977 -0.024914
C18   C     C_R   0.370224 0.556696 0.171299 0.058089
C19   C     C_R   0.918479 0.481817 0.772552 -0.269602
C20   C     C_R   0.318142 0.827967 0.461570 0.022049
C21   C     C_R   0.576323 0.793451 0.531980 0.074832
C22   C     C_R   0.777079 0.229306 0.515863 -0.279282
C23   C     C_3   0.405574 0.305442 0.257240 0.307773
C24   C     C_R   0.875003 0.171330 0.549756 0.035897
C25   C     C_R   0.809355 0.078608 0.544450 -0.155948
C26   C     C_R   0.643262 0.041788 0.503829 0.013605
C27   C     C_R   0.547102 0.101753 0.466425 -0.018905
C28   C     C_3   0.150564 0.753656 0.735338 0.228336
C29   C     C_R   0.568504 0.947988 0.499567 0.002152
C30   C     C_R   0.398026 0.918121 0.461487 -0.031039
C31   C     C_R   0.309552 0.979221 0.424991 -0.099686
C32   C     C_R   0.384082 0.067476 0.424187 -0.061104
C33   C     C_R   0.656484 0.882790 0.531611 -0.153751
C34   C     C_3   0.380370 0.270900 0.154982 0.124805
C35   C     C_R   0.403959 0.769273 0.504428 -0.233858
C36   C     C_R   0.614941 0.195380 0.472958 0.023661
C37   C     C_3   0.124643 0.782995 0.832904 -0.400796
C38   C     C_3   0.942401 0.249164 0.321112 0.289006
C39   C     C_3   0.971265 0.153462 0.280931 -0.232453
C40   C     C_3   0.728740 0.660528 0.738533 0.362913
C41   C     C_3   0.692717 0.685608 0.834254 -0.385405
C42   C     C_3   0.935786 0.083615 0.341609 -0.505845
C43   C     C_3   0.746165 0.211012 0.747522 -0.341658
C44   C     C_3   0.610856 0.406708 0.990423 -0.313524
C45   C     C_3   0.148631 0.282534 0.782812 0.331682
C46   C     C_3   0.308165 0.685546 0.528994 -0.226761
C47   C     C_3   0.006778 0.709436 0.054227 -0.491638
C48   C     C_3   0.180811 0.264726 0.879198 -0.365337
C49   C     C_3   0.561181 0.212100 0.736624 0.353636
C50   C     C_3   0.470144 0.119950 0.751665 -0.356346
C51   C     C_R   0.817521 0.447755 0.832832 0.006096
H1    H     H_    0.680987 0.794741 0.339122 0.069632
H2    H     H_    0.633590 0.602259 0.702361 0.107736
H3    H     H_    0.710131 0.903023 0.229425 0.119930
H4    H     H_    0.788273 0.743183 0.872750 0.097581
H5    H     H_    0.690210 0.625428 0.868482 0.084942
H6    H     H_    0.572537 0.709735 0.832164 0.137928
H7    H     H_    0.465753 0.755310 0.288579 -0.092934
H8    H     H_    0.551791 0.923402 0.298962 0.077109
H9    H     H_    0.283912 0.313296 0.278813 0.003638
H10   H     H_    0.491328 0.372838 0.273556 0.045969
H11   H     H_    0.313480 0.198309 0.138507 0.053801
H12   H     H_    0.243709 0.819737 0.874595 0.120883
H13   H     H_    0.503538 0.272297 0.131993 0.085449
H14   H     H_    0.493181 0.864119 0.182859 0.116352
H15   H     H_    0.114810 0.842263 0.133989 0.104766
H16   H     H_    0.260069 0.323715 0.767781 0.145236
H17   H     H_    0.049795 0.324012 0.779045 -0.024814
H18   H     H_    0.220905 0.331115 0.927048 0.124281
H19   H     H_    0.066302 0.227587 0.897753 0.102644
H20   H     H_    0.279601 0.222887 0.885664 0.148097
H21   H     H_    0.515593 0.219706 0.666450 0.096834
H22   H     H_    0.492782 0.062908 0.700595 0.074890
H23   H     H_    0.032806 0.829632 0.835444 0.103883
H24   H     H_    0.334850 0.118069 0.744266 0.166048
H25   H     H_    0.970094 0.686179 0.227177 0.108025
H26   H     H_    0.512861 0.108266 0.820797 0.108244
H27   H     H_    0.812352 0.379355 0.121139 0.105387
H28   H     H_    0.375734 0.624369 0.883003 0.098838
H29   H     H_    0.326344 0.524960 0.301318 0.050716
H30   H     H_    0.866942 0.473481 0.701739 0.065894
H31   H     H_    0.179496 0.961118 0.398133 0.119923
H32   H     H_    0.786617 0.899664 0.558488 0.099743
H33   H     H_    0.188950 0.726739 0.225492 -0.048294
H34   H     H_    0.079448 0.721805 0.861300 0.085020
H35   H     H_    0.828851 0.301125 0.520929 0.069379
H36   H     H_    0.889806 0.038191 0.574620 0.080117
H37   H     H_    0.308359 0.109003 0.392247 0.099050
H38   H     H_    0.897926 0.805706 0.138591 0.160588
H39   H     H_    0.194453 0.816459 0.708642 0.041060
H40   H     H_    0.035786 0.719518 0.690649 0.079914
H41   H     H_    0.959467 0.016290 0.308688 0.153059
H42   H     H_    0.018568 0.105347 0.407440 0.148729
H43   H     H_    0.803808 0.075379 0.351826 0.137109
H44   H     H_    0.173303 0.300641 0.104624 0.300035
H45   H     H_    0.817769 0.244038 0.341985 0.017363
H46   H     H_    0.803517 0.263151 0.711318 0.042775
H47   H     H_    0.799686 0.227445 0.820485 0.110815
H48   H     H_    0.772597 0.143273 0.717936 0.103217
H49   H     H_    0.562512 0.464305 0.967170 0.162522
H50   H     H_    0.550902 0.338333 0.952971 0.149607
H51   H     H_    0.573775 0.409247 0.058889 0.135348
H52   H     H_    0.575076 0.681523 0.997395 0.290946
H53   H     H_    0.367141 0.672842 0.593343 0.131446
H54   H     H_    0.183617 0.696352 0.543535 0.130852
H55   H     H_    0.300871 0.624764 0.475142 0.134663
H56   H     H_    0.038721 0.279855 0.380440 0.068267
H57   H     H_    0.962960 0.736895 0.994121 0.133845
H58   H     H_    0.131160 0.693027 0.047415 0.124368
H59   H     H_    0.917627 0.646930 0.057853 0.182692
H60   H     H_    0.889038 0.128074 0.214722 0.131615
H61   H     H_    0.101952 0.157964 0.268180 0.108599
H62   H     H_    0.848286 0.637113 0.741396 -0.093627
O1    O     O_2   0.826410 0.445300 0.275350 -0.468466
O2    O     O_2   0.221264 0.178143 0.565450 -0.500505
O3    O     O_3   0.106090 0.198935 0.720966 -0.623004
O4    O     O_3   0.098900 0.448430 0.388910 -0.504321
O5    O     O_3   0.590780 0.611410 0.551120 -0.507593
O6    O     O_2   0.326530 0.274990 0.446290 -0.481430
O7    O     O_3   0.473403 0.240076 0.298954 -0.680908
O8    O     O_2   0.478394 0.451425 0.815838 -0.508592
O9    O     O_3   0.527458 0.282839 0.801359 -0.624062
O10   O     O_3   0.628630 0.613330 0.338230 -0.495889
O11   O     O_2   0.716242 0.558765 0.179393 -0.469747
O12   O     O_3   0.736336 0.739334 0.699229 -0.641183
O13   O     O_3   0.945985 0.299483 0.251067 -0.659091
O14   O     O_3   0.646169 0.723693 0.207575 -0.554561
O15   O     O_2   0.863180 0.725040 0.553770 -0.473834
O16   O     O_3   0.060890 0.661420 0.386090 -0.506181
O17   O     O_2   0.977703 0.821248 0.454026 -0.487556
O18   O     O_3   0.293001 0.326587 0.109065 -0.785962
O19   O     O_3   0.544677 0.643108 0.042365 -0.712038
O20   O     O_3   0.066303 0.817706 0.296933 -0.627538
O21   O     O_2   0.363300 0.554730 0.724710 -0.457051
O22   O     O_3   0.090820 0.551650 0.611100 -0.499951
O23   O     O_3   0.561090 0.386750 0.661790 -0.476675
O24   O     O_3   0.274012 0.700017 0.732500 -0.635765
O25   O     O_3   0.598940 0.388670 0.448890 -0.467249
O26   O     O_3   0.128820 0.338650 0.613920 -0.488285
P1    P     P_3+3 0.996530 0.418490 0.288400 0.961748
P2    P     P_3+3 0.693090 0.712100 0.580610 0.972331
P3    P     P_3+3 0.105435 0.781247 0.400306 0.923001
P4    P     P_3+3 0.193180 0.581580 0.711620 0.951611
P5    P     P_3+3 0.084807 0.220716 0.609763 0.932494
P6    P     P_3+3 0.588448 0.610340 0.222241 1.022429
P7    P     P_3+3 0.503647 0.273723 0.416915 0.934244
P8    P     P_3+3 0.600742 0.392478 0.778772 0.899176

loop_
_geom_bond_atom_site_label_1
_geom_bond_atom_site_label_2
_ccdc_geom_bond_type
O17   P3    D    
O9    P8    S    
O8    P8    D    
C2    C51   A    
C49   H21   S    
C37   H34   S    
C39   H61   S    
C2    C6    A    
C50   H22   S    
C14   O19   S    
C34   O18   S    
O25   P7    S    
C5    C6    A    
C13   H28   S    
Ba2   P4    S    
C44   H49   S    
C24   C25   A    
C20   C30   A    
C42   H43   S    
C16   H38   S    
O22   P4    S    
C26   C27   A    
Ba1   O10   S    
C28   H40   S    
C47   H57   S    
C38   H45   S    
C34   H13   S    
C4    H25   S    
C46   H54   S    
C43   C49   S    
C16   H15   S    
C13   C14   A    
C38   O13   S    
C15   C18   A    
Ba1   Ba2   S    
Ba1   O4    S    
C2    C11   A    
C24   P5    S    
C48   H19   S    
C45   H16   S    
Ba1   P1    S    
C41   H5    S    
C45   O3    S    
C46   H53   S    
C19   H30   S    
Ba2   O4    S    
C8    C18   A    
C14   C15   A    
C27   C36   A    
C22   C36   A    
Ba1   O1    S    
O7    P7    S    
C50   H26   S    
C23   O7    S    
O21   P4    D    
C41   H6    S    
C47   H58   S    
C51   P8    S    
C49   O9    S    
C37   H12   S    
C21   P2    S    
O5    P2    S    
C45   C48   S    
C1    H8    S    
O23   P8    S    
H44   O18   S    
C4    C16   S    
C18   P6    S    
C11   C17   A    
C49   C50   S    
Ba2   O23   S    
C9    C10   A    
O3    P5    S    
C28   H39   S    
Ba1   O15   S    
C43   H46   S    
C48   H20   S    
C3    C5    A    
Ba2   O5    S    
C9    P4    S    
C21   C35   A    
C20   C35   A    
C44   H51   S    
C27   C32   A    
C9    C19   A    
Ba2   O21   S    
O2    P5    D    
Ba1   O5    S    
C48   H18   S    
C32   H37   S    
C45   H17   S    
C3    C7    A    
C4    O20   S    
Ba1   P2    S    
C40   H2    S    
C1    H3    S    
C29   C30   A    
C10   C13   A    
O11   P6    D    
C31   C32   A    
O6    P7    D    
O12   P2    S    
C37   H23   S    
C35   C46   S    
O15   P2    D    
C22   H35   S    
C36   P7    S    
Ba1   O25   S    
C43   H48   S    
O26   P5    S    
C47   H59   S    
O1    P1    D    
C40   O12   S    
C38   C39   S    
C12   H1    S    
C21   C33   A    
O10   P6    S    
C39   C42   S    
C29   C33   A    
C40   C41   S    
C50   H24   S    
Ba1   O22   S    
C7    C8    A    
Ba2   O6    S    
O4    P1    S    
O24   P4    S    
C28   O24   S    
C23   H10   S    
Ba2   O22   S    
C26   C29   A    
C1    H14   S    
C22   C24   A    
C39   H60   S    
Ba1   O16   S    
C43   H47   S    
C7    P1    S    
C38   H56   S    
C3    C17   A    
C1    C12   S    
C12   H7    S    
C44   H50   S    
C4    H33   S    
Ba2   O25   S    
C30   C31   A    
C42   H42   S    
C19   C51   A    
C33   H32   S    
C46   H55   S    
C15   C17   A    
C8    H29   S    
C28   C37   S    
C25   H36   S    
C23   H9    S    
C31   H31   S    
C6    C44   S    
O14   P6    S    
C42   H41   S    
C41   H4    S    
C23   C34   S    
C40   H62   S    
C10   C11   A    
C20   P3    S    
C25   C26   A    
Ba2   O26   S    
H52   O19   S    
O20   P3    S    
C34   H11   S    
O13   P1    S    
O16   P3    S    
C16   C47   S    
C5    H27   S    
C12   O14   S    
