data_mof_unit_21742.cif
_audit_creation_date              2012-10-26T18:28:25-0400
_audit_creation_method            fapswitch 2.2
_symmetry_space_group_name_H-M    P1
_symmetry_Int_Tables_number       1
_space_group_crystal_system       triclinic
_cell_length_a                    27.792268
_cell_length_b                    11.037931
_cell_length_c                    9.799475
_cell_angle_alpha                 111.090265
_cell_angle_beta                  97.946079
_cell_angle_gamma                 90.99407
_cell_volume                      2770.54482207

loop_
_atom_site_label
_atom_site_type_symbol
_atom_type_description
_atom_site_fract_x
_atom_site_fract_y
_atom_site_fract_z
_atom_type_partial_charge
C1    C     C_R   0.496468 0.254075 0.440655 0.563458
C2    C     C_R   0.868340 0.380904 0.412994 0.019550
C3    C     C_R   0.354953 0.503608 0.506227 -0.005290
C4    C     C_R   0.645319 0.497322 0.494305 -0.007080
C5    C     C_R   0.970832 0.382294 0.423762 0.016090
C6    C     C_R   0.027949 0.624046 0.539817 0.016550
C7    C     C_R   0.976975 0.622017 0.542751 0.016249
C8    C     C_R   0.022405 0.383636 0.436959 0.016577
C9    C     C_R   0.948556 0.501223 0.481553 0.031691
C10   C     C_R   0.050580 0.504670 0.491482 0.032870
C11   C     C_R   0.940491 0.265773 0.353976 -0.146477
C12   C     C_R   0.503496 0.745925 0.559348 0.563779
C13   C     C_R   0.057313 0.741702 0.583240 -0.144591
C14   C     C_R   0.890280 0.265393 0.348750 -0.119295
C15   C     C_R   0.107402 0.742054 0.585519 -0.116475
C16   C     C_R   0.407556 0.500610 0.501760 0.553908
C17   C     C_R   0.592527 0.499501 0.498295 0.555767
C18   C     C_R   0.047050 0.267713 0.399381 -0.144920
C19   C     C_R   0.953304 0.736823 0.606808 -0.145369
C20   C     C_2   0.494506 0.114821 0.407141 -0.123970
C21   C     C_2   0.505372 0.885178 0.592871 -0.123821
C22   C     C_2   0.500778 0.069545 0.516707 -0.157900
C23   C     C_R   0.101993 0.506354 0.497871 -0.027763
C24   C     C_2   0.498965 0.930453 0.483315 -0.157422
C25   C     C_2   0.504191 0.510461 0.081245 -0.024574
C26   C     C_2   0.495782 0.489593 0.918757 -0.023103
C27   C     C_R   0.176097 0.392914 0.464839 0.402527
C28   C     C_R   0.824443 0.610804 0.543114 0.402334
C29   C     C_R   0.180913 0.624807 0.549299 0.377893
C30   C     C_R   0.817883 0.380864 0.413732 0.377537
C31   C     C_R   0.274054 0.533718 0.400888 -0.072966
C32   C     C_R   0.713255 0.476600 0.358507 -0.068687
C33   C     C_R   0.323782 0.529057 0.395935 -0.146777
C34   C     C_R   0.897296 0.499226 0.478924 -0.031417
C35   C     C_R   0.663355 0.479172 0.361974 -0.149611
C36   C     C_R   0.335613 0.481883 0.621115 -0.149336
C37   C     C_R   0.678069 0.512358 0.623042 -0.146862
C38   C     C_R   0.285452 0.484924 0.626259 0.033868
C39   C     C_R   0.728321 0.508765 0.620532 0.032465
C40   C     C_R   0.254536 0.511317 0.514649 0.237282
C41   C     C_R   0.745928 0.491468 0.486680 0.237446
C42   C     C_R   0.266105 0.458038 0.746881 0.049697
C43   C     C_R   0.275794 0.342010 0.770624 -0.074342
C44   C     C_R   0.257417 0.315684 0.883668 -0.100750
C45   C     C_R   0.125257 0.389014 0.456917 0.024339
C46   C     C_R   0.229446 0.405032 0.974213 -0.104944
C47   C     C_R   0.220076 0.521292 0.952510 -0.118721
C48   C     C_R   0.238404 0.548048 0.839623 -0.084698
C49   C     C_R   0.761524 0.522789 0.758392 0.047800
C50   C     C_R   0.760130 0.631017 0.888698 -0.076104
C51   C     C_R   0.790608 0.643140 0.019772 -0.107150
C52   C     C_R   0.822553 0.547280 0.022070 -0.097593
C53   C     C_R   0.824040 0.439080 0.893261 -0.109110
C54   C     C_R   0.793570 0.426461 0.762025 -0.085218
C55   C     C_R   0.874912 0.615459 0.542861 0.021005
C56   C     C_R   0.097436 0.270642 0.409374 -0.116048
C57   C     C_R   0.903323 0.733293 0.606862 -0.118376
C58   C     C_R   0.130238 0.625375 0.544903 0.022594
Cu1   Cu    Cu3+1 0.508480 0.521810 0.644910 0.941726
Cu2   Cu    Cu3+1 0.491520 0.478190 0.355090 0.942278
H1    H     H_    0.359517 0.461832 0.706517 0.118609
H2    H     H_    0.887050 0.823870 0.658241 0.163200
H3    H     H_    0.638955 0.467549 0.261155 0.132224
H4    H     H_    0.337895 0.546562 0.306509 0.137582
H5    H     H_    0.726739 0.464235 0.256104 0.131505
H6    H     H_    0.250372 0.553561 0.315122 0.122206
H7    H     H_    0.868718 0.173430 0.294894 0.164981
H8    H     H_    0.128223 0.834809 0.619842 0.165723
H9    H     H_    0.954316 0.172931 0.299381 0.109512
H10   H     H_    0.042604 0.835752 0.613193 0.108843
H11   H     H_    0.028547 0.172578 0.365222 0.108580
H12   H     H_    0.664569 0.525240 0.725619 0.130407
H13   H     H_    0.972541 0.831240 0.661938 0.108944
H14   H     H_    0.492348 0.864726 0.368054 0.157119
H15   H     H_    0.507341 0.135272 0.631972 0.156697
H16   H     H_    0.297136 0.271413 0.700647 0.120759
H17   H     H_    0.264771 0.225830 0.900845 0.127725
H18   H     H_    0.215126 0.384254 0.061331 0.124258
H19   H     H_    0.198715 0.590883 0.023464 0.121104
H20   H     H_    0.231440 0.639399 0.825786 0.147183
H21   H     H_    0.735588 0.706155 0.888583 0.124416
H22   H     H_    0.789394 0.726775 0.119672 0.127295
H23   H     H_    0.512005 0.951184 0.707937 0.105970
H24   H     H_    0.845995 0.556572 0.123750 0.121453
H25   H     H_    0.848562 0.364435 0.895352 0.120855
H26   H     H_    0.794404 0.340575 0.664264 0.147585
H27   H     H_    0.487929 0.048815 0.292072 0.106189
H28   H     H_    0.467426 0.417549 0.845862 0.143439
H29   H     H_    0.532530 0.582548 0.154145 0.146012
H30   H     H_    0.547942 0.622288 0.934319 0.202630
H31   H     H_    0.452067 0.377682 0.065674 0.202741
H32   H     H_    0.114518 0.179115 0.379368 0.164480
N1    N     N_R   0.202751 0.509717 0.511152 -0.399661
N2    N     N_R   0.797226 0.494397 0.480985 -0.398786
N3    N     N_2   0.478780 0.445430 0.137360 -0.352455
N4    N     N_2   0.521220 0.554570 0.862640 -0.351964
O1    O     O_R   0.504520 0.332330 0.577400 -0.497773
O2    O     O_2   0.802670 0.721574 0.604873 -0.501423
O3    O     O_2   0.789763 0.268096 0.350267 -0.509737
O4    O     O_2   0.208261 0.738271 0.592528 -0.510509
O5    O     O_R   0.495480 0.667670 0.422600 -0.497673
O6    O     O_R   0.490210 0.295500 0.332650 -0.486994
O7    O     O_R   0.509790 0.704500 0.667350 -0.486882
O8    O     O_R   0.437420 0.518430 0.622370 -0.498632
O9    O     O_R   0.562580 0.481570 0.377630 -0.499174
O10   O     O_R   0.423110 0.481600 0.377610 -0.492822
O11   O     O_R   0.576890 0.518400 0.622390 -0.494773
O12   O     O_2   0.198731 0.280996 0.425416 -0.501492

loop_
_geom_bond_atom_site_label_1
_geom_bond_atom_site_label_2
_ccdc_geom_bond_type
C23   C58   A    
C38   C40   A    
C23   C45   A    
C31   H6    S    
C47   H19   S    
C40   N1    S    
C24   H14   S    
C57   H2    S    
C39   C41   A    
C53   C54   A    
C19   C57   A    
Cu1   O8    S    
C3    C36   A    
C44   H17   S    
C38   C42   S    
C17   O11   A    
C11   C14   A    
C13   H10   S    
C3    C33   A    
C49   C54   A    
C20   H27   S    
C43   H16   S    
C31   C40   A    
C28   N2    A    
C52   H24   S    
C16   O8    A    
C21   H23   S    
C45   C56   A    
C47   C48   A    
C14   H7    S    
C31   C33   A    
C16   O10   A    
C27   C45   A    
C4    C35   A    
Cu1   Cu2   S    
C22   H15   S    
Cu2   O6    S    
C28   C55   A    
C44   C46   A    
C26   N4    D    
C51   C52   A    
C32   C35   A    
C19   H13   S    
C12   O7    A    
C1    O1    A    
C46   H18   S    
C30   N2    A    
C25   C26   S    
C30   O3    S    
C8    C18   A    
C43   C44   A    
C5    C9    A    
C17   O9    A    
C41   N2    S    
C32   C41   A    
C50   C51   A    
C34   C55   A    
C42   C48   A    
C4    C37   A    
C51   H22   S    
C4    C17   S    
C8    C10   A    
C39   C49   S    
C20   C22   D    
C25   N3    D    
C7    C19   A    
C55   C57   A    
C5    C11   A    
C9    C34   A    
Cu1   O1    S    
C15   C58   A    
C22   C24   S    
C27   N1    A    
C42   C43   A    
C21   C24   D    
Cu2   O5    S    
Cu2   O10   S    
C52   C53   A    
C54   H26   S    
C28   O2    S    
C18   H11   S    
C7    C9    A    
C46   C47   A    
C1    C20   S    
C29   O4    S    
C6    C10   A    
C5    C8    A    
C35   H3    S    
C11   H9    S    
H30   N4    S    
C6    C7    A    
C18   C56   A    
C10   C23   A    
C25   H29   S    
C2    C30   A    
Cu1   O7    S    
C48   H20   S    
C13   C15   A    
C12   O5    A    
C37   C39   A    
C6    C13   A    
C29   N1    A    
C2    C34   A    
C27   O12   S    
C33   H4    S    
C15   H8    S    
C12   C21   S    
C36   C38   A    
C2    C14   A    
Cu1   O11   S    
Cu2   O9    S    
H31   N3    S    
Cu2   N3    S    
C56   H32   S    
C29   C58   A    
C26   H28   S    
C49   C50   A    
Cu1   N4    S    
C37   H12   S    
C53   H25   S    
C1    O6    A    
C3    C16   S    
C36   H1    S    
C50   H21   S    
C32   H5    S    
