data_mof_unit_49043.cif
_audit_creation_date              2012-12-10T20:27:59-0500
_audit_creation_method            fapswitch 2.2
_symmetry_space_group_name_H-M    P1
_symmetry_Int_Tables_number       1
_space_group_crystal_system       triclinic
_cell_length_a                    12.824466
_cell_length_b                    10.696098
_cell_length_c                    10.023939
_cell_angle_alpha                 88.226366
_cell_angle_beta                  96.763644
_cell_angle_gamma                 94.058471
_cell_volume                      1361.65273939

loop_
_atom_site_label
_atom_site_type_symbol
_atom_type_description
_atom_site_fract_x
_atom_site_fract_y
_atom_site_fract_z
_atom_type_partial_charge
C1    C     C_R   0.504708 0.260465 0.502008 0.922217
C2    C     C_R   0.548977 0.942944 0.387860 -0.249569
C3    C     C_R   0.527103 0.872511 0.502468 0.008816
C4    C     C_R   0.299474 0.510157 0.474008 0.927215
C5    C     C_R   0.528193 0.932683 0.623700 -0.107712
C6    C     C_3   0.456688 0.912234 0.730839 0.434616
C7    C     C_3   0.452105 0.052816 0.729189 0.525199
C8    C     C_R   0.409635 0.465500 0.057130 -0.042580
C9    C     C_R   0.585662 0.549242 0.078039 0.157671
C10   C     C_R   0.583792 0.546953 0.935677 -0.149381
C11   C     C_R   0.410095 0.471208 0.916312 0.076262
C12   C     C_R   0.031476 0.537153 0.567510 -0.059578
C13   C     C_3   0.339264 0.358840 0.891831 1.086221
C14   C     C_3   0.337491 0.343543 0.044788 -0.074596
C15   C     C_R   0.505861 0.739822 0.499374 0.882628
C16   C     C_R   0.701541 0.497061 0.527123 0.928761
C17   C     C_R   0.814696 0.498436 0.547126 -0.247279
C18   C     C_R   0.188476 0.529658 0.460004 -0.084920
C19   C     C_R   0.020935 0.504483 0.326721 -0.124412
C20   C     C_R   0.128925 0.524275 0.334331 -0.226236
C21   C     C_R   0.140040 0.549164 0.574867 -0.036026
C22   C     C_3   0.690881 0.601998 0.146433 -0.363181
C23   C     C_R   0.973121 0.501769 0.444566 -0.017024
C24   C     C_3   0.688616 0.731409 0.206275 -0.361261
C25   C     C_3   0.798092 0.799217 0.225625 -0.876084
C26   C     C_3   0.227137 0.359949 0.088447 -0.359852
C27   C     C_3   0.139786 0.260474 0.036025 -0.310232
C28   C     C_3   0.031009 0.296773 0.060606 -0.820678
C29   C     C_3   0.390487 0.226532 0.111057 -0.351667
C30   C     C_3   0.348388 0.098508 0.050356 -0.301752
C31   C     C_3   0.308077 0.004216 0.153764 -0.867279
C32   C     C_R   0.867663 0.466971 0.441082 0.524025
C33   C     C_R   0.870858 0.540322 0.668330 -0.378472
C34   C     C_R   0.979982 0.554455 0.680494 0.651258
C35   C     C_R   0.525971 0.060188 0.624943 -0.125357
C36   C     C_R   0.525793 0.130392 0.506077 -0.007259
C37   C     C_R   0.549862 0.072755 0.390209 -0.181625
F1    F     F_    0.819160 0.394899 0.339720 -0.691946
F2    F     F_    0.353350 0.089612 0.678404 -0.550688
F3    F     F_    0.246300 0.388725 0.817376 -0.680735
F4    F     F_    0.388477 0.269402 0.833456 -0.661466
F5    F     F_    0.034183 0.589911 0.799484 -0.663101
F6    F     F_    0.360887 0.850739 0.685169 -0.593885
H1    H     H_    0.495733 0.872336 0.826048 0.000666
H2    H     H_    0.853396 0.741822 0.290882 0.268048
H3    H     H_    0.828485 0.817805 0.127119 0.270447
H4    H     H_    0.793778 0.890292 0.274304 0.264919
H5    H     H_    0.635278 0.789739 0.139201 0.213167
H6    H     H_    0.661762 0.721084 0.306286 0.260355
H7    H     H_    0.726630 0.534188 0.215974 0.283838
H8    H     H_    0.749857 0.611840 0.073056 0.175955
H9    H     H_    0.024725 0.294448 0.170057 0.270527
H10   H     H_    0.015783 0.391445 0.017152 0.290817
H11   H     H_    0.970118 0.228163 0.012461 0.256317
H12   H     H_    0.488868 0.096895 0.823240 0.041765
H13   H     H_    0.138713 0.245470 0.927094 0.286150
H14   H     H_    0.152151 0.169796 0.088793 0.228528
H15   H     H_    0.234175 0.355354 0.199637 0.214512
H16   H     H_    0.202399 0.453947 0.052509 0.233367
H17   H     H_    0.374904 0.967734 0.219437 0.271934
H18   H     H_    0.256152 0.046783 0.218115 0.269200
H19   H     H_    0.263584 0.923728 0.101097 0.271044
H20   H     H_    0.285453 0.109276 0.965856 0.274925
H21   H     H_    0.413319 0.055410 0.008951 0.209312
H22   H     H_    0.476683 0.238027 0.104877 0.185166
H23   H     H_    0.651003 0.582043 0.886326 0.143647
H24   H     H_    0.379100 0.224268 0.218617 0.244215
H25   H     H_    0.830658 0.562442 0.752928 0.201054
H26   H     H_    0.974798 0.492900 0.229717 0.183122
H27   H     H_    0.165666 0.531901 0.243404 0.166644
H28   H     H_    0.186494 0.568960 0.670149 0.246935
H29   H     H_    0.560488 0.125840 0.298651 0.171943
H30   H     H_    0.555453 0.899052 0.294031 0.153737
N1    N     N_R   0.499290 0.499140 0.142710 -0.101171
N2    N     N_R   0.499290 0.499180 0.857070 -0.116278
O1    O     O_R   0.500010 0.316790 0.614690 -0.542041
O2    O     O_R   0.500000 0.316760 0.385350 -0.653171
O3    O     O_R   0.346360 0.499990 0.595720 -0.554285
O4    O     O_R   0.346350 0.499960 0.366370 -0.636629
O5    O     O_R   0.500000 0.683240 0.614650 -0.594024
O6    O     O_R   0.499990 0.683210 0.385310 -0.654112
O7    O     O_R   0.653650 0.500040 0.633630 -0.649792
O8    O     O_R   0.653640 0.500010 0.404280 -0.599990
Zn1   Zn    Zn3+2 0.500010 0.500020 0.653130 1.037375
Zn2   Zn    Zn3+2 0.499990 0.499980 0.346870 0.952803

loop_
_geom_bond_atom_site_label_1
_geom_bond_atom_site_label_2
_ccdc_geom_bond_type
C30   H21   S    
C18   C21   A    
C1    O2    A    
C31   H18   S    
C35   C36   A    
C34   F5    S    
C7    H12   S    
O5    Zn1   S    
O1    Zn1   S    
C13   F4    S    
C15   O6    A    
C12   C23   A    
C26   C27   S    
C21   H28   S    
C36   C37   A    
C30   C31   S    
C9    C22   S    
C11   C13   S    
C13   F3    S    
C29   H24   S    
C19   C20   A    
C16   C17   S    
C32   F1    S    
C9    C10   A    
C25   H4    S    
C22   H7    S    
C4    C18   S    
O2    Zn2   S    
C6    H1    S    
C30   H20   S    
C31   H19   S    
C20   H27   S    
C17   C33   A    
C16   O7    A    
C10   H23   S    
C24   H5    S    
C24   C25   S    
C4    O4    A    
C27   H14   S    
C28   H11   S    
C27   H13   S    
C12   C21   A    
C16   O8    A    
C31   H17   S    
C19   C23   A    
C4    O3    A    
C29   C30   S    
C10   N2    A    
C15   O5    A    
C8    N1    A    
C33   C34   A    
C14   C26   S    
C26   H15   S    
C2    H30   S    
C29   H22   S    
O8    Zn2   S    
O7    Zn1   S    
C6    F6    S    
C22   C24   S    
C19   H26   S    
C9    N1    A    
C14   C29   S    
C12   C34   A    
C25   H2    S    
O4    Zn2   S    
C3    C15   S    
C26   H16   S    
C24   H6    S    
C8    C14   S    
C1    O1    A    
C7    C35   S    
C3    C5    A    
C28   H10   S    
C6    C7    S    
C23   C32   A    
C2    C3    A    
C11   N2    A    
C28   H9    S    
C2    C37   A    
C5    C6    S    
C8    C11   A    
C5    C35   A    
C18   C20   A    
N1    Zn2   S    
N2    Zn1   S    
O3    Zn1   S    
C33   H25   S    
C37   H29   S    
C27   C28   S    
C17   C32   A    
C7    F2    S    
C13   C14   S    
C25   H3    S    
O6    Zn2   S    
C1    C36   S    
C22   H8    S    
