data_mof_unit_36515.cif
_audit_creation_date              2012-12-10T18:43:08-0500
_audit_creation_method            fapswitch 2.2
_symmetry_space_group_name_H-M    P1
_symmetry_Int_Tables_number       1
_space_group_crystal_system       triclinic
_cell_length_a                    18.112011
_cell_length_b                    18.086874
_cell_length_c                    18.068205
_cell_angle_alpha                 119.990703
_cell_angle_beta                  89.983886
_cell_angle_gamma                 59.954465
_cell_volume                      4182.45038189

loop_
_atom_site_label
_atom_site_type_symbol
_atom_type_description
_atom_site_fract_x
_atom_site_fract_y
_atom_site_fract_z
_atom_type_partial_charge
C1    C     C_R   0.891649 0.216657 0.608253 0.500014
C2    C     C_3   0.551546 0.897533 0.948775 0.052823
C3    C     C_R   0.884407 0.503260 0.326169 -0.071051
C4    C     C_R   0.845893 0.532636 0.270251 -0.113723
C5    C     C_R   0.836902 0.616999 0.276231 -0.106000
C6    C     C_R   0.865648 0.672763 0.338642 -0.107748
C7    C     C_R   0.903531 0.644176 0.395121 -0.092272
C8    C     C_R   0.086346 0.441167 0.611010 0.046455
C9    C     C_R   0.115593 0.496741 0.673829 -0.071050
C10   C     C_R   0.154109 0.467363 0.729746 -0.113726
C11   C     C_R   0.163100 0.383001 0.723767 -0.106001
C12   C     C_R   0.134352 0.327238 0.661358 -0.107744
C13   C     C_3   0.412596 0.034490 0.024075 -0.129781
C14   C     C_R   0.096468 0.355826 0.604880 -0.092271
C15   C     C_3   0.587401 0.965509 0.975921 -0.129785
C16   C     C_3   0.981450 0.430465 0.446211 -0.163912
C17   C     C_3   0.018548 0.569537 0.553789 -0.163912
C18   C     C_3   0.076685 0.403899 0.447867 0.007177
C19   C     C_3   0.923313 0.596102 0.552134 0.007193
C20   C     C_3   0.052931 0.498860 0.448982 0.050778
C21   C     C_3   0.947067 0.501141 0.551018 0.050781
C22   C     C_3   0.958019 0.526466 0.447815 -0.040386
C23   C     C_R   0.108351 0.783343 0.391747 0.500016
C24   C     C_3   0.041979 0.473536 0.552184 -0.040389
C25   C     C_3   0.982967 0.033906 0.446605 -0.108433
C26   C     C_3   0.017033 0.966094 0.553394 -0.108434
C27   C     C_R   0.608534 0.783097 0.891302 0.518822
C28   C     C_R   0.391465 0.216902 0.108699 0.518794
C29   C     C_3   0.956818 0.965009 0.447629 -0.125106
C30   C     C_3   0.043182 0.034991 0.552371 -0.125103
C31   C     C_3   0.051056 0.897925 0.449323 0.067678
C32   C     C_3   0.948944 0.102075 0.550677 0.067679
C33   C     C_3   0.078104 0.965024 0.447470 -0.126364
C34   C     C_3   0.553064 0.430677 0.412578 -0.106243
C35   C     C_3   0.921896 0.034976 0.552530 -0.126366
C36   C     C_3   0.931149 0.503587 0.034594 -0.139670
C37   C     C_3   0.068855 0.496409 0.965403 -0.139673
C38   C     C_3   0.951241 0.586949 0.085369 -0.141447
C39   C     C_3   0.048762 0.413049 0.914628 -0.141451
C40   C     C_3   0.052301 0.498432 0.050081 0.054579
C41   C     C_3   0.947702 0.501565 0.949916 0.054578
C42   C     C_3   0.032844 0.415812 0.000045 0.009761
C43   C     C_3   0.967160 0.584185 0.999951 0.009764
C44   C     C_3   0.587127 0.439008 0.991161 -0.122218
C45   C     C_3   0.446936 0.569322 0.587422 -0.106241
C46   C     C_3   0.412873 0.560988 0.008835 -0.122226
C47   C     C_3   0.524272 0.402336 0.963769 -0.134456
C48   C     C_3   0.475728 0.597660 0.036227 -0.134464
C49   C     C_3   0.448583 0.502257 0.053532 0.048026
C50   C     C_3   0.551418 0.497739 0.946465 0.048025
C51   C     C_R   0.608502 0.499758 0.891376 0.489994
C52   C     C_R   0.391498 0.500242 0.108623 0.489990
C53   C     C_3   0.510472 0.538755 0.081084 -0.005583
C54   C     C_3   0.489529 0.461241 0.918913 -0.005584
C55   C     C_R   0.890283 0.501079 0.608380 0.553077
C56   C     C_3   0.476675 0.964859 0.925221 -0.136086
C57   C     C_R   0.109716 0.498921 0.391620 0.553078
C58   C     C_R   0.891019 0.500610 0.892167 0.499764
C59   C     C_R   0.108982 0.499389 0.107832 0.499755
C60   C     C_R   0.608310 0.500002 0.608345 0.505535
C61   C     C_R   0.391689 0.499998 0.391655 0.505535
C62   C     C_3   0.551444 0.527043 0.483131 -0.123514
C63   C     C_3   0.448556 0.472957 0.516869 -0.123511
C64   C     C_3   0.446742 0.596081 0.518377 -0.128589
C65   C     C_3   0.553257 0.403919 0.481623 -0.128586
C66   C     C_3   0.449174 0.499791 0.448782 0.065898
C67   C     C_3   0.523323 0.035140 0.074775 -0.136066
C68   C     C_3   0.550826 0.500209 0.551218 0.065901
C69   C     C_R   0.075008 0.318550 0.997795 0.063917
C70   C     C_R   0.022497 0.304474 0.039480 -0.074906
C71   C     C_R   0.063434 0.215105 0.039261 -0.106565
C72   C     C_R   0.156778 0.139028 0.996947 -0.098929
C73   C     C_R   0.209312 0.152136 0.954652 -0.103100
C74   C     C_R   0.168710 0.241627 0.955188 -0.070430
C75   C     C_R   0.925005 0.681444 0.002198 0.063919
C76   C     C_R   0.977523 0.695509 0.960509 -0.074907
C77   C     C_R   0.936596 0.784876 0.960725 -0.106572
C78   C     C_3   0.511414 0.034214 0.953759 -0.004939
C79   C     C_R   0.843255 0.860963 0.003041 -0.098932
C80   C     C_R   0.790712 0.847866 0.045341 -0.103098
C81   C     C_R   0.831305 0.758377 0.044807 -0.070427
C82   C     C_R   0.527679 0.584705 0.169589 0.030143
C83   C     C_R   0.595119 0.602490 0.172850 -0.114766
C84   C     C_R   0.612190 0.646261 0.253869 -0.125607
C85   C     C_R   0.562900 0.671669 0.332194 -0.103209
C86   C     C_R   0.495435 0.654757 0.329876 -0.119851
C87   C     C_R   0.477229 0.612326 0.249245 -0.081769
C88   C     C_R   0.472326 0.415291 0.830406 0.030154
C89   C     C_3   0.488583 0.965785 0.046235 -0.004929
C90   C     C_R   0.404878 0.397518 0.827143 -0.114767
C91   C     C_R   0.387813 0.353743 0.746121 -0.125607
C92   C     C_R   0.437115 0.328321 0.667795 -0.103212
C93   C     C_R   0.504588 0.345222 0.670114 -0.119853
C94   C     C_R   0.522788 0.387655 0.750748 -0.081765
C95   C     C_R   0.519646 0.075610 0.902082 0.047864
C96   C     C_R   0.603825 0.049287 0.863771 -0.065920
C97   C     C_R   0.610340 0.087317 0.814883 -0.113824
C98   C     C_R   0.533093 0.151769 0.803958 -0.112306
C99   C     C_R   0.449025 0.178824 0.842327 -0.117093
C100  C     C_3   0.448453 0.102466 0.051221 0.052837
C101  C     C_R   0.442289 0.140712 0.891032 -0.095101
C102  C     C_R   0.480351 0.924376 0.097900 0.047926
C103  C     C_R   0.396207 0.950502 0.136029 -0.065859
C104  C     C_R   0.389692 0.912458 0.184903 -0.113854
C105  C     C_R   0.466905 0.848194 0.196000 -0.112301
C106  C     C_R   0.550943 0.821327 0.157804 -0.117077
C107  C     C_R   0.557679 0.859444 0.109105 -0.095119
C108  C     C_2   0.162019 0.295150 0.390246 0.223281
C109  C     C_2   0.837979 0.704852 0.609755 0.223256
C110  C     C_R   0.913653 0.558835 0.388989 0.046456
H1    H     H_    0.402015 0.674798 0.532366 0.104336
H2    H     H_    0.087202 0.341487 0.844091 0.100543
H3    H     H_    0.873248 0.507367 0.061252 0.096632
H4    H     H_    0.126758 0.492628 0.938745 0.096623
H5    H     H_    0.543788 0.322169 0.935011 0.126208
H6    H     H_    0.456212 0.677826 0.064983 0.126193
H7    H     H_    0.659169 0.388617 0.983288 0.126149
H8    H     H_    0.340832 0.611379 0.016708 0.126141
H9    H     H_    0.594591 0.549228 0.470276 0.116709
H10   H     H_    0.405409 0.450772 0.529724 0.116710
H11   H     H_    0.595764 0.373799 0.339919 0.128520
H12   H     H_    0.597984 0.325201 0.467634 0.104335
H13   H     H_    0.404236 0.626201 0.660081 0.128518
H14   H     H_    0.459065 0.934126 0.862836 0.115121
H15   H     H_    0.540933 0.065873 0.137159 0.115111
H16   H     H_    0.340158 0.065173 0.044247 0.123904
H17   H     H_    0.659838 0.934834 0.955753 0.123889
H18   H     H_    0.966459 0.372878 0.403734 0.114801
H19   H     H_    0.033539 0.627124 0.596266 0.114798
H20   H     H_    0.950274 0.362534 0.072658 0.095121
H21   H     H_    0.022771 0.204890 0.071990 0.101600
H22   H     H_    0.188374 0.069910 0.996843 0.101688
H23   H     H_    0.922588 0.934070 0.403623 0.106832
H24   H     H_    0.281490 0.093065 0.921572 0.094701
H25   H     H_    0.210237 0.251383 0.922882 0.082301
H26   H     H_    0.049746 0.637444 0.927329 0.095120
H27   H     H_    0.977266 0.795082 0.927992 0.101598
H28   H     H_    0.811666 0.930080 0.003144 0.101703
H29   H     H_    0.718537 0.906947 0.078425 0.094678
H30   H     H_    0.789772 0.748630 0.077117 0.082300
H31   H     H_    0.634002 0.583263 0.112723 0.106380
H32   H     H_    0.663282 0.661016 0.255977 0.103591
H33   H     H_    0.576517 0.705153 0.394784 0.116823
H34   H     H_    0.077412 0.065930 0.596377 0.106834
H35   H     H_    0.456665 0.675317 0.390798 0.100337
H36   H     H_    0.423144 0.602915 0.250533 0.117627
H37   H     H_    0.365985 0.416757 0.887271 0.106351
H38   H     H_    0.336715 0.338996 0.744012 0.103602
H39   H     H_    0.423503 0.294834 0.605202 0.116823
H40   H     H_    0.543368 0.324651 0.609192 0.100333
H41   H     H_    0.576880 0.397057 0.749462 0.117615
H42   H     H_    0.664524 0.999130 0.871048 0.110264
H43   H     H_    0.675363 0.066653 0.785300 0.103242
H44   H     H_    0.538491 0.180781 0.765876 0.124933
H45   H     H_    0.968089 0.063539 0.403681 0.124394
H46   H     H_    0.389134 0.229031 0.834108 0.095649
H47   H     H_    0.376864 0.161928 0.920200 0.093309
H48   H     H_    0.335532 0.000503 0.128612 0.110118
H49   H     H_    0.324694 0.932965 0.214339 0.103227
H50   H     H_    0.461506 0.819176 0.234076 0.124935
H51   H     H_    0.610810 0.771261 0.166152 0.095665
H52   H     H_    0.623080 0.838369 0.080069 0.093267
H53   H     H_    0.168637 0.234349 0.394216 0.088212
H54   H     H_    0.831360 0.765653 0.605784 0.088185
H55   H     H_    0.891416 0.437240 0.319997 0.099873
H56   H     H_    0.031911 0.936461 0.596319 0.124394
H57   H     H_    0.823149 0.489847 0.222138 0.098631
H58   H     H_    0.807447 0.639435 0.232724 0.087862
H59   H     H_    0.858694 0.738056 0.343175 0.095703
H60   H     H_    0.925944 0.687790 0.442931 0.085834
H61   H     H_    0.108585 0.562760 0.680001 0.099872
H62   H     H_    0.176855 0.510151 0.777857 0.098625
H63   H     H_    0.192556 0.360564 0.767273 0.087868
H64   H     H_    0.141306 0.261946 0.656825 0.095708
H65   H     H_    0.074054 0.312213 0.557070 0.085837
H66   H     H_    0.143203 0.934124 0.403333 0.106822
H67   H     H_    0.856797 0.065876 0.596667 0.106818
H68   H     H_    0.912801 0.658510 0.155906 0.100540
O1    O     O_3   0.750010 0.499980 0.749990 -0.444216
O2    O     O_R   0.305750 0.265450 0.132730 -0.530791
O3    O     O_R   0.867280 0.265410 0.571220 -0.554536
O4    O     O_R   0.132720 0.734590 0.428780 -0.554536
O5    O     O_R   0.571230 0.734580 0.867270 -0.540673
O6    O     O_R   0.428770 0.265420 0.132730 -0.540663
O7    O     O_R   0.694200 0.438470 0.867270 -0.554551
O8    O     O_R   0.305800 0.561530 0.132730 -0.554553
O9    O     O_R   0.867340 0.561470 0.694210 -0.496269
O10   O     O_R   0.132660 0.438530 0.305790 -0.496263
O11   O     O_R   0.867310 0.438430 0.867270 -0.548828
O12   O     O_3   0.249990 0.500020 0.250010 -0.444215
O13   O     O_R   0.132690 0.561570 0.132730 -0.548831
O14   O     O_R   0.694200 0.438520 0.571220 -0.543127
O15   O     O_R   0.305800 0.561480 0.428780 -0.543127
O16   O     O_R   0.867340 0.561440 0.867270 -0.536816
O17   O     O_R   0.132660 0.438560 0.132730 -0.536820
O18   O     O_R   0.571190 0.561530 0.694210 -0.548502
O19   O     O_R   0.428810 0.438470 0.305790 -0.548501
O20   O     O_2   0.224094 0.274266 0.339019 -0.498385
O21   O     O_2   0.775904 0.725736 0.660982 -0.498429
O22   O     O_R   0.571190 0.561490 0.867270 -0.544871
O23   O     O_R   0.428810 0.438510 0.132730 -0.544873
O24   O     O_R   0.867310 0.438490 0.571220 -0.560087
O25   O     O_R   0.132690 0.561510 0.428780 -0.560087
O26   O     O_R   0.867280 0.265380 0.694210 -0.544304
O27   O     O_R   0.132720 0.734620 0.305790 -0.544302
O28   O     O_R   0.694250 0.734550 0.867270 -0.530780
Zn1   Zn    Zn3+2 0.618190 0.587870 0.793920 0.933003
Zn2   Zn    Zn3+2 0.381810 0.412130 0.206080 0.933000
Zn3   Zn    Zn3+2 0.793940 0.412090 0.793920 0.913029
Zn4   Zn    Zn3+2 0.206060 0.587910 0.206080 0.913018
Zn5   Zn    Zn3+2 0.793970 0.587840 0.793920 0.975223
Zn6   Zn    Zn3+2 0.206030 0.412160 0.206080 0.975213
Zn7   Zn    Zn3+2 0.793940 0.412130 0.618200 0.925499
Zn8   Zn    Zn3+2 0.206060 0.587870 0.381800 0.925500

loop_
_geom_bond_atom_site_label_1
_geom_bond_atom_site_label_2
_ccdc_geom_bond_type
C35   H67   S    
C81   H30   S    
C29   H23   S    
C63   C65   S    
C16   C21   S    
C38   H68   S    
C87   H36   S    
C89   C102  S    
C25   H45   S    
O5    Zn1   S    
C73   C74   A    
O25   Zn8   S    
C36   C42   S    
C95   C96   A    
C90   H37   S    
C70   H20   S    
C85   H33   S    
C98   H44   S    
C97   C98   A    
C76   H26   S    
C30   H34   S    
O15   Zn8   S    
C39   C41   S    
C85   C86   A    
C45   H13   S    
C47   H5    S    
C46   C49   S    
C60   O18   A    
C93   C94   A    
C18   C24   S    
C56   H14   S    
C19   C21   S    
C77   H27   S    
C41   C58   S    
C37   C40   S    
C67   H15   S    
C5    C6    A    
C67   C89   S    
C5    H58   S    
C105  H50   S    
C106  C107  A    
C3    C110  A    
C10   H62   S    
C82   C87   A    
C96   H42   S    
O1    Zn5   S    
C34   C62   S    
C17   C20   S    
C56   C78   S    
C46   H8    S    
C52   O23   A    
C106  H51   S    
O2    Zn6   S    
C33   H66   S    
O12   Zn6   S    
C104  C105  A    
C57   O10   A    
C62   C64   S    
C8    C24   S    
O16   Zn5   S    
C59   O13   A    
C61   C66   S    
C8    C9    A    
C22   C110  S    
O26   Zn3   S    
C8    C14   A    
C31   C33   S    
C70   C71   A    
C97   H43   S    
C30   C32   S    
C9    C10   A    
C46   C54   S    
C44   C47   S    
C48   H6    S    
C13   C56   S    
C28   C100  S    
C25   C32   S    
C48   C50   S    
C63   C66   S    
C101  H47   S    
C26   C31   S    
C40   C59   S    
C15   H17   S    
C96   C97   A    
C43   C75   S    
C41   C43   S    
O1    Zn7   S    
C36   C41   S    
C69   C70   A    
C52   O8    A    
C58   O11   A    
C74   H25   S    
C36   H3    S    
O28   Zn5   S    
C34   C65   S    
C91   H38   S    
C93   H40   S    
C72   H22   S    
C39   C42   S    
C46   C48   S    
C77   C79   A    
C25   C29   S    
C48   C53   S    
C108  H53   S    
O1    Zn1   S    
C11   H63   S    
C17   C24   S    
C17   H19   S    
C32   C35   S    
C69   C74   A    
C19   C22   S    
C76   C77   A    
C23   O4    A    
C47   C49   S    
C10   C11   A    
C61   O19   A    
C91   C92   A    
C83   H31   S    
C1    O3    A    
C86   C87   A    
C4    C5    A    
C64   H1    S    
C37   H4    S    
C59   O17   A    
C94   H41   S    
C55   O24   A    
C45   C63   S    
C1    C32   S    
C53   C82   S    
C23   C31   S    
C37   C43   S    
C2    C89   S    
C75   C76   A    
C14   H65   S    
C51   O7    A    
O12   Zn8   S    
C26   C35   S    
C83   C84   A    
C107  H52   S    
C84   H32   S    
C78   C95   S    
C60   O14   A    
C65   C68   S    
C15   C67   S    
C99   H46   S    
C57   O25   A    
C45   C68   S    
C50   C51   S    
C44   C53   S    
C102  C107  A    
C16   C18   S    
C50   C54   S    
C65   H12   S    
C84   C85   A    
C2    C15   S    
C28   O2    A    
C60   C68   S    
C62   H9    S    
C2    C27   S    
C67   C100  S    
C47   C54   S    
C13   H16   S    
O12   Zn2   S    
C39   H2    S    
C99   C101  A    
O9    Zn5   S    
C26   C30   S    
C34   H11   S    
C55   O9    A    
O8    Zn4   S    
C78   C100  S    
O7    Zn3   S    
C21   C24   S    
C9    H61   S    
C20   C22   S    
C104  H49   S    
C3    C4    A    
C86   H35   S    
C61   O15   A    
O14   Zn7   S    
C103  C104  A    
C3    H55   S    
C12   H64   S    
C44   C50   S    
C42   C69   S    
O1    Zn3   S    
C26   H56   S    
C21   C55   S    
C16   C22   S    
C30   C33   S    
C13   C89   S    
C18   C108  S    
C75   C81   A    
C49   C52   S    
C88   C90   A    
C80   C81   A    
C109  H54   S    
C108  O20   D    
O3    Zn7   S    
C11   C12   A    
C7    C110  A    
C103  H48   S    
C6    C7    A    
O22   Zn1   S    
C80   H29   S    
C105  C106  A    
C29   C35   S    
C45   C64   S    
O6    Zn2   S    
C4    H57   S    
C62   C68   S    
C27   O28   A    
O18   Zn1   S    
C36   C38   S    
C28   O6    A    
C38   C43   S    
C37   C39   S    
C2    C56   S    
C54   C88   S    
C63   H10   S    
O10   Zn6   S    
C90   C91   A    
C19   C109  S    
C38   C40   S    
C44   H7    S    
C13   C100  S    
C72   C73   A    
C49   C53   S    
C40   C42   S    
C92   C93   A    
C17   C19   S    
O23   Zn2   S    
C58   O16   A    
C18   C20   S    
C16   H18   S    
O24   Zn7   S    
O12   Zn4   S    
C102  C103  A    
C27   O5    A    
C109  O21   D    
C51   O22   A    
O27   Zn4   S    
O13   Zn4   S    
C71   H21   S    
C79   C80   A    
C15   C78   S    
C12   C14   A    
O17   Zn6   S    
C79   H28   S    
C71   C72   A    
C73   H24   S    
C7    H60   S    
C29   C31   S    
C98   C99   A    
C34   C66   S    
C25   C33   S    
C92   H39   S    
O4    Zn8   S    
C88   C94   A    
O19   Zn2   S    
O11   Zn3   S    
C82   C83   A    
C20   C57   S    
C1    O26   A    
C23   O27   A    
C95   C101  A    
C64   C66   S    
C6    H59   S    
