data_mof_unit_17587.cif
_audit_creation_date              2012-12-10T17:32:21-0500
_audit_creation_method            fapswitch 2.2
_symmetry_space_group_name_H-M    P1
_symmetry_Int_Tables_number       1
_space_group_crystal_system       triclinic
_cell_length_a                    12.371484
_cell_length_b                    13.221886
_cell_length_c                    15.043883
_cell_angle_alpha                 76.756249
_cell_angle_beta                  100.962209
_cell_angle_gamma                 116.889008
_cell_volume                      2125.72914782

loop_
_atom_site_label
_atom_site_type_symbol
_atom_type_description
_atom_site_fract_x
_atom_site_fract_y
_atom_site_fract_z
_atom_type_partial_charge
C1    C     C_R   0.854728 0.286506 0.509295 0.767722
C2    C     C_R   0.064961 0.447454 0.114178 0.072822
C3    C     C_R   0.867041 0.596017 0.006066 -0.177836
C4    C     C_R   0.866973 0.595745 0.913612 -0.193076
C5    C     C_R   0.933586 0.547493 0.887053 0.113798
C6    C     C_R   0.001783 0.499074 0.953823 0.057578
C7    C     C_R   0.070668 0.451284 0.927572 0.024734
C8    C     C_R   0.139275 0.403879 0.995850 -0.024751
C9    C     C_R   0.132802 0.400216 0.088489 -0.214771
C10   C     C_R   0.932877 0.547020 0.794625 -0.226300
C11   C     C_R   0.998771 0.498462 0.768068 -0.077663
C12   C     C_R   0.999117 0.499133 0.671069 0.804566
C13   C     C_R   0.065737 0.449751 0.834092 -0.194680
C14   C     C_R   0.272519 0.029371 0.394682 -0.140550
C15   C     C_R   0.227561 0.835732 0.472038 -0.052507
C16   C     C_R   0.808218 0.087949 0.586444 -0.209935
C17   C     C_R   0.722780 0.984328 0.627133 -0.175252
C18   C     C_R   0.598133 0.954321 0.604927 -0.012658
C19   C     C_R   0.558306 0.019632 0.527134 0.015830
C20   C     C_R   0.646515 0.125529 0.486317 0.058615
C21   C     C_R   0.434885 0.984654 0.488451 0.074062
C22   C     C_R   0.397438 0.063835 0.425122 0.075939
C23   C     C_R   0.145013 0.713430 0.486472 0.835390
C24   C     C_R   0.486771 0.170062 0.387316 -0.045969
C25   C     C_R   0.609191 0.193384 0.411871 -0.224077
C26   C     C_R   0.350265 0.869602 0.503836 -0.125652
C27   C     C_R   0.187948 0.917067 0.420461 -0.199139
C28   C     C_R   0.770492 0.163489 0.522391 -0.080125
C29   C     C_R   0.352340 0.339292 0.655901 -0.252870
C30   C     C_R   0.767544 0.654179 0.381643 0.027244
C31   C     C_R   0.685346 0.703169 0.367792 -0.078557
C32   C     C_R   0.584970 0.649892 0.419108 -0.210341
C33   C     C_R   0.560991 0.544605 0.479123 -0.008857
C34   C     C_R   0.999753 0.499259 0.329079 0.815273
C35   C     C_R   0.654934 0.506819 0.498032 0.294554
C36   C     C_R   0.452387 0.481088 0.526573 -0.050329
C37   C     C_R   0.451746 0.395955 0.603275 0.163896
C38   C     C_R   0.549286 0.366113 0.625648 -0.250200
C39   C     C_R   0.646728 0.417691 0.572403 -0.175396
C40   C     C_R   0.341829 0.493893 0.498655 0.130736
C41   C     C_R   0.251632 0.364090 0.630967 0.077008
C42   C     C_R   0.062338 0.446106 0.206585 -0.191393
C43   C     C_R   0.998659 0.497619 0.232375 -0.089194
C44   C     C_R   0.933271 0.547240 0.165535 -0.210179
C45   C     C_R   0.932991 0.547267 0.072930 0.106785
C46   C     C_R   0.000176 0.498112 0.046926 0.064272
Cu1   Cu    Cu3+1 0.098270 0.475420 0.521130 0.982147
Cu2   Cu    Cu3+1 0.901730 0.524580 0.478870 0.941014
H1    H     H_    0.239148 0.085986 0.347136 0.190240
H2    H     H_    0.903099 0.114255 0.612928 0.163875
H3    H     H_    0.754543 0.933679 0.683582 0.178911
H4    H     H_    0.675709 0.267850 0.373291 0.191605
H5    H     H_    0.175973 0.321909 0.672604 0.131487
H6    H     H_    0.352557 0.276041 0.716143 0.153571
H7    H     H_    0.883235 0.586595 0.185410 0.166965
H8    H     H_    0.715815 0.387651 0.594076 0.203028
H9    H     H_    0.815187 0.633923 0.025313 0.164742
H10   H     H_    0.814832 0.633292 0.862821 0.162008
H11   H     H_    0.881294 0.584835 0.743370 0.163544
H12   H     H_    0.111138 0.408290 0.811626 0.182761
H13   H     H_    0.184239 0.363548 0.141055 0.186743
H14   H     H_    0.093181 0.892030 0.394078 0.171417
N1    N     N_R   0.246280 0.438190 0.553160 -0.224636
N2    N     N_R   0.754320 0.561190 0.447410 -0.218761
O1    O     O_R   0.972510 0.318130 0.526570 -0.582509
O2    O     O_R   0.806530 0.359650 0.490890 -0.604476
O3    O     O_R   0.082980 0.479210 0.647590 -0.584078
O4    O     O_R   0.917000 0.520730 0.611900 -0.603034
O5    O     O_R   0.193470 0.640350 0.509110 -0.540807
O6    O     O_R   0.027490 0.681870 0.473430 -0.597167
O7    O     O_R   0.083000 0.479270 0.388100 -0.570916
O8    O     O_R   0.917020 0.520790 0.352410 -0.589139
H15   H     H_    0.109173 0.404171 0.258401 0.198004
C47   C     C_2   0.457124 0.256601 0.318553 0.841635
O9    O     O_2   0.513528 0.303821 0.250929 -0.576598
O10   O     O_R   0.368853 0.288054 0.332871 -0.754734
H16   H     H_    0.356689 0.346913 0.280602 0.364474
H17   H     H_    0.380557 0.803966 0.536478 0.163537
C48   C     C_2   0.517306 0.867192 0.673802 0.802882
O11   O     O_2   0.434927 0.881132 0.695103 -0.582711
O12   O     O_R   0.538230 0.771103 0.716732 -0.761230
H18   H     H_    0.477635 0.718296 0.762596 0.355232
H19   H     H_    0.548965 0.299937 0.683671 0.162540
C49   C     C_2   0.321255 0.546651 0.403049 0.871873
O13   O     O_2   0.319230 0.500992 0.340365 -0.617706
O14   O     O_R   0.313628 0.651861 0.383423 -0.755953
H20   H     H_    0.302541 0.679331 0.315081 0.335200
H21   H     H_    0.847619 0.694868 0.344665 0.160082
H22   H     H_    0.530671 0.695493 0.415545 0.202423
C50   C     C_2   0.706295 0.811853 0.302787 0.856836
O15   O     O_2   0.795656 0.859366 0.259606 -0.605766
O16   O     O_R   0.623741 0.860430 0.290628 -0.749941
H23   H     H_    0.648131 0.934504 0.244802 0.345077
C51   C     C_2   0.221402 0.360112 0.974687 0.839229
O17   O     O_2   0.286284 0.411677 0.912049 -0.601138
O18   O     O_R   0.229270 0.262661 0.030158 -0.746855
H24   H     H_    0.289821 0.242197 0.010372 0.346509

loop_
_geom_bond_atom_site_label_1
_geom_bond_atom_site_label_2
_ccdc_geom_bond_type
C16   C28   A    
C21   C26   A    
C30   N2    A    
C38   H19   S    
C40   C49   S    
C19   C20   A    
C17   H3    S    
O12   H18   S    
C7    C8    A    
C13   H12   S    
C45   C46   A    
C2    C46   A    
C12   O4    A    
C26   H17   S    
C40   N1    A    
C47   O10   S    
C9    H13   S    
C36   C37   A    
C19   C21   A    
C16   H2    S    
Cu1   N1    S    
C30   C31   A    
Cu2   N2    S    
C14   H1    S    
C16   C17   A    
C29   H6    S    
C33   C36   A    
C18   C19   A    
C23   O5    A    
Cu1   O5    S    
C50   O16   S    
C49   O13   D    
Cu1   Cu2   S    
C18   C48   S    
C1    C28   S    
C1    O1    A    
C35   N2    A    
C14   C27   A    
C15   C23   S    
C21   C22   A    
C23   O6    A    
Cu2   O8    S    
Cu1   O3    S    
C17   C18   A    
C38   C39   A    
C12   O3    A    
C47   O9    D    
C36   C40   A    
C8    C51   S    
O10   H16   S    
C48   O12   S    
O14   H20   S    
C8    C9    A    
C15   C26   A    
C20   C28   A    
C3    C45   A    
Cu2   O4    S    
C35   C39   A    
C43   C44   A    
C37   C38   A    
C27   H14   S    
C15   C27   A    
C39   H8    S    
C31   C50   S    
Cu1   O7    S    
O18   H24   S    
C1    O2    A    
C24   C25   A    
C51   O18   S    
C41   H5    S    
C3    H9    S    
C32   H22   S    
C29   C37   A    
C22   C24   A    
C42   C43   A    
C41   N1    A    
C30   H21   S    
C3    C4    A    
C34   O8    A    
C44   C45   A    
C42   H15   S    
C6    C46   A    
C29   C41   A    
C31   C32   A    
C34   C43   S    
Cu2   O6    S    
C4    C5    A    
C11   C12   S    
C6    C7    A    
C32   C33   A    
C14   C22   A    
C10   H11   S    
C25   H4    S    
C5    C10   A    
C11   C13   A    
C44   H7    S    
C24   C47   S    
C50   O15   D    
C5    C6    A    
C2    C42   A    
O16   H23   S    
C33   C35   A    
C51   O17   D    
C10   C11   A    
C48   O11   D    
C7    C13   A    
C20   C25   A    
C4    H10   S    
C49   O14   S    
Cu2   O2    S    
C2    C9    A    
C34   O7    A    
Cu1   O1    S    
