data_mof_unit_63792.cif
_audit_creation_date              2013-03-05T16:21:54-0500
_audit_creation_method            fapswitch 2.2
_symmetry_space_group_name_H-M    P1
_symmetry_Int_Tables_number       1
_space_group_crystal_system       triclinic
_cell_length_a                    30.743837
_cell_length_b                    30.730009
_cell_length_c                    24.680024
_cell_angle_alpha                 90.028024
_cell_angle_beta                  128.012504
_cell_angle_gamma                 89.989849
_cell_volume                      18370.6428913

loop_
_atom_site_label
_atom_site_type_symbol
_atom_site_description
_atom_site_fract_x
_atom_site_fract_y
_atom_site_fract_z
_atom_type_partial_charge
O1    O     O_R   0.821190 0.768980 0.500000 -0.554506
O2    O     O_R   0.178810 0.768980 0.500000 -0.582388
O3    O     O_R   0.321190 0.268980 0.500000 -0.584445
O4    O     O_R   0.678810 0.268980 0.500000 -0.584329
O5    O     O_R   0.768960 0.821170 0.500020 -0.566959
O6    O     O_R   0.231040 0.821170 0.499980 -0.564226
O7    O     O_R   0.268960 0.321170 0.500020 -0.561846
O8    O     O_R   0.731040 0.321170 0.499980 -0.563376
C1    C     C_R   0.809317 0.809291 0.500207 0.812834
C2    C     C_R   0.190874 0.809484 0.500374 0.824902
C3    C     C_R   0.309093 0.309471 0.499603 0.823899
C4    C     C_R   0.690897 0.309476 0.500378 0.823278
O9    O     O_R   0.726180 0.723900 0.400140 -0.560608
O10   O     O_R   0.273820 0.723900 0.599860 -0.580526
O11   O     O_R   0.226180 0.223900 0.400140 -0.581528
O12   O     O_R   0.773820 0.223900 0.599860 -0.581976
O13   O     O_R   0.673950 0.776090 0.400160 -0.563968
O14   O     O_R   0.326050 0.776090 0.599840 -0.561277
O15   O     O_R   0.173950 0.276090 0.400160 -0.559430
O16   O     O_R   0.826050 0.276090 0.599840 -0.560359
C5    C     C_R   0.684644 0.750650 0.367627 0.818444
C6    C     C_R   0.315485 0.750671 0.632516 0.811249
C7    C     C_R   0.184407 0.250534 0.367486 0.809787
C8    C     C_R   0.815565 0.250579 0.632506 0.812546
Cu1   Cu    Cu3+1 0.780910 0.719090 0.500000 1.072790
Cu2   Cu    Cu3+1 0.219090 0.719090 0.500000 1.051149
Cu3   Cu    Cu3+1 0.280910 0.219090 0.500000 1.045062
Cu4   Cu    Cu3+1 0.719090 0.219090 0.500000 1.046096
Cu5   Cu    Cu3+1 0.719070 0.780890 0.500010 1.074415
Cu6   Cu    Cu3+1 0.280930 0.780890 0.499990 1.082118
Cu7   Cu    Cu3+1 0.219070 0.280890 0.500010 1.087788
Cu8   Cu    Cu3+1 0.780930 0.280890 0.499990 1.082739
O17   O     O_R   0.731010 0.678810 0.499990 -0.590078
O18   O     O_R   0.268990 0.678810 0.500010 -0.586265
O19   O     O_R   0.231010 0.178810 0.499990 -0.586128
O20   O     O_R   0.768990 0.178810 0.500010 -0.589964
O21   O     O_R   0.678790 0.731000 0.500010 -0.563879
O22   O     O_R   0.321210 0.731000 0.499990 -0.560793
O23   O     O_R   0.178790 0.231000 0.500010 -0.559881
O24   O     O_R   0.821210 0.231000 0.499990 -0.563835
O25   O     O_R   0.826030 0.723890 0.599860 -0.587214
O26   O     O_R   0.173970 0.723890 0.400140 -0.574874
O27   O     O_R   0.326030 0.223890 0.599860 -0.576437
O28   O     O_R   0.673970 0.223890 0.400140 -0.574047
O29   O     O_R   0.773800 0.776080 0.599870 -0.549672
O30   O     O_R   0.226200 0.776080 0.400130 -0.540272
O31   O     O_R   0.273800 0.276080 0.599870 -0.540295
O32   O     O_R   0.726200 0.276080 0.400130 -0.544221
C9    C     C_R   0.690627 0.690701 0.500096 0.827263
C10   C     C_R   0.309295 0.690683 0.499748 0.816090
C11   C     C_R   0.190714 0.190682 0.500337 0.816683
C12   C     C_R   0.809423 0.190703 0.500015 0.830560
C13   C     C_R   0.815330 0.749333 0.632448 0.820287
C14   C     C_R   0.184384 0.749548 0.367407 0.833249
C15   C     C_R   0.315563 0.249517 0.632577 0.837280
C16   C     C_R   0.684595 0.249385 0.367552 0.844988
C17   C     C_R   0.630064 0.791322 0.254313 -0.025993
C18   C     C_R   0.376628 0.790856 0.746407 -0.018341
C19   C     C_R   0.121760 0.289875 0.253086 -0.019017
C20   C     C_R   0.877955 0.290025 0.746928 -0.019836
C21   C     C_R   0.592806 0.789846 0.182159 -0.172185
C22   C     C_R   0.414251 0.789137 0.818427 -0.175174
C23   C     C_R   0.084360 0.287660 0.181143 -0.174147
C24   C     C_R   0.915423 0.287825 0.818882 -0.174400
H1    H     H_    0.578977 0.820081 0.153545 0.194691
H2    H     H_    0.432461 0.819146 0.846965 0.192664
H3    H     H_    0.065261 0.317395 0.152190 0.192362
H4    H     H_    0.934353 0.317588 0.847883 0.192377
C25   C     C_R   0.574506 0.750026 0.146540 0.018053
C26   C     C_R   0.427181 0.749663 0.854034 0.018456
C27   C     C_R   0.072677 0.248095 0.146112 0.019511
C28   C     C_R   0.927378 0.248214 0.853861 0.020906
C29   C     C_R   0.593816 0.711143 0.184294 -0.118316
C30   C     C_R   0.402188 0.711254 0.816280 -0.120600
C31   C     C_R   0.098472 0.210017 0.184317 -0.122034
C32   C     C_R   0.901760 0.210108 0.815606 -0.125512
H5    H     H_    0.580670 0.679919 0.158479 0.168023
H6    H     H_    0.411173 0.680291 0.842138 0.167840
H7    H     H_    0.090386 0.179016 0.158810 0.167148
H8    H     H_    0.910022 0.179074 0.841052 0.165176
C33   C     C_R   0.630343 0.712045 0.256035 -0.150710
C34   C     C_R   0.365235 0.712310 0.744482 -0.160837
C35   C     C_R   0.135361 0.211552 0.256091 -0.161122
C36   C     C_R   0.864827 0.211645 0.743854 -0.158919
H9    H     H_    0.643904 0.681552 0.283881 0.164668
H10   H     H_    0.347274 0.682052 0.716728 0.167929
H11   H     H_    0.154134 0.181534 0.284245 0.168457
H12   H     H_    0.846187 0.181632 0.715659 0.164675
C37   C     C_R   0.648322 0.751717 0.291808 -0.093713
C38   C     C_R   0.352384 0.751686 0.708618 -0.103374
C39   C     C_R   0.147217 0.251085 0.291404 -0.103787
C40   C     C_R   0.852743 0.251186 0.708583 -0.101268
N1    N     N_R   0.515478 0.711463 0.034730 -0.220895
N2    N     N_R   0.480988 0.711351 0.966155 -0.220823
N3    N     N_R   0.017144 0.209352 0.034219 -0.221325
N4    N     N_R   0.983069 0.209385 0.965613 -0.221852
C41   C     C_R   0.465788 0.749226 0.930308 0.429675
C42   C     C_R   0.536087 0.749453 0.070271 0.430678
C43   C     C_R   0.965417 0.247466 0.930042 0.429221
C44   C     C_R   0.034699 0.247399 0.069927 0.429406
N5    N     N_R   0.486489 0.787098 0.965945 -0.220573
N6    N     N_R   0.520825 0.787215 0.034334 -0.220149
N7    N     N_R   0.983111 0.285352 0.965883 -0.221000
N8    N     N_R   0.016928 0.285318 0.034221 -0.220982
C45   C     C_R   0.851133 0.843933 0.452551 0.076634
C46   C     C_R   0.100085 0.841396 0.453002 0.058015
C47   C     C_R   0.399480 0.343322 0.550352 0.066069
C48   C     C_R   0.600396 0.342898 0.450269 0.064898
C49   C     C_R   0.842838 0.842556 0.501624 -0.061897
C50   C     C_R   0.157522 0.843573 0.498824 -0.132480
C51   C     C_R   0.342257 0.343553 0.500900 -0.132885
C52   C     C_R   0.657691 0.343578 0.498988 -0.132467
C53   C     C_R   0.867731 0.875315 0.552427 -0.193041
C54   C     C_R   0.182432 0.881674 0.538043 -0.144683
C55   C     C_R   0.316911 0.380018 0.457666 -0.152226
C56   C     C_R   0.682973 0.380449 0.541335 -0.151451
H13   H     H_    0.862430 0.875629 0.591940 0.154375
H14   H     H_    0.226728 0.885880 0.570409 0.205860
H15   H     H_    0.272458 0.382830 0.422244 0.208578
H16   H     H_    0.727416 0.383588 0.576099 0.207892
C57   C     C_R   0.900559 0.907565 0.552791 -0.191684
C58   C     C_R   0.150259 0.913588 0.538718 -0.211544
C59   C     C_R   0.349110 0.411974 0.457157 -0.210034
C60   C     C_R   0.650781 0.412412 0.541864 -0.212926
H17   H     H_    0.919849 0.932268 0.592545 0.161237
H18   H     H_    0.170165 0.941798 0.571661 0.157444
H19   H     H_    0.329015 0.438794 0.421207 0.162659
H20   H     H_    0.670852 0.439578 0.577148 0.161454
C61   C     C_R   0.907212 0.908040 0.501021 -0.060384
C62   C     C_R   0.092801 0.908355 0.497991 -0.068931
C63   C     C_R   0.406897 0.408509 0.501951 -0.076067
C64   C     C_R   0.593043 0.408511 0.497971 -0.074562
C65   C     C_R   0.880894 0.875686 0.451359 0.056010
C66   C     C_R   0.068105 0.873609 0.451810 0.090379
C67   C     C_R   0.431376 0.375623 0.551531 0.103625
C68   C     C_R   0.568484 0.375182 0.449107 0.103170
C69   C     C_3   0.871502 0.858570 0.388353 -0.499937
C70   C     C_3   0.025750 0.841842 0.438751 -0.519099
C71   C     C_3   0.476257 0.344460 0.570991 -0.524289
C72   C     C_3   0.524170 0.343850 0.431117 -0.525337
C73   C     C_3   0.836835 0.822591 0.389200 0.154213
C74   C     C_3   0.061407 0.806292 0.440941 0.187686
C75   C     C_3   0.440779 0.308825 0.568903 0.171013
C76   C     C_3   0.559652 0.308242 0.433131 0.173112
H21   H     H_    0.846486 0.881258 0.344147 0.195857
H22   H     H_    0.023738 0.840036 0.482172 0.180542
H23   H     H_    0.480884 0.340976 0.530008 0.158215
H24   H     H_    0.520264 0.340728 0.472757 0.158152
H25   H     H_    0.910293 0.847049 0.398902 0.222859
H26   H     H_    0.985270 0.846748 0.387392 0.236417
H27   H     H_    0.515297 0.351333 0.623032 0.243559
H28   H     H_    0.484725 0.350264 0.379263 0.243515
H29   H     H_    0.791981 0.823796 0.345198 0.133881
H30   H     H_    0.079653 0.783392 0.484934 0.131284
H31   H     H_    0.425552 0.284257 0.527616 0.127013
H32   H     H_    0.575566 0.284023 0.475008 0.126876
C77   C     C_R   0.830665 0.752562 0.745505 0.334927
C78   C     C_R   0.166202 0.759173 0.253003 0.335629
C79   C     C_R   0.333152 0.257976 0.746759 0.334089
C80   C     C_R   0.669002 0.252626 0.254360 0.334662
C81   C     C_R   0.867521 0.754120 0.817668 -0.195190
C82   C     C_R   0.128499 0.760702 0.180986 -0.189584
C83   C     C_R   0.370711 0.259630 0.818809 -0.189183
C84   C     C_R   0.632039 0.254301 0.182214 -0.190878
H33   H     H_    0.851161 0.757143 0.845782 0.196850
H34   H     H_    0.143657 0.767948 0.152331 0.196419
H35   H     H_    0.355272 0.266072 0.847362 0.197134
H36   H     H_    0.648330 0.257235 0.154014 0.197443
C85   C     C_R   0.924764 0.750740 0.853583 -0.012848
C86   C     C_R   0.072255 0.751816 0.145887 -0.023112
C87   C     C_R   0.427220 0.251843 0.854065 -0.023360
C88   C     C_R   0.574790 0.251100 0.146419 -0.023578
C89   C     C_R   0.945024 0.745908 0.816161 -0.132033
C90   C     C_R   0.053746 0.741788 0.184113 -0.118915
C91   C     C_R   0.446095 0.242734 0.815970 -0.116916
C92   C     C_R   0.554637 0.246379 0.183977 -0.116134
H37   H     H_    0.988902 0.743014 0.842261 0.172064
H38   H     H_    0.010641 0.734709 0.158619 0.183129
H39   H     H_    0.489391 0.236473 0.841554 0.183056
H40   H     H_    0.510762 0.243645 0.157995 0.184327
C93   C     C_R   0.908904 0.744605 0.744438 -0.225748
C94   C     C_R   0.090746 0.740468 0.255871 -0.176879
C95   C     C_R   0.409244 0.241324 0.744220 -0.173027
C96   C     C_R   0.590873 0.244973 0.255697 -0.180384
H41   H     H_    0.925812 0.741407 0.716959 0.173057
H42   H     H_    0.075049 0.733091 0.283891 0.214471
H43   H     H_    0.425195 0.234665 0.716306 0.218851
H44   H     H_    0.574065 0.241844 0.283283 0.220059
C97   C     C_R   0.851728 0.748397 0.708332 -0.137825
C98   C     C_R   0.147094 0.749326 0.291253 -0.161135
C99   C     C_R   0.352689 0.249196 0.708699 -0.161363
C100  C     C_R   0.648054 0.248544 0.291664 -0.158382
N9    N     N_R   0.018437 0.754402 0.964508 -0.224464
N10   N     N_R   0.978190 0.749236 0.034981 -0.216253
N11   N     N_R   0.521283 0.249921 0.964988 -0.216552
N12   N     N_R   0.481006 0.254269 0.035486 -0.217401
N13   N     N_R   0.052918 0.754742 0.032961 -0.220180
N14   N     N_R   0.943672 0.749038 0.966476 -0.216505
N15   N     N_R   0.555812 0.249799 0.033487 -0.216715
N16   N     N_R   0.446502 0.254521 0.967021 -0.217309
C101  C     C_R   0.033576 0.752099 0.069683 0.442295
C102  C     C_R   0.963071 0.751532 0.929782 0.437542
C103  C     C_R   0.536409 0.251882 0.070204 0.441598
C104  C     C_R   0.465865 0.252277 0.930285 0.441852
C105  C     C_R   0.652456 0.616268 0.477785 0.068500
C106  C     C_R   0.367285 0.624886 0.548064 0.063800
C107  C     C_R   0.134923 0.123611 0.454149 0.065374
C108  C     C_R   0.847214 0.116132 0.521591 0.070636
C109  C     C_R   0.657187 0.658229 0.501102 -0.119093
C110  C     C_R   0.343418 0.658243 0.499892 -0.133494
C111  C     C_R   0.156343 0.158295 0.499912 -0.138674
C112  C     C_R   0.842915 0.158256 0.499077 -0.117462
C113  C     C_R   0.626901 0.668828 0.524934 -0.164125
C114  C     C_R   0.359148 0.663829 0.457731 -0.195491
C115  C     C_R   0.137924 0.165025 0.539051 -0.173407
C116  C     C_R   0.873714 0.169074 0.476079 -0.167440
H45   H     H_    0.629987 0.701357 0.543965 0.234161
H46   H     H_    0.344300 0.691877 0.424216 0.233607
H47   H     H_    0.150702 0.194072 0.570252 0.241259
H48   H     H_    0.871038 0.201714 0.457626 0.225371
C117  C     C_R   0.593940 0.637434 0.526342 -0.065509
C118  C     C_R   0.392211 0.632777 0.456608 -0.065711
C119  C     C_R   0.104912 0.133932 0.540190 -0.068668
C120  C     C_R   0.906753 0.137755 0.474665 -0.054929
C121  C     C_R   0.590237 0.594791 0.500696 -0.135686
C122  C     C_R   0.411176 0.596202 0.501217 -0.141509
C123  C     C_R   0.088982 0.095952 0.498764 -0.169825
C124  C     C_R   0.909925 0.094946 0.499284 -0.120611
C125  C     C_R   0.619866 0.586329 0.476639 0.079768
C126  C     C_R   0.400942 0.594621 0.549054 0.139327
C127  C     C_R   0.101471 0.093211 0.453193 0.125902
C128  C     C_R   0.879794 0.086233 0.522585 0.086082
C129  C     C_3   0.634401 0.551193 0.448661 -0.517564
C130  C     C_3   0.378987 0.558050 0.565911 -0.524303
C131  C     C_3   0.125790 0.056411 0.440111 -0.519864
C132  C     C_3   0.865020 0.050951 0.550051 -0.534057
C133  C     C_3   0.671817 0.585460 0.449894 -0.187490
C134  C     C_3   0.341259 0.591436 0.563845 -0.205213
C135  C     C_3   0.163208 0.090060 0.441967 -0.200916
C136  C     C_3   0.827617 0.085162 0.548985 -0.184937
H49   H     H_    0.657840 0.524417 0.486325 0.189149
H50   H     H_    0.356186 0.533570 0.523873 0.182078
H51   H     H_    0.148622 0.033023 0.483709 0.182207
H52   H     H_    0.841577 0.024294 0.512102 0.192520
H53   H     H_    0.598168 0.540580 0.396541 0.231311
H54   H     H_    0.411257 0.544116 0.617610 0.233980
H55   H     H_    0.094934 0.041149 0.388999 0.231534
H56   H     H_    0.901135 0.040168 0.602116 0.225626
H57   H     H_    0.716604 0.578015 0.487788 0.165292
H58   H     H_    0.296781 0.586198 0.520498 0.171052
H59   H     H_    0.207548 0.086049 0.486665 0.169586
H60   H     H_    0.782818 0.077808 0.510897 0.165430
O33   O     O_R   0.425940 0.545090 0.442170 -0.576438
O34   O     O_R   0.574060 0.545090 0.557830 -0.558265
O35   O     O_R   0.925940 0.045090 0.442170 -0.552187
O36   O     O_R   0.074060 0.045090 0.557830 -0.568483
O37   O     O_R   0.483700 0.545120 0.557760 -0.548618
O38   O     O_R   0.516300 0.545120 0.442240 -0.566500
O39   O     O_R   0.983700 0.045120 0.557760 -0.560081
O40   O     O_R   0.016300 0.045120 0.442240 -0.556420
C137  C     C_R   0.441449 0.560411 0.500098 0.877528
C138  C     C_R   0.558471 0.560235 0.500072 0.883018
C139  C     C_R   0.941845 0.060526 0.499930 0.883989
C140  C     C_R   0.058680 0.060258 0.499902 0.865100
O41   O     O_R   0.925990 0.954920 0.442210 -0.586319
O42   O     O_R   0.074010 0.954920 0.557790 -0.586577
O43   O     O_R   0.425990 0.454920 0.442210 -0.588346
O44   O     O_R   0.574010 0.454920 0.557790 -0.588880
O45   O     O_R   0.983760 0.954940 0.557800 -0.590832
O46   O     O_R   0.016240 0.954940 0.442200 -0.579449
O47   O     O_R   0.483760 0.454940 0.557800 -0.578971
O48   O     O_R   0.516240 0.454940 0.442200 -0.577890
C141  C     C_R   0.940494 0.940735 0.500216 0.785905
C142  C     C_R   0.059165 0.940385 0.499664 0.788293
C143  C     C_R   0.440751 0.440418 0.500324 0.783871
C144  C     C_R   0.559238 0.440426 0.499656 0.785164
Cu9   Cu    Cu3+1 0.465760 0.500000 0.431570 1.018328
Cu10  Cu    Cu3+1 0.534240 0.500000 0.568430 1.037459
Cu11  Cu    Cu3+1 0.965760 0.000000 0.431570 1.029514
Cu12  Cu    Cu3+1 0.034240 0.000000 0.568430 1.019924
C145  C     C_2   0.650658 0.834659 0.287771 0.845124
O49   O     O_2   0.697370 0.838733 0.341674 -0.619679
O50   O     O_R   0.617059 0.871351 0.255968 -0.743261
H61   H     H_    0.635737 0.899050 0.283062 0.346263
C146  C     C_2   0.361860 0.834424 0.713579 0.855355
O51   O     O_2   0.314694 0.842074 0.662677 -0.623074
O52   O     O_R   0.401579 0.867445 0.742833 -0.743171
H62   H     H_    0.386466 0.895830 0.716473 0.343538
C147  C     C_2   0.134891 0.333615 0.285175 0.857936
O53   O     O_2   0.181807 0.342356 0.335698 -0.622675
O54   O     O_R   0.093852 0.365588 0.255598 -0.741617
H63   H     H_    0.107891 0.394228 0.281433 0.345178
C148  C     C_2   0.864452 0.333768 0.714838 0.857249
O55   O     O_2   0.817498 0.342258 0.664187 -0.622779
O56   O     O_R   0.905168 0.366019 0.744542 -0.742876
H64   H     H_    0.890888 0.394625 0.718688 0.344150
N17   N     N_R   0.861072 0.779171 0.402821 0.167837
O57   O     O_R   0.912710 0.772267 0.454337 -0.326657
O58   O     O_R   0.830290 0.746692 0.364070 -0.311903
N18   N     N_R   0.035115 0.784528 0.374756 0.155522
O59   O     O_R   0.014765 0.806799 0.318955 -0.340381
O60   O     O_R   0.033686 0.742249 0.371879 -0.326572
N19   N     N_R   0.465176 0.289660 0.636312 0.148368
O61   O     O_R   0.481454 0.314001 0.688949 -0.341206
O62   O     O_R   0.469463 0.247597 0.643504 -0.349822
N20   N     N_R   0.534758 0.288515 0.365906 0.146930
O63   O     O_R   0.517450 0.312431 0.312530 -0.345899
O64   O     O_R   0.531110 0.246387 0.359615 -0.347770
N21   N     N_R   0.772312 0.753233 0.711368 0.132261
O65   O     O_R   0.739669 0.726102 0.661572 -0.371052
O66   O     O_R   0.752967 0.775906 0.736824 -0.320555
N22   N     N_R   0.223756 0.765643 0.285779 0.138320
O67   O     O_R   0.260050 0.738075 0.331722 -0.360804
O68   O     O_R   0.238908 0.794224 0.261465 -0.316581
N23   N     N_R   0.275361 0.263132 0.713730 0.137688
O69   O     O_R   0.239923 0.235451 0.667054 -0.361414
O70   O     O_R   0.259194 0.290536 0.738279 -0.314657
N24   N     N_R   0.727334 0.253090 0.288337 0.133079
O71   O     O_R   0.759903 0.225909 0.338043 -0.373195
O72   O     O_R   0.746705 0.275652 0.262839 -0.316400
C149  C     C_2   0.564333 0.651160 0.553802 0.901336
O73   O     O_2   0.547591 0.624367 0.573569 -0.571478
O74   O     O_R   0.556065 0.695453 0.557802 -0.734617
H65   H     H_    0.535382 0.700847 0.577025 0.349620
C150  C     C_2   0.404895 0.639727 0.407944 0.891048
O75   O     O_2   0.373118 0.660786 0.355340 -0.544869
O76   O     O_R   0.453513 0.623564 0.422543 -0.759203
H66   H     H_    0.457435 0.631081 0.385740 0.340439
C151  C     C_2   0.089204 0.142571 0.585554 0.890116
O77   O     O_2   0.049574 0.124414 0.575728 -0.598037
O78   O     O_R   0.119383 0.172704 0.639216 -0.716502
H67   H     H_    0.104586 0.176206 0.666050 0.354558
C152  C     C_2   0.937033 0.151630 0.448264 0.900694
O79   O     O_2   0.949643 0.189901 0.452087 -0.559739
O80   O     O_R   0.950192 0.121829 0.417678 -0.738016
H68   H     H_    0.970433 0.135735 0.401688 0.337146
C153  C     C_2   0.654048 0.598214 0.379966 0.893924
O81   O     O_2   0.606488 0.609555 0.334507 -0.588237
O82   O     O_R   0.692620 0.596870 0.367511 -0.740355
H69   H     H_    0.676114 0.605354 0.318624 0.332950
C154  C     C_2   0.352764 0.599047 0.631930 0.897244
O83   O     O_2   0.399556 0.607256 0.683519 -0.579039
O84   O     O_R   0.309213 0.596751 0.635514 -0.746636
H70   H     H_    0.321624 0.602067 0.683705 0.330858
C155  C     C_2   0.153237 0.096387 0.374559 0.896715
O85   O     O_2   0.106542 0.102540 0.321408 -0.581809
O86   O     O_R   0.198110 0.095485 0.373444 -0.747103
H71   H     H_    0.186716 0.100166 0.325611 0.331501
C156  C     C_2   0.845275 0.097625 0.618983 0.894534
O87   O     O_2   0.892791 0.109007 0.664588 -0.583547
O88   O     O_R   0.806659 0.095956 0.631343 -0.749032
H72   H     H_    0.823124 0.104229 0.680303 0.328236

loop_
_geom_bond_atom_site_label_1
_geom_bond_atom_site_label_2
_geom_bond_distance
_ccdc_geom_bond_type
C43   N7    1.356616 A    
C65   C69   1.491405 S    
C151  O78   1.399254 S    
O46   C142  1.283815 A    
O54   H63   1.013941 S    
C68   C72   1.495101 S    
C69   H25   1.110350 S    
C153  O81   1.223861 D    
N19   O62   1.300387 A    
C152  O79   1.223650 D    
C67   C71   1.495132 S    
O43   C143  1.288613 A    
O37   C137  1.287220 A    
C45   C65   1.350433 A    
O39   C139  1.286617 A    
C64   C144  1.447939 S    
N4    C43   1.359640 A    
C117  C121  1.428700 A    
C44   N8    1.356715 A    
Cu6   O22   1.970615 S    
O86   H71   1.013845 S    
C129  C133  1.546061 S    
C114  C118  1.406753 A    
C17   C145  1.487121 S    
C26   C30   1.403273 A    
C119  C151  1.490908 S    
C72   H28   1.111723 S    
C151  O77   1.220976 D    
O40   C140  1.286485 A    
C118  C150  1.489040 S    
C25   C42   1.483292 S    
C20   C40   1.420084 A    
C62   C66   1.396006 A    
C120  C124  1.427248 A    
C29   C33   1.395627 A    
C123  C140  1.450666 S    
C46   C74   1.493481 S    
Cu1   Cu5   2.687097 S    
C55   C59   1.400030 A    
Cu3   Cu7   2.687097 S    
O74   H65   1.014064 S    
Cu4   Cu8   2.687575 S    
C134  C154  1.506971 S    
C79   N23   1.436150 S    
C135  C155  1.507180 S    
N2    C41   1.359172 A    
Cu3   O19   1.971265 S    
C42   N6    1.357077 A    
N10   C101  1.358102 A    
Cu4   O28   1.951801 S    
C109  C113  1.411803 A    
O45   Cu12  1.973244 S    
Cu5   O29   1.954409 S    
C15   C99   1.480291 S    
O46   Cu11  1.973035 S    
C88   C103  1.482352 S    
O15   C7    1.299601 A    
C116  C120  1.415099 A    
O11   Cu3   1.954412 S    
N19   O61   1.302304 A    
C108  C112  1.382752 A    
O38   Cu9   1.975485 S    
N20   O63   1.302320 A    
C96   H44   1.083134 S    
O9    C5    1.299425 A    
O2    Cu2   1.970613 S    
C19   C39   1.420191 A    
O10   Cu2   1.954272 S    
C131  H51   1.112350 S    
C108  C128  1.348143 A    
C61   C65   1.386746 A    
O6    Cu6   1.970680 S    
C23   C27   1.404070 A    
O36   C140  1.285593 A    
O19   C11   1.296464 A    
C47   C75   1.493156 S    
C48   C76   1.493185 S    
Cu8   O24   1.970615 S    
N18   O59   1.302303 A    
C91   C95   1.396460 A    
C86   C90   1.403699 A    
O33   C137  1.285614 A    
C92   C96   1.395472 A    
C93   H41   1.083483 S    
C36   H12   1.082439 S    
C17   C21   1.404565 A    
C19   C147  1.483991 S    
C35   C39   1.405761 A    
C19   C23   1.401673 A    
C20   C24   1.402021 A    
C146  O52   1.398555 S    
O24   C12   1.290432 A    
C129  H53   1.112086 S    
C126  C130  1.496067 S    
O3    C3    1.296914 A    
O80   H68   1.014053 S    
C21   H1    1.083240 S    
C149  O73   1.220924 D    
C12   C112  1.443597 S    
C29   H5    1.082733 S    
C94   C98   1.405129 A    
C31   H7    1.082769 S    
O26   C14   1.302357 A    
C95   H43   1.083003 S    
C123  C127  1.396846 A    
C156  O87   1.223874 D    
C132  H56   1.112119 S    
C105  C125  1.347769 A    
O88   H72   1.013584 S    
C90   C94   1.396720 A    
C80   N24   1.437827 S    
C57   H17   1.083211 S    
C22   C26   1.404393 A    
C24   H4    1.083505 S    
C78   C98   1.418191 A    
C130  C134  1.525557 S    
C119  C123  1.424663 A    
C128  C132  1.490455 S    
N22   O67   1.300284 A    
C60   C64   1.403693 A    
C87   C104  1.482449 S    
C150  O76   1.395439 S    
N24   O72   1.301356 A    
C85   C102  1.481989 S    
C71   C75   1.524013 S    
N14   C102  1.359044 A    
C89   H37   1.082756 S    
C50   C54   1.407284 A    
O20   C12   1.295670 A    
C124  C139  1.436127 S    
O8    C4    1.291301 A    
C81   C85   1.404397 A    
C73   N17   1.462916 S    
O29   C13   1.299267 A    
Cu9   Cu10  2.661336 S    
C134  H58   1.112830 S    
C107  C111  1.388628 A    
N17   O58   1.300418 A    
O38   C138  1.286158 A    
C113  C117  1.415116 A    
C133  C153  1.506616 S    
C8    C40   1.479469 S    
C133  H57   1.112175 S    
N11   N15   1.332108 A    
C154  O84   1.396941 S    
C22   H2    1.083436 S    
C114  H46   1.082088 S    
O40   Cu11  1.975485 S    
C112  C116  1.411205 A    
C122  C126  1.397420 A    
C56   H16   1.080925 S    
C76   H32   1.113225 S    
O5    C1    1.290522 A    
C148  O55   1.221554 D    
C106  C110  1.388891 A    
C59   H19   1.083322 S    
C20   C148  1.484064 S    
C64   C68   1.396773 A    
O44   C144  1.288434 A    
C147  O53   1.221477 D    
C74   H30   1.113183 S    
C122  C137  1.451869 S    
O25   C13   1.300594 A    
O33   Cu9   1.969923 S    
C130  H50   1.112364 S    
C53   H13   1.083241 S    
O41   C141  1.285538 A    
Cu2   Cu6   2.687575 S    
C55   H15   1.080725 S    
C84   C88   1.404574 A    
C62   C142  1.446405 S    
Cu5   O21   1.970957 S    
C52   C56   1.406722 A    
Cu2   O26   1.951801 S    
O16   Cu8   1.951598 S    
O27   C15   1.301932 A    
C45   C49   1.383512 A    
C14   C98   1.480849 S    
O14   C6    1.299741 A    
C47   C51   1.392840 A    
Cu6   O30   1.954272 S    
C116  H48   1.083754 S    
C145  O50   1.398664 S    
O10   C6    1.302057 A    
O3    Cu3   1.970957 S    
C73   H29   1.112577 S    
C120  C152  1.490139 S    
N10   N14   1.332242 A    
C70   H22   1.112201 S    
C71   H27   1.111731 S    
C79   C83   1.403155 A    
C125  C129  1.490431 S    
C81   H33   1.082960 S    
C46   C66   1.382573 A    
C53   C57   1.410698 A    
O34   C138  1.279604 A    
O50   H61   1.013951 S    
C85   C89   1.404053 A    
C127  C131  1.496254 S    
C36   C40   1.405275 A    
C13   C97   1.476239 S    
C33   H9    1.082498 S    
C88   C92   1.404171 A    
Cu1   O17   1.971265 S    
C28   C43   1.481556 S    
C18   C22   1.402801 A    
N23   O70   1.301360 A    
C35   H11   1.083200 S    
C16   C100  1.476146 S    
N5    N6    1.329907 A    
O13   Cu5   1.951451 S    
C136  C156  1.506700 S    
C61   C141  1.442986 S    
C4    C52   1.448475 S    
O15   Cu7   1.951451 S    
C32   C36   1.396733 A    
C5    C37   1.475106 S    
N1    N2    1.333569 A    
C17   C37   1.419074 A    
C80   C84   1.404407 A    
C69   H21   1.111279 S    
O17   C9    1.295674 A    
O44   Cu10  1.969133 S    
C94   H42   1.083388 S    
C47   C67   1.383097 A    
C82   H34   1.083039 S    
C93   C97   1.402947 A    
C76   N20   1.463265 S    
N20   O64   1.300406 A    
Cu11  Cu12  2.661336 S    
C96   C100  1.402993 A    
C25   C29   1.402815 A    
C155  O86   1.396925 S    
C83   C87   1.403854 A    
O4    C4    1.297176 A    
C90   H38   1.082761 S    
C26   C41   1.483456 S    
C107  C135  1.493657 S    
C60   H20   1.083356 S    
C33   C37   1.403337 A    
C89   C93   1.395344 A    
N23   O69   1.300432 A    
Cu7   O31   1.954409 S    
N15   C103  1.358966 A    
Cu8   O32   1.954272 S    
C108  C136  1.492794 S    
C30   C34   1.397196 A    
C153  O82   1.396929 S    
N18   O60   1.300411 A    
C152  O80   1.395519 S    
C1    C49   1.436727 S    
C3    C51   1.448345 S    
C79   C99   1.417934 A    
O1    C1    1.292260 A    
C80   C100  1.417218 A    
C70   C74   1.524699 S    
O56   H64   1.013935 S    
N3    C44   1.359547 A    
N11   C104  1.358053 A    
C34   H10   1.082775 S    
C121  C125  1.384138 A    
N9    C102  1.357509 A    
C48   C52   1.392959 A    
C115  C119  1.406896 A    
O7    C3    1.291204 A    
O78   H67   1.013954 S    
C146  O51   1.221724 D    
C115  H47   1.082072 S    
O21   C9    1.290321 A    
O28   C16   1.300638 A    
O82   H69   1.013599 S    
C82   C86   1.403551 A    
C84   H36   1.082937 S    
O48   C144  1.284063 A    
O30   C14   1.300246 A    
C6    C38   1.480263 S    
N12   C103  1.357668 A    
C105  C133  1.492739 S    
C18   C38   1.420328 A    
C136  H60   1.112167 S    
Cu1   O25   1.951652 S    
C77   C81   1.404466 A    
C124  C128  1.384486 A    
C69   C73   1.544917 S    
C56   C60   1.400009 A    
C59   C63   1.403835 A    
C131  C135  1.526486 S    
C72   C76   1.524020 S    
C57   C61   1.412936 A    
O6    C2    1.291840 A    
C27   C44   1.481578 S    
C34   C38   1.404938 A    
O45   C141  1.284876 A    
C75   H31   1.113232 S    
O76   H66   1.013922 S    
C130  H54   1.112160 S    
O34   Cu10  1.970404 S    
C31   C35   1.397072 A    
O42   C142  1.287938 A    
N22   O68   1.301322 A    
C2    C50   1.449679 S    
C150  O75   1.223578 D    
O13   C5    1.299363 A    
Cu3   O27   1.951652 S    
Cu4   O20   1.970925 S    
C74   N18   1.463471 S    
C30   H6    1.082722 S    
C9    C109  1.443986 S    
N7    N8    1.328813 A    
O12   Cu4   1.954272 S    
C111  C115  1.403557 A    
O84   H70   1.013776 S    
O48   Cu9   1.973035 S    
C106  C126  1.380133 A    
N17   O57   1.302285 A    
N3    N4    1.334032 A    
N12   N16   1.331453 A    
C72   H24   1.109892 S    
N21   O65   1.301088 A    
C70   H26   1.111476 S    
O47   C143  1.284185 A    
C71   H23   1.109876 S    
C77   N21   1.437725 S    
C48   C68   1.382985 A    
C63   C67   1.397004 A    
C45   C73   1.490128 S    
C118  C122  1.423261 A    
C86   C101  1.482110 S    
Cu2   O18   1.970925 S    
O47   Cu10  1.973244 S    
O52   H62   1.013935 S    
C149  O74   1.399178 S    
N13   C101  1.358500 A    
O14   Cu6   1.951598 S    
C49   C53   1.410089 A    
O11   C7    1.301622 A    
O37   Cu10  1.975283 S    
O12   C8    1.301757 A    
O1    Cu1   1.970957 S    
O9    Cu1   1.954412 S    
O39   Cu12  1.975283 S    
C121  C138  1.436478 S    
C131  H55   1.112113 S    
O4    Cu4   1.970613 S    
O5    Cu5   1.971024 S    
C23   H3    1.083516 S    
O18   C10   1.295631 A    
O7    Cu7   1.971024 S    
C135  H59   1.112790 S    
O8    Cu8   1.970680 S    
O16   C8    1.299695 A    
C106  C134  1.494344 S    
C113  H45   1.083296 S    
O41   Cu11  1.969620 S    
C91   H39   1.082750 S    
O42   Cu12  1.969133 S    
C145  O49   1.222576 D    
C110  C114  1.402149 A    
C87   C91   1.403817 A    
O43   Cu9   1.969620 S    
C132  C136  1.546140 S    
C58   H18   1.083387 S    
C83   H35   1.083004 S    
C63   C143  1.448540 S    
N24   O71   1.301136 A    
N16   C104  1.358613 A    
C92   H40   1.082746 S    
C105  C109  1.382507 A    
O23   C11   1.290640 A    
C28   C32   1.402275 A    
C10   C110  1.445472 S    
C54   H14   1.081409 S    
C129  H49   1.111715 S    
C7    C39   1.479554 S    
C32   H8    1.082768 S    
O2    C2    1.297249 A    
O31   C15   1.300075 A    
C46   C50   1.393537 A    
C21   C25   1.405967 A    
O32   C16   1.299444 A    
O35   Cu11  1.969923 S    
C78   N22   1.435882 S    
O36   Cu12  1.970404 S    
C117  C149  1.491705 S    
O35   C139  1.279491 A    
C95   C99   1.404587 A    
C66   C70   1.495210 S    
O22   C10   1.290991 A    
C75   N19   1.463258 S    
C132  H52   1.111634 S    
C148  O56   1.398572 S    
C27   C31   1.402465 A    
C107  C127  1.378915 A    
N21   O66   1.301351 A    
N9    N13   1.331229 A    
C147  O54   1.398568 S    
Cu7   O23   1.970957 S    
C24   C28   1.404310 A    
C77   C97   1.417393 A    
C78   C82   1.402654 A    
C54   C58   1.400138 A    
C11   C111  1.447046 S    
C156  O88   1.396865 S    
C154  O83   1.223955 D    
C51   C55   1.406494 A    
C155  O85   1.223970 D    
N1    C42   1.359581 A    
C58   C62   1.403441 A    
C41   N5    1.357541 A    
C18   C146  1.484181 S    
