data_mof_unit_41445.cif
_audit_creation_date              2013-03-05T16:04:39-0500
_audit_creation_method            fapswitch 2.2
_symmetry_space_group_name_H-M    P1
_symmetry_Int_Tables_number       1
_space_group_crystal_system       triclinic
_cell_length_a                    9.576507
_cell_length_b                    10.769811
_cell_length_c                    15.454509
_cell_angle_alpha                 88.010973
_cell_angle_beta                  73.41828
_cell_angle_gamma                 88.630896
_cell_volume                      1526.56522429

loop_
_atom_site_label
_atom_site_type_symbol
_atom_site_description
_atom_site_fract_x
_atom_site_fract_y
_atom_site_fract_z
_atom_type_partial_charge
O1    O     O_R   0.118740 0.319660 0.500000 -0.517024
O2    O     O_R   0.881260 0.680340 0.500000 -0.550481
O3    O     O_R   0.881170 0.319630 0.500010 -0.583499
O4    O     O_R   0.118830 0.680370 0.499990 -0.585298
C1    C     C_R   0.001197 0.262578 0.500764 0.947312
C2    C     C_R   0.998046 0.737395 0.500857 0.936950
O5    O     O_R   0.055570 0.500030 0.629830 -0.590780
O6    O     O_R   0.944430 0.499970 0.370170 -0.613978
O7    O     O_R   0.818000 0.500000 0.629840 -0.551120
O8    O     O_R   0.182000 0.500000 0.370160 -0.555861
C3    C     C_R   0.917172 0.505024 0.672025 0.846112
C4    C     C_R   0.082767 0.498827 0.327741 0.854599
Cu1   Cu    Cu3+1 0.140660 0.500020 0.500000 1.029505
Cu2   Cu    Cu3+1 0.859340 0.499980 0.500000 1.017592
C5    C     C_R   0.868475 0.535808 0.767733 -0.036556
C6    C     C_R   0.128095 0.493437 0.228973 -0.043118
C7    C     C_R   0.882946 0.668578 0.887696 -0.026034
C8    C     C_R   0.086064 0.422737 0.092325 -0.068978
C9    C     C_R   0.946300 0.618731 0.803107 -0.100356
C10   C     C_R   0.038017 0.438448 0.184906 -0.160967
C11   C     C_R   0.729164 0.501385 0.818388 -0.081938
C12   C     C_R   0.263954 0.538547 0.178854 -0.086091
C13   C     C_R   0.655645 0.562983 0.897784 0.057541
C14   C     C_R   0.309947 0.533547 0.083758 0.050135
C15   C     C_R   0.736444 0.643652 0.935143 -0.005453
C16   C     C_R   0.222554 0.467759 0.040898 -0.013131
C17   C     C_R   0.505319 0.543174 0.941714 -0.045375
C18   C     C_R   0.446374 0.582280 0.031597 -0.054255
C19   C     C_R   0.522821 0.673121 0.064428 0.113656
C20   C     C_R   0.410327 0.490364 0.897432 0.152862
C21   C     C_R   0.668530 0.700699 0.017361 0.271351
C22   C     C_R   0.273007 0.447148 0.947843 0.280001
H1    H     H_    0.335121 0.572546 0.215501 0.191010
H2    H     H_    0.679278 0.426987 0.793368 0.200532
H3    H     H_    0.933036 0.401955 0.222677 0.170231
H4    H     H_    0.054335 0.647414 0.764459 0.137615
H5    H     H_    0.947829 0.730146 0.913847 0.182530
H6    H     H_    0.015781 0.373427 0.062013 0.207748
C23   C     C_R   0.900278 0.063716 0.572144 0.234225
C24   C     C_R   0.098884 0.936432 0.430784 0.247682
C25   C     C_R   0.895902 0.934238 0.570094 0.209220
C26   C     C_R   0.103496 0.065663 0.433001 0.219148
C27   C     C_R   0.995149 0.871504 0.499440 -0.376321
C28   C     C_R   0.003839 0.128506 0.503190 -0.368191
C29   C     C_R   0.558644 0.405510 0.541127 -0.121376
C30   C     C_R   0.440984 0.594127 0.458721 -0.090511
H7    H     H_    0.602058 0.329269 0.573391 0.189654
H8    H     H_    0.398200 0.667433 0.423490 0.194872
C31   C     C_R   0.410676 0.403992 0.540311 0.339559
C32   C     C_R   0.589760 0.594716 0.457579 0.363103
N1    N     N_R   0.352080 0.500030 0.499980 -0.194228
N2    N     N_R   0.647920 0.499970 0.500020 -0.203837
N3    N     N_R   0.745000 0.790811 0.051954 0.105335
O9    O     O_R   0.777399 0.897765 0.010089 -0.305343
O10   O     O_R   0.782593 0.765795 0.125257 -0.356551
N4    N     N_R   0.189205 0.375616 0.904612 0.093570
O11   O     O_R   0.065319 0.418065 0.896457 -0.389974
O12   O     O_R   0.229770 0.262295 0.882083 -0.340050
N5    N     N_2   0.445627 0.752951 0.134465 -0.426304
H9    H     H_    0.504807 0.783618 0.175497 0.320836
C33   C     C_3   0.364512 0.851884 0.103973 -0.430386
H10   H     H_    0.305715 0.909021 0.161828 0.288823
H11   H     H_    0.283014 0.812824 0.074079 0.221658
H12   H     H_    0.439716 0.912980 0.052977 0.232848
N6    N     N_2   0.443976 0.496574 0.801360 -0.451017
H13   H     H_    0.404370 0.425665 0.772938 0.277361
C34   C     C_3   0.421058 0.617546 0.763722 -0.565885
H14   H     H_    0.456313 0.614842 0.688824 0.237692
H15   H     H_    0.486080 0.688582 0.784746 0.275136
H16   H     H_    0.303753 0.644109 0.786500 0.209136
N7    N     N_R   0.800653 0.128996 0.644575 0.158973
O13   O     O_R   0.662413 0.103855 0.668636 -0.317716
O14   O     O_R   0.848673 0.210319 0.689062 -0.374179
N8    N     N_R   0.198593 0.871465 0.358352 0.141896
O15   O     O_R   0.336886 0.896188 0.334928 -0.357491
O16   O     O_R   0.150964 0.789332 0.314298 -0.403100
N9    N     N_R   0.798695 0.866191 0.643432 0.149529
O17   O     O_R   0.686935 0.810853 0.631135 -0.355807
O18   O     O_R   0.810090 0.874219 0.724934 -0.318081
N10   N     N_R   0.201207 0.133601 0.359944 0.152805
O19   O     O_R   0.182717 0.134211 0.279702 -0.337150
O20   O     O_R   0.318000 0.181851 0.370948 -0.324974
N11   N     N_2   0.327613 0.296492 0.573878 -0.396334
H17   H     H_    0.376988 0.216310 0.544150 0.267688
C35   C     C_3   0.277025 0.282044 0.670893 -0.526634
H18   H     H_    0.369171 0.253441 0.697747 0.230741
H19   H     H_    0.193747 0.208317 0.689388 0.264011
H20   H     H_    0.226106 0.369670 0.701732 0.250378
N12   N     N_2   0.679094 0.690292 0.405975 -0.428508
H21   H     H_    0.784984 0.671829 0.370074 0.302715
C36   C     C_3   0.634917 0.818990 0.422250 -0.518670
H22   H     H_    0.722090 0.869741 0.439810 0.235391
H23   H     H_    0.533074 0.828172 0.478588 0.225942
H24   H     H_    0.617698 0.862564 0.359923 0.261703

loop_
_geom_bond_atom_site_label_1
_geom_bond_atom_site_label_2
_geom_bond_distance
_ccdc_geom_bond_type
C15   C21   1.406563 A    
C16   C22   1.404044 A    
C8    C16   1.409218 A    
C23   C25   1.397812 A    
N9    O17   1.300473 A    
O5    C3    1.300184 A    
N8    O16   1.300909 A    
O1    C1    1.292343 A    
C18   C19   1.425222 A    
C14   C16   1.420739 A    
C9    H4    1.082735 S    
C25   N9    1.435624 S    
C26   N10   1.434600 S    
N4    O11   1.299170 A    
C29   H7    1.081335 S    
O4    Cu1   1.948580 S    
C33   H11   1.111091 S    
Cu1   N1    2.024578 S    
C10   H3    1.083484 S    
C3    C5    1.465651 S    
C24   C27   1.407744 A    
Cu2   N2    2.024579 S    
C4    C6    1.465782 S    
N4    O12   1.300482 A    
C31   N1    1.378523 A    
C32   N2    1.384390 A    
C13   C17   1.423263 A    
N12   C36   1.448735 S    
C6    C10   1.395132 A    
N9    O18   1.300907 A    
N5    H9    1.030048 S    
Cu1   Cu2   2.694074 S    
C17   C20   1.423532 A    
C25   C27   1.407227 A    
O2    C2    1.292450 A    
C26   C28   1.405261 A    
N3    O10   1.300961 A    
C30   H8    1.081502 S    
N5    C33   1.447515 S    
N8    O15   1.300918 A    
C35   H19   1.110222 S    
C34   H14   1.110622 S    
C19   N5    1.426449 S    
O4    C2    1.293472 A    
C36   H22   1.109383 S    
N7    O14   1.301070 A    
C11   H2    1.079346 S    
O6    Cu2   1.938220 S    
C29   N2    1.362414 A    
N6    C34   1.445866 S    
C35   H18   1.110409 S    
C30   N1    1.358292 A    
C34   H15   1.110895 S    
C33   H12   1.111499 S    
C5    C9    1.396477 A    
O7    Cu2   1.931279 S    
C36   H23   1.111645 S    
C32   N12   1.422367 S    
N11   H17   1.031699 S    
C29   C31   1.421152 A    
O6    C4    1.299669 A    
C7    H5    1.081986 S    
C21   N3    1.434363 S    
O7    C3    1.299323 A    
O3    Cu2   1.948580 S    
O8    C4    1.299890 A    
N10   O20   1.300914 A    
N11   C35   1.442111 S    
C1    C28   1.442921 S    
C2    C27   1.443456 S    
C11   C13   1.408017 A    
C12   C14   1.411273 A    
O1    Cu1   1.958733 S    
C35   H20   1.110003 S    
C12   H1    1.079789 S    
C6    C12   1.399144 A    
C14   C18   1.426362 A    
N10   O19   1.301526 A    
O3    C1    1.293163 A    
O8    Cu1   1.931280 S    
N3    O9    1.300943 A    
C23   C28   1.408653 A    
C30   C32   1.419980 A    
C34   H16   1.110703 S    
C7    C15   1.412531 A    
C31   N11   1.417409 S    
C8    H6    1.081106 S    
N7    O13   1.301286 A    
C19   C21   1.410631 A    
C36   H24   1.109421 S    
C20   C22   1.404369 A    
C5    C11   1.391945 A    
C24   C26   1.395466 A    
C7    C9    1.394901 A    
C24   N8    1.437613 S    
C8    C10   1.387394 A    
C13   C15   1.417320 A    
C33   H10   1.108797 S    
O2    Cu2   1.958733 S    
C20   N6    1.426114 S    
O5    Cu1   1.938220 S    
N6    H13   1.025775 S    
C17   C18   1.416794 A    
C23   N7    1.438938 S    
N12   H21   1.025955 S    
C22   N4    1.433604 S    
