data_mof_unit_21222.cif
_audit_creation_date              2012-12-11T15:24:44-0500
_audit_creation_method            fapswitch 2.2
_symmetry_space_group_name_H-M    P1
_symmetry_Int_Tables_number       1
_space_group_crystal_system       triclinic
_cell_length_a                    22.995552
_cell_length_b                    6.959056
_cell_length_c                    20.702069
_cell_angle_alpha                 90.000059
_cell_angle_beta                  93.275588
_cell_angle_gamma                 89.999795
_cell_volume                      3307.48447504

loop_
_atom_site_label
_atom_site_type_symbol
_atom_type_description
_atom_site_fract_x
_atom_site_fract_y
_atom_site_fract_z
_atom_type_partial_charge
O1    O     O_R   0.188030 0.379840 0.189340 -0.539577
O2    O     O_R   0.811970 0.620160 0.810660 -0.539578
O3    O     O_R   0.311970 0.879840 0.310660 -0.539578
O4    O     O_R   0.688030 0.120160 0.689340 -0.539578
O5    O     O_R   0.307090 0.708420 0.185790 -0.537496
O6    O     O_R   0.692910 0.291580 0.814210 -0.537496
O7    O     O_R   0.192910 0.208420 0.314210 -0.537496
O8    O     O_R   0.807090 0.791580 0.685790 -0.537496
C1    C     C_R   0.326698 0.540772 0.170702 0.729485
C2    C     C_R   0.673302 0.459228 0.829298 0.729485
C3    C     C_R   0.173302 0.040773 0.329297 0.729486
C4    C     C_R   0.826698 0.959227 0.670702 0.729486
O9    O     O_R   0.188180 0.709480 0.181650 -0.543135
O10   O     O_R   0.811820 0.290520 0.818350 -0.543135
O11   O     O_R   0.311820 0.209480 0.318350 -0.543134
O12   O     O_R   0.688180 0.790520 0.681650 -0.543134
O13   O     O_R   0.192210 0.880960 0.306500 -0.535303
O14   O     O_R   0.807790 0.119040 0.693500 -0.535303
O15   O     O_R   0.307790 0.380960 0.193500 -0.535304
O16   O     O_R   0.692210 0.619040 0.806500 -0.535304
C5    C     C_R   0.167748 0.540599 0.165364 0.709398
C6    C     C_R   0.832252 0.459400 0.834636 0.709399
C7    C     C_R   0.332252 0.040599 0.334636 0.709399
C8    C     C_R   0.667748 0.959401 0.665364 0.709399
O17   O     O_3   0.251460 0.546730 0.290970 -0.369906
O18   O     O_3   0.748540 0.453270 0.709030 -0.369906
O19   O     O_3   0.248540 0.046730 0.209030 -0.369906
O20   O     O_3   0.751460 0.953270 0.790970 -0.369907
V1    V     V_3+5 0.249730 0.821120 0.242400 1.411275
V2    V     V_3+5 0.750270 0.178880 0.757600 1.411275
V3    V     V_3+5 0.250270 0.321120 0.257600 1.411277
V4    V     V_3+5 0.749730 0.678880 0.742400 1.411277
C9    C     C_R   0.578671 0.817048 0.607954 -0.218971
C10   C     C_R   0.421329 0.182952 0.392046 -0.218972
C11   C     C_R   0.921328 0.317044 0.892048 -0.218972
C12   C     C_R   0.078672 0.682956 0.107952 -0.218972
C13   C     C_R   0.618595 0.969870 0.615719 -0.082569
C14   C     C_R   0.381405 0.030130 0.384281 -0.082569
C15   C     C_R   0.881404 0.469867 0.884281 -0.082568
C16   C     C_R   0.118596 0.530133 0.115719 -0.082568
C17   C     C_R   0.610761 0.134478 0.576589 -0.219097
C18   C     C_R   0.389239 0.865522 0.423410 -0.219097
C19   C     C_R   0.889240 0.634480 0.923409 -0.219096
C20   C     C_R   0.110760 0.365520 0.076591 -0.219096
C21   C     C_R   0.564104 0.146429 0.529882 0.089453
C22   C     C_R   0.435896 0.853571 0.470118 0.089453
C23   C     C_R   0.935896 0.646429 0.970117 0.089452
C24   C     C_R   0.064104 0.353570 0.029882 0.089452
C25   C     C_R   0.523795 0.993839 0.523115 0.053800
C26   C     C_R   0.476204 0.006160 0.476885 0.053800
C27   C     C_R   0.976205 0.493839 0.976885 0.053805
C28   C     C_R   0.023795 0.506161 0.023115 0.053805
C29   C     C_R   0.530949 0.829075 0.562558 0.090278
C30   C     C_R   0.469051 0.170925 0.437442 0.090278
C31   C     C_R   0.969051 0.329074 0.937442 0.090278
C32   C     C_R   0.030949 0.670926 0.062558 0.090278
C33   C     C_R   0.557002 0.308360 0.489771 -0.191204
C34   C     C_R   0.442998 0.691640 0.510229 -0.191204
C35   C     C_R   0.942999 0.808361 0.010226 -0.191213
C36   C     C_R   0.057001 0.191638 0.989774 -0.191213
C37   C     C_R   0.509975 0.320331 0.443911 -0.181326
C38   C     C_R   0.490024 0.679668 0.556089 -0.181326
C39   C     C_R   0.990026 0.820332 0.056087 -0.181335
C40   C     C_R   0.009974 0.179667 0.943913 -0.181335
H1    H     H_    0.584079 0.690314 0.638171 0.124953
H2    H     H_    0.415921 0.309686 0.361829 0.124952
H3    H     H_    0.915919 0.190306 0.861832 0.124952
H4    H     H_    0.084081 0.809694 0.138168 0.124952
H5    H     H_    0.641413 0.252573 0.581979 0.127591
H6    H     H_    0.358587 0.747427 0.418021 0.127591
H7    H     H_    0.858588 0.752579 0.918018 0.127590
H8    H     H_    0.141412 0.247421 0.081981 0.127590
H9    H     H_    0.587644 0.426587 0.494139 0.133944
H10   H     H_    0.412355 0.573413 0.505861 0.133944
H11   H     H_    0.912361 0.926596 0.005853 0.133949
H12   H     H_    0.087639 0.073404 0.994147 0.133949
H13   H     H_    0.505403 0.447343 0.413766 0.137182
H14   H     H_    0.494597 0.552656 0.586234 0.137182
H15   H     H_    0.994600 0.947349 0.086228 0.137187
H16   H     H_    0.005400 0.052651 0.913772 0.137187
C41   C     C_3   0.050578 0.048028 0.532995 -0.193840
C42   C     C_3   0.949422 0.951972 0.467005 -0.193840
C43   C     C_3   0.449423 0.548035 0.967005 -0.193842
C44   C     C_3   0.550577 0.451965 0.032995 -0.193842
C45   C     C_3   0.012899 0.868883 0.543887 0.365219
C46   C     C_3   0.987101 0.131117 0.456113 0.365219
C47   C     C_3   0.487101 0.368888 0.956111 0.365219
C48   C     C_3   0.512899 0.631112 0.043889 0.365218
H17   H     H_    0.092031 0.084586 0.560336 0.125350
H18   H     H_    0.907969 0.915414 0.439664 0.125350
H19   H     H_    0.407969 0.584598 0.939665 0.125350
H20   H     H_    0.592031 0.415402 0.060335 0.125350
H21   H     H_    0.011864 0.685677 0.447665 0.131479
H22   H     H_    0.988136 0.314323 0.552335 0.131479
H23   H     H_    0.488134 0.185671 0.052331 0.131478
H24   H     H_    0.511866 0.814329 0.947669 0.131477
C49   C     C_1   0.872048 0.968819 0.624865 -0.190232
C50   C     C_1   0.127951 0.031180 0.375135 -0.190232
C51   C     C_1   0.627952 0.468821 0.875135 -0.190233
C52   C     C_1   0.372048 0.531179 0.124865 -0.190233
C53   C     C_3   0.994018 0.172421 0.529313 -0.230525
C54   C     C_3   0.005982 0.827579 0.470687 -0.230525
C55   C     C_3   0.505982 0.672424 0.970689 -0.230525
C56   C     C_3   0.494017 0.327576 0.029311 -0.230525
C57   C     C_3   0.957221 0.990211 0.540786 0.064830
C58   C     C_3   0.042779 0.009789 0.459214 0.064830
C59   C     C_3   0.542779 0.490213 0.959214 0.064832
C60   C     C_3   0.457221 0.509787 0.040786 0.064831
C61   C     C_1   0.910307 0.977939 0.586865 -0.034123
C62   C     C_1   0.089693 0.022061 0.413135 -0.034123
C63   C     C_1   0.589693 0.477941 0.913135 -0.034123
C64   C     C_1   0.410307 0.522059 0.086865 -0.034123
N1    N     N_2   0.025919 0.724786 0.592945 -0.513296
H25   H     H_    0.991280 0.634585 0.599850 0.248363
C65   C     C_3   0.080217 0.623601 0.586830 -0.559086
H26   H     H_    0.087609 0.523429 0.628226 0.202253
H27   H     H_    0.117120 0.726647 0.587319 0.206907
H28   H     H_    0.078761 0.539191 0.541196 0.187929
N2    N     N_2   0.974081 0.275214 0.407055 -0.513297
H29   H     H_    0.008720 0.365415 0.400150 0.248363
C66   C     C_3   0.919783 0.376399 0.413170 -0.559087
H30   H     H_    0.912391 0.476571 0.371774 0.202253
H31   H     H_    0.921239 0.460809 0.458804 0.187929
H32   H     H_    0.882880 0.273353 0.412681 0.206907
N3    N     N_2   0.474080 0.224797 0.907051 -0.513293
H33   H     H_    0.508720 0.134593 0.900146 0.248361
C67   C     C_3   0.419782 0.123611 0.913166 -0.559083
H34   H     H_    0.412388 0.023453 0.871766 0.202255
H35   H     H_    0.382880 0.226658 0.912683 0.206905
H36   H     H_    0.421241 0.039185 0.958797 0.187926
N4    N     N_2   0.525920 0.775203 0.092948 -0.513294
H37   H     H_    0.491280 0.865405 0.099855 0.248361
C68   C     C_3   0.580217 0.876390 0.086833 -0.559078
H38   H     H_    0.587610 0.976556 0.128231 0.202253
H39   H     H_    0.578758 0.960809 0.041200 0.187926
H40   H     H_    0.617121 0.773344 0.087318 0.206905

loop_
_geom_bond_atom_site_label_1
_geom_bond_atom_site_label_2
_ccdc_geom_bond_type
C34   C38   A    
C43   C47   S    
O1    C5    A    
C50   C62   T    
O19   V1    S    
O13   V1    S    
O3    C7    A    
O1    V3    S    
O15   V3    S    
C10   H2    S    
C9    H1    S    
C39   H15   S    
O7    C3    A    
C21   C33   A    
C26   C30   A    
C43   C55   S    
C3    C50   S    
O9    V1    S    
C14   C18   A    
C24   C28   A    
C58   C62   S    
O4    C8    A    
C65   H26   S    
C18   H6    S    
C44   C59   S    
C43   C60   S    
O17   V1    S    
O2    V4    S    
C18   C22   A    
C42   C57   S    
C33   H9    S    
O3    V1    S    
C12   C16   A    
C1    O15   A    
H22   C53   S    
C2    O16   A    
C66   H32   S    
O2    C6    A    
C68   H40   S    
C54   C58   S    
C46   N2    S    
O14   V2    S    
C21   C25   A    
C41   H17   S    
C56   C60   S    
O11   C7    A    
O12   C8    A    
C22   C34   A    
C53   C57   S    
C40   H16   S    
C46   C58   S    
O10   V2    S    
C45   C57   S    
C24   C36   A    
O5    V1    S    
N2    C66   S    
C9    C29   A    
O7    V3    S    
C11   C31   A    
C27   C28   A    
O8    V4    S    
O20   V4    S    
C37   H13   S    
O18   V4    S    
C41   C53   S    
C65   H27   S    
C42   C46   S    
O19   V3    S    
C36   H12   S    
C9    C13   A    
C60   C64   S    
C11   C15   A    
C67   H35   S    
O5    C1    A    
C12   C32   A    
N3    C67   S    
C49   C61   T    
C29   C38   A    
C11   H3    S    
O8    C4    A    
C65   H28   S    
C51   C63   T    
C31   C40   A    
C12   H4    S    
C8    C13   S    
C42   C54   S    
C32   C39   A    
O9    C5    A    
C33   C37   A    
C4    C49   S    
O6    V2    S    
C52   C64   T    
C1    C52   S    
N3    H33   S    
C44   C56   S    
C67   H34   S    
C35   H11   S    
C47   N3    S    
C48   C55   S    
H23   C56   S    
C34   H10   S    
C17   H5    S    
N1    H25   S    
O16   V4    S    
C57   C61   S    
C41   C58   S    
C3    O13   A    
C19   H7    S    
C10   C14   A    
C59   C63   S    
O17   V3    S    
C38   H14   S    
C44   C48   S    
N4    C68   S    
H21   C54   S    
O6    C2    A    
C23   C27   A    
N2    H29   S    
C66   H30   S    
O11   V3    S    
C30   C37   A    
O12   V4    S    
C7    C14   S    
C43   H19   S    
C22   C26   A    
C35   C39   A    
C42   H18   S    
C36   C40   A    
O10   C6    A    
C45   N1    S    
C67   H36   S    
C10   C30   A    
C68   H38   S    
C5    C16   S    
C28   C32   A    
C25   C29   A    
C6    C15   S    
O20   V2    S    
C20   H8    S    
C27   C31   A    
C13   C17   A    
C2    C51   S    
O4    V2    S    
C66   H31   S    
C23   C35   A    
C47   C56   S    
C48   C60   S    
C20   C24   A    
C16   C20   A    
C47   C59   S    
C15   C19   A    
C25   C26   A    
H24   C55   S    
C4    O14   A    
C68   H39   S    
C17   C21   A    
C55   C59   S    
C44   H20   S    
C48   N4    S    
C46   C53   S    
C19   C23   A    
C41   C45   S    
C45   C54   S    
N4    H37   S    
N1    C65   S    
O18   V2    S    
