data_mof_unit_40139.cif
_audit_creation_date              2012-12-10T18:21:23-0500
_audit_creation_method            fapswitch 2.2
_symmetry_space_group_name_H-M    P1
_symmetry_Int_Tables_number       1
_space_group_crystal_system       triclinic
_cell_length_a                    14.94928
_cell_length_b                    14.185327
_cell_length_c                    10.780821
_cell_angle_alpha                 89.770281
_cell_angle_beta                  86.251089
_cell_angle_gamma                 89.5773
_cell_volume                      2281.21709547

loop_
_atom_site_label
_atom_site_type_symbol
_atom_type_description
_atom_site_fract_x
_atom_site_fract_y
_atom_site_fract_z
_atom_type_partial_charge
C1    C     C_R   0.327136 0.500437 0.501299 0.912417
C2    C     C_3   0.593834 0.523604 0.918473 -0.377781
C3    C     C_R   0.819450 0.563077 0.422904 0.353976
C4    C     C_R   0.769502 0.500150 0.500950 -0.191939
C5    C     C_R   0.810499 0.441316 0.585787 0.366449
C6    C     C_R   0.902506 0.452082 0.603058 -0.228308
C7    C     C_R   0.953228 0.511979 0.520450 -0.100712
C8    C     C_R   0.911328 0.568740 0.432505 0.104963
C9    C     C_R   0.945605 0.405503 0.700102 0.425128
C10   C     C_R   0.038969 0.404409 0.699676 0.448253
C11   C     C_R   0.090034 0.454332 0.606382 -0.107130
C12   C     C_R   0.498030 0.499729 0.258087 1.008314
C13   C     C_R   0.046613 0.512934 0.522182 0.074585
C14   C     C_R   0.097099 0.570200 0.436045 0.153269
C15   C     C_R   0.054850 0.629334 0.354191 -0.227223
C16   C     C_R   0.962524 0.628731 0.352360 -0.076834
C17   C     C_R   0.183297 0.447174 0.593968 -0.199215
C18   C     C_R   0.231621 0.502844 0.507055 -0.037521
C19   C     C_R   0.189519 0.566043 0.431036 -0.162651
C20   C     C_R   0.566212 0.798992 0.433435 0.521902
C21   C     C_R   0.564292 0.200689 0.429210 0.498131
C22   C     C_R   0.435561 0.798414 0.571427 0.508861
C23   C     C_R   0.437704 0.202787 0.574938 0.511258
C24   C     C_R   0.435807 0.899321 0.578251 -0.102989
C25   C     C_R   0.434840 0.101891 0.576515 -0.097035
C26   C     C_R   0.673202 0.499721 0.499417 0.928046
C27   C     C_R   0.501376 0.949789 0.505115 -0.160213
C28   C     C_R   0.501432 0.050680 0.505091 -0.152526
C29   C     C_R   0.568473 0.899224 0.434376 -0.056117
C30   C     C_R   0.566926 0.100441 0.431002 -0.054171
C31   C     C_R   0.373330 0.951216 0.656504 0.392565
C32   C     C_R   0.367670 0.050807 0.646587 0.379057
C33   C     C_R   0.632598 0.049194 0.357645 0.363404
C34   C     C_R   0.636848 0.949608 0.365910 0.382165
C35   C     C_R   0.499846 0.499516 0.742316 0.978468
C36   C     C_3   0.418427 0.564620 0.079241 0.650307
C37   C     C_3   0.477720 0.393832 0.074940 0.630474
C38   C     C_3   0.429419 0.572819 0.934126 0.100162
C39   C     C_3   0.477383 0.396087 0.931300 0.177509
C40   C     C_3   0.591460 0.532072 0.061523 0.579828
C41   C     C_3   0.496361 0.498021 0.121509 -0.218142
C42   C     C_3   0.499933 0.498021 0.879093 -0.367559
H1    H     H_    0.219444 0.399633 0.651578 0.202913
H2    H     H_    0.228967 0.609652 0.365326 0.177871
H3    H     H_    0.093356 0.674261 0.289338 0.171651
H4    H     H_    0.931779 0.673863 0.285666 0.222853
H5    H     H_    0.364441 0.560556 0.892367 0.107149
H6    H     H_    0.408927 0.378780 0.903786 0.170814
H7    H     H_    0.617565 0.589835 0.872000 0.244606
H8    H     H_    0.643125 0.469062 0.884172 0.249699
N1    N     N_R   0.500070 0.750030 0.500050 -0.235419
N2    N     N_R   0.500070 0.249970 0.500050 -0.230607
O1    O     O_R   0.367860 0.580280 0.500020 -0.580893
O2    O     O_R   0.367860 0.419720 0.500020 -0.599983
O3    O     O_R   0.500000 0.580270 0.314790 -0.596916
O4    O     O_R   0.500000 0.419730 0.314790 -0.658475
O5    O     O_R   0.632160 0.580270 0.499960 -0.645009
O6    O     O_R   0.632160 0.419730 0.499960 -0.565724
O7    O     O_R   0.500030 0.580270 0.685200 -0.553421
O8    O     O_R   0.500030 0.419730 0.685200 -0.541180
Zn1   Zn    Zn3+2 0.500020 0.607200 0.499990 1.054167
Zn2   Zn    Zn3+2 0.500020 0.392800 0.499990 1.050089
O9    O     O_3   0.424941 0.654473 0.133473 -0.631078
H9    H     H_    0.367676 0.688750 0.123094 0.381264
O10   O     O_3   0.545383 0.331683 0.113102 -0.658777
H10   H     H_    0.522897 0.266028 0.110196 0.386173
O11   O     O_3   0.077169 0.356285 0.794775 -0.656653
H11   H     H_    0.131515 0.390216 0.816685 0.335606
O12   O     O_3   0.631210 0.751571 0.362579 -0.602114
H12   H     H_    0.608212 0.688922 0.346215 0.396162
O13   O     O_3   0.629945 0.247586 0.358684 -0.625899
H13   H     H_    0.609800 0.312244 0.345082 0.401699
Cl1   Cl    Cl    0.348415 0.733221 0.647783 -0.450935
Cl2   Cl    Cl    0.366938 0.270848 0.676935 -0.502413
O14   O     O_3   0.320068 0.905005 0.746532 -0.673913
H14   H     H_    0.306635 0.947893 0.817827 0.363352
O15   O     O_3   0.294454 0.097915 0.701920 -0.682761
H15   H     H_    0.242017 0.055365 0.706945 0.359155
O16   O     O_3   0.691545 0.096945 0.276063 -0.653189
H16   H     H_    0.706985 0.056481 0.202921 0.361882
O17   O     O_3   0.708367 0.900926 0.308268 -0.644658
H17   H     H_    0.762499 0.940926 0.307046 0.351400
O18   O     O_3   0.333593 0.528436 0.121758 -0.772599
H18   H     H_    0.305722 0.494059 0.054518 0.345662
O19   O     O_3   0.392791 0.360744 0.121911 -0.777292
H19   H     H_    0.397939 0.331074 0.204531 0.374009
Cl3   Cl    Cl    0.459090 0.692791 0.889442 -0.421784
Cl4   Cl    Cl    0.550492 0.303147 0.864875 -0.440487
Cl5   Cl    Cl    0.616899 0.652028 0.097827 -0.436054
Cl6   Cl    Cl    0.683554 0.464874 0.116641 -0.512460
O20   O     O_3   0.781138 0.616770 0.332829 -0.674809
H20   H     H_    0.728325 0.583436 0.305041 0.377318
O21   O     O_3   0.759188 0.373073 0.647587 -0.701202
H21   H     H_    0.796335 0.315113 0.651545 0.388237
O22   O     O_3   0.899071 0.365697 0.801726 -0.655318
H22   H     H_    0.845532 0.405588 0.822684 0.376865

loop_
_geom_bond_atom_site_label_1
_geom_bond_atom_site_label_2
_ccdc_geom_bond_type
O6    Zn2   S    
O21   H21   S    
C3    O20   S    
C27   C29   A    
O22   H22   S    
N1    Zn1   S    
C24   C27   A    
C1    O2    A    
C6    C9    A    
O17   H17   S    
C7    C8    A    
O15   H15   S    
C25   C28   A    
C1    C18   S    
C21   O13   S    
C37   O19   S    
C38   C42   S    
C20   N1    A    
C5    C6    A    
C36   O18   S    
C15   C16   A    
C35   O7    A    
C18   C19   A    
C35   C42   S    
C1    O1    A    
C2    H8    S    
C32   O15   S    
O1    Zn1   S    
C31   C32   A    
C37   O10   S    
C34   O17   S    
C40   Cl5   S    
C36   O9    S    
C9    C10   A    
C9    O22   S    
C25   C32   A    
C8    C16   A    
C13   C14   A    
C36   C41   S    
C39   Cl4   S    
C33   C34   A    
C39   C42   S    
C20   C29   A    
C4    C26   S    
O7    Zn1   S    
O11   H11   S    
C3    C8    A    
C16   H4    S    
O20   H20   S    
C33   O16   S    
O2    Zn2   S    
O19   H19   S    
C29   C34   A    
O16   H16   S    
C35   O8    A    
O14   H14   S    
C17   H1    S    
C12   C41   S    
C2    H7    S    
C31   O14   S    
O18   H18   S    
C17   C18   A    
C26   O6    A    
C38   H5    S    
C12   O4    A    
C40   C41   S    
O4    Zn2   S    
C20   O12   S    
C15   H3    S    
C23   Cl2   S    
C3    C4    A    
C19   H2    S    
C11   C17   A    
C30   C33   A    
C14   C19   A    
C4    C5    A    
C5    O21   S    
O5    Zn1   S    
C6    C7    A    
C21   C30   A    
C38   Cl3   S    
C36   C38   S    
C24   C31   A    
O13   H13   S    
C37   C39   S    
C10   O11   S    
O8    Zn2   S    
C11   C13   A    
C23   N2    A    
C2    C42   S    
O3    Zn1   S    
C28   C30   A    
C22   C24   A    
C23   C25   A    
C37   C41   S    
O12   H12   S    
C26   O5    A    
C12   O3    A    
C10   C11   A    
O9    H9    S    
C2    C40   S    
C7    C13   A    
O10   H10   S    
C27   C28   A    
C14   C15   A    
C22   N1    A    
N2    Zn2   S    
C22   Cl1   S    
C40   Cl6   S    
C21   N2    A    
C39   H6    S    
