data_mof_unit_26525.cif
_audit_creation_date              2012-10-26T19:09:58-0400
_audit_creation_method            fapswitch 2.2
_symmetry_space_group_name_H-M    P1
_symmetry_Int_Tables_number       1
_space_group_crystal_system       triclinic
_cell_length_a                    15.182016
_cell_length_b                    15.231703
_cell_length_c                    9.44046
_cell_angle_alpha                 90.036482
_cell_angle_beta                  90.073542
_cell_angle_gamma                 89.965973
_cell_volume                      2183.08447896

loop_
_atom_site_label
_atom_site_type_symbol
_atom_type_description
_atom_site_fract_x
_atom_site_fract_y
_atom_site_fract_z
_atom_type_partial_charge
C1    C     C_R   0.121860 0.381871 0.500214 0.533355
C2    C     C_R   0.882054 0.622080 0.499784 0.643217
C3    C     C_R   0.381111 0.878760 0.499812 0.684164
C4    C     C_R   0.381449 0.121518 0.500033 0.655265
C5    C     C_3   0.803756 0.266849 0.651507 0.098613
C6    C     C_3   0.836759 0.233590 0.392656 0.131532
C7    C     C_3   0.832793 0.761568 0.617502 0.116885
C8    C     C_3   0.811653 0.740781 0.352435 0.127912
C9    C     C_3   0.335659 0.736029 0.611352 0.102149
C10   C     C_3   0.306543 0.763991 0.349854 0.126622
C11   C     C_3   0.307410 0.236421 0.649492 0.105805
C12   C     C_R   0.121856 0.618108 0.499987 0.557848
C13   C     C_3   0.335099 0.263784 0.387480 0.128703
C14   C     C_3   0.266012 0.661879 0.605104 -0.244660
C15   C     C_3   0.231979 0.695525 0.349650 -0.230008
C16   C     C_3   0.232404 0.304435 0.650703 -0.246616
C17   C     C_3   0.266018 0.338436 0.395541 -0.221447
C18   C     C_3   0.728442 0.199338 0.652182 -0.246840
C19   C     C_3   0.767188 0.159664 0.400651 -0.189100
C20   C     C_3   0.763977 0.836390 0.610402 -0.237490
C21   C     C_3   0.736133 0.808492 0.351462 -0.227433
C22   C     C_3   0.721390 0.348466 0.453847 0.337229
C23   C     C_R   0.622066 0.882106 0.499935 0.545824
C24   C     C_3   0.719638 0.649997 0.523076 0.355896
C25   C     C_3   0.220096 0.849728 0.534845 0.344569
C26   C     C_3   0.220806 0.150836 0.460312 0.348984
C27   C     C_3   0.812647 0.308426 0.500141 0.153568
C28   C     C_3   0.813526 0.692109 0.498812 0.126780
C29   C     C_3   0.312766 0.808565 0.499488 0.169882
C30   C     C_3   0.313046 0.191595 0.499938 0.149723
C31   C     C_3   0.191340 0.686196 0.499833 -0.061949
C32   C     C_3   0.191502 0.313879 0.500792 -0.068474
C33   C     C_3   0.690759 0.186557 0.500653 -0.072909
C34   C     C_R   0.621403 0.118508 0.500228 0.552900
C35   C     C_3   0.691829 0.814262 0.499631 -0.071193
C36   C     C_3   0.150252 0.774861 0.544432 -0.203159
C37   C     C_3   0.150455 0.225077 0.457032 -0.169842
C38   C     C_3   0.650754 0.274211 0.449217 -0.208292
C39   C     C_3   0.650192 0.724579 0.537134 -0.146050
C40   C     C_3   0.955285 0.578834 0.083941 0.201375
C41   C     C_3   0.953608 0.577998 0.915024 0.194328
C42   C     C_3   0.953842 0.421969 0.083786 0.196517
C43   C     C_3   0.956308 0.420670 0.915787 0.204971
C44   C     C_3   0.454045 0.078256 0.084973 0.193737
C45   C     C_3   0.092372 0.499698 0.083429 -0.130268
C46   C     C_3   0.455958 0.079202 0.916076 0.202416
C47   C     C_3   0.455810 0.920933 0.083881 0.200868
C48   C     C_3   0.453303 0.922277 0.915851 0.195422
C49   C     C_3   0.092250 0.503984 0.916727 -0.115391
C50   C     C_3   0.592273 0.003471 0.083609 -0.113609
C51   C     C_3   0.592366 0.998999 0.916905 -0.131115
C52   C     C_R   0.881076 0.378715 0.500030 0.643451
Cu1   Cu    Cu3+1 0.000100 0.500000 0.642410 1.023994
Cu2   Cu    Cu3+1 0.000100 0.500000 0.357590 0.997797
Cu3   Cu    Cu3+1 0.500100 1.000000 0.642410 1.024046
Cu4   Cu    Cu3+1 0.500100 1.000000 0.357590 1.016114
H1    H     H_    0.296927 0.598845 0.571828 0.163178
H2    H     H_    0.180409 0.716533 0.272777 0.123309
H3    H     H_    0.181187 0.282918 0.727519 0.101054
H4    H     H_    0.238583 0.349765 0.287706 0.086312
H5    H     H_    0.675593 0.222754 0.724701 0.111291
H6    H     H_    0.741796 0.146270 0.292098 0.097123
H7    H     H_    0.734450 0.845156 0.717331 0.078425
H8    H     H_    0.686629 0.788457 0.270541 0.117477
H9    H     H_    0.885266 0.577189 0.118518 0.105590
H10   H     H_    0.883207 0.574256 0.881170 0.078498
H11   H     H_    0.883114 0.427464 0.113827 0.141111
H12   H     H_    0.257204 0.630676 0.313057 0.138331
H13   H     H_    0.886390 0.421934 0.880324 0.120808
H14   H     H_    0.383585 0.074805 0.118268 0.087156
H15   H     H_    0.385979 0.078257 0.881005 0.113502
H16   H     H_    0.385917 0.922600 0.119189 0.115713
H17   H     H_    0.382601 0.928323 0.885631 0.121976
H18   H     H_    0.788213 0.319070 0.730408 0.114354
H19   H     H_    0.835658 0.260204 0.282457 0.176932
H20   H     H_    0.827722 0.729487 0.722960 0.079046
H21   H     H_    0.799082 0.692448 0.265873 0.134514
H22   H     H_    0.334792 0.765384 0.719376 0.132401
H23   H     H_    0.257250 0.369315 0.687784 0.147234
H24   H     H_    0.290799 0.814668 0.268316 0.148459
H25   H     H_    0.293229 0.186006 0.731882 0.108038
H26   H     H_    0.331587 0.233936 0.279782 0.131829
H27   H     H_    0.877992 0.212680 0.794785 0.341952
H28   H     H_    0.963945 0.236593 0.372143 0.344539
H29   H     H_    0.931626 0.828057 0.692632 0.317263
H30   H     H_    0.892335 0.799968 0.224620 0.327647
H31   H     H_    0.437165 0.668436 0.673681 0.332604
H32   H     H_    0.383072 0.708435 0.211456 0.335285
H33   H     H_    0.385000 0.292610 0.786067 0.327621
H34   H     H_    0.297521 0.400936 0.429948 0.160259
H35   H     H_    0.435974 0.330419 0.321198 0.312797
H36   H     H_    0.673197 0.389934 0.636478 0.312470
H37   H     H_    0.672878 0.414278 0.294510 0.360874
H38   H     H_    0.722381 0.631918 0.730210 0.281463
H39   H     H_    0.738419 0.550116 0.396938 0.380912
H40   H     H_    0.225685 0.858457 0.743583 0.287101
H41   H     H_    0.139670 0.935314 0.451425 0.398065
H42   H     H_    0.177648 0.112429 0.647908 0.310109
H43   H     H_    0.250955 0.054594 0.330646 0.383979
H44   H     H_    0.123285 0.769334 0.653648 0.151249
H45   H     H_    0.752239 0.135271 0.694377 0.148779
H46   H     H_    0.092903 0.789583 0.474634 0.199528
H47   H     H_    0.094269 0.209256 0.528203 0.169252
H48   H     H_    0.122323 0.231310 0.348474 0.167037
H49   H     H_    0.592639 0.291594 0.515335 0.187459
H50   H     H_    0.625380 0.265706 0.339275 0.171256
H51   H     H_    0.622738 0.727412 0.646340 0.123934
H52   H     H_    0.593163 0.711601 0.465724 0.227553
H53   H     H_    0.047346 0.669801 0.095002 0.335448
H54   H     H_    0.947860 0.703824 0.883095 0.311052
H55   H     H_    0.044435 0.331670 0.121900 0.318730
H56   H     H_    0.797542 0.097598 0.439594 0.174452
H57   H     H_    0.053100 0.335703 0.891389 0.311479
H58   H     H_    0.448780 0.204097 0.117491 0.310567
H59   H     H_    0.548832 0.169397 0.906532 0.334581
H60   H     H_    0.552154 0.835479 0.108677 0.311324
H61   H     H_    0.543163 0.831183 0.878024 0.316225
H62   H     H_    0.131438 0.555171 0.126243 0.116635
H63   H     H_    0.125341 0.565671 0.883480 0.156243
H64   H     H_    0.130094 0.441453 0.118672 0.094425
H65   H     H_    0.134512 0.451274 0.872806 0.089092
H66   H     H_    0.625671 0.065037 0.116929 0.158604
H67   H     H_    0.796058 0.899658 0.581731 0.165571
H68   H     H_    0.631893 0.054077 0.874108 0.118041
H69   H     H_    0.634282 0.950597 0.127701 0.088761
H70   H     H_    0.629576 0.940384 0.881916 0.091788
H71   H     H_    0.761310 0.874298 0.319865 0.138446
H72   H     H_    0.238816 0.651592 0.713247 0.090524
N1    N     N_3   0.001260 0.500000 0.143650 -0.235130
N2    N     N_3   0.001260 0.500000 0.856350 -0.222132
N3    N     N_3   0.501260 1.000000 0.143650 -0.223107
N4    N     N_3   0.501260 1.000000 0.856350 -0.237053
O1    O     O_R   0.091250 0.408820 0.620260 -0.491874
O2    O     O_R   0.908940 0.408800 0.379740 -0.473783
O3    O     O_R   0.908940 0.591200 0.620260 -0.468124
O4    O     O_R   0.908940 0.591200 0.379740 -0.480479
O5    O     O_R   0.408940 0.908800 0.620260 -0.460116
O6    O     O_R   0.408940 0.908800 0.379740 -0.475085
O7    O     O_R   0.408940 0.091200 0.620260 -0.455623
O8    O     O_R   0.408940 0.091200 0.379740 -0.499109
O9    O     O_3   0.883106 0.226294 0.692250 -0.605818
O10   O     O_3   0.920602 0.198278 0.420323 -0.649823
O11   O     O_3   0.918440 0.795696 0.603766 -0.638098
O12   O     O_R   0.091250 0.408820 0.379740 -0.514026
O13   O     O_3   0.892663 0.782387 0.325898 -0.609315
O14   O     O_3   0.420377 0.701722 0.587344 -0.634911
O15   O     O_3   0.386920 0.723968 0.313464 -0.605798
O16   O     O_3   0.387768 0.277205 0.683925 -0.602987
O17   O     O_3   0.420452 0.297264 0.408172 -0.648832
O18   O     O_3   0.695943 0.416165 0.547699 -0.633133
O19   O     O_3   0.729518 0.384760 0.317250 -0.718398
O20   O     O_3   0.718375 0.595205 0.643809 -0.637020
O21   O     O_3   0.695484 0.598806 0.404923 -0.665470
O22   O     O_3   0.223129 0.899050 0.661729 -0.651738
O23   O     O_R   0.091250 0.591180 0.620260 -0.476725
O24   O     O_3   0.196103 0.906930 0.424289 -0.693381
O25   O     O_3   0.196717 0.084722 0.557993 -0.642581
O26   O     O_3   0.223698 0.113563 0.323509 -0.701861
O27   O     O_3   0.990105 0.657136 0.140695 -0.653812
O28   O     O_3   0.989170 0.655689 0.858415 -0.671681
O29   O     O_3   0.981996 0.342366 0.145114 -0.680590
O30   O     O_3   0.991375 0.342312 0.860000 -0.631897
O31   O     O_3   0.489850 0.155749 0.142220 -0.672370
O32   O     O_3   0.491688 0.157175 0.859944 -0.652668
O33   O     O_3   0.490405 0.842346 0.139577 -0.634838
O34   O     O_R   0.091250 0.591180 0.379740 -0.485102
O35   O     O_3   0.480864 0.842460 0.854314 -0.664118
O36   O     O_R   0.591250 0.908820 0.620260 -0.503031
O37   O     O_R   0.591250 0.908820 0.379740 -0.493572
O38   O     O_R   0.591250 0.091180 0.620260 -0.487172
O39   O     O_R   0.591250 0.091180 0.379740 -0.478826
O40   O     O_R   0.908940 0.408800 0.620260 -0.462047

loop_
_geom_bond_atom_site_label_1
_geom_bond_atom_site_label_2
_ccdc_geom_bond_type
C45   H62   S    
H33   O16   S    
Cu2   O12   S    
C40   N1    S    
C22   O18   S    
C45   N1    S    
H31   O14   S    
Cu4   O37   S    
C52   O2    A    
C40   O27   S    
C8    O13   S    
C50   H66   S    
C14   C31   S    
Cu3   Cu4   S    
H29   O11   S    
C7    O11   S    
C42   O29   S    
C14   H72   S    
C6    H19   S    
C26   C37   S    
C49   H63   S    
Cu1   Cu2   S    
C11   H25   S    
C44   N3    S    
C39   H51   S    
C6    C19   S    
Cu3   N4    S    
C3    O6    A    
C10   C15   S    
C12   O34   A    
C41   N2    S    
C47   O33   S    
C11   O16   S    
C19   H6    S    
H38   O20   S    
Cu2   O2    S    
C9    O14   S    
C5    H18   S    
C24   C39   S    
Cu3   O7    S    
C26   O25   S    
C36   H46   S    
H41   O24   S    
H59   O32   S    
C3    C29   S    
C21   H8    S    
C24   O20   S    
Cu1   O40   S    
H57   O30   S    
C5    C27   S    
C20   C35   S    
H40   O22   S    
C47   C48   S    
C11   C30   S    
C20   H67   S    
H55   O29   S    
C44   H14   S    
C3    O5    A    
C44   O31   S    
C45   C49   S    
C6    O10   S    
Cu3   O38   S    
C34   O38   A    
C9    C29   S    
C10   O15   S    
C49   H65   S    
C43   H13   S    
C46   O32   S    
C25   O24   S    
C51   H68   S    
C52   O40   A    
Cu3   O36   S    
Cu2   O34   S    
C1    O1    A    
C44   C46   S    
C8    C21   S    
C25   C29   S    
C39   H52   S    
C13   C30   S    
Cu1   O1    S    
C19   C33   S    
H27   O9    S    
C10   H24   S    
C5    C18   S    
C17   H4    S    
C19   H56   S    
C13   H26   S    
C1    C32   S    
C2    O4    A    
C7    C28   S    
C2    O3    A    
C47   N3    S    
H39   O21   S    
C18   H45   S    
C38   H50   S    
C35   C39   S    
C9    C14   S    
C14   H1    S    
C4    O8    A    
C41   O28   S    
Cu4   O6    S    
C11   C16   S    
C5    O9    S    
C6    C27   S    
C23   O37   A    
H42   O25   S    
H28   O10   S    
Cu2   O4    S    
C50   C51   S    
C36   H44   S    
C50   H69   S    
C32   C37   S    
C15   C31   S    
C46   H15   S    
C41   H10   S    
C45   H64   S    
C40   C41   S    
Cu1   O23   S    
C23   C35   S    
C40   H9    S    
C12   C31   S    
H36   O18   S    
C42   H11   S    
C8    C28   S    
C15   H2    S    
Cu1   O3    S    
H37   O19   S    
C21   H71   S    
C42   C43   S    
C12   O23   A    
H53   O27   S    
H30   O13   S    
H54   O28   S    
C27   C52   S    
H35   O17   S    
Cu2   N1    S    
C22   O19   S    
C25   O22   S    
C51   H70   S    
C48   H17   S    
C43   N2    S    
C17   H34   S    
C24   C28   S    
C37   H48   S    
C37   H47   S    
C51   N4    S    
C18   H5    S    
C26   C30   S    
C7    H20   S    
C21   C35   S    
C16   C32   S    
C49   N2    S    
C33   C38   S    
Cu3   O5    S    
C13   C17   S    
C22   C27   S    
C16   H23   S    
C20   H7    S    
C13   O17   S    
Cu4   O39   S    
C1    O12   A    
C4    O7    A    
C46   N4    S    
C10   C29   S    
H58   O31   S    
C8    H21   S    
C48   O35   S    
H61   O35   S    
Cu4   O8    S    
C15   H12   S    
H32   O15   S    
C33   C34   S    
C26   O26   S    
C42   N1    S    
C9    H22   S    
H60   O33   S    
C18   C33   S    
C47   H16   S    
Cu4   N3    S    
C50   N3    S    
C25   C36   S    
C23   O36   A    
C43   O30   S    
C38   H49   S    
C7    C20   S    
H43   O26   S    
C17   C32   S    
C31   C36   S    
C48   N4    S    
C2    C28   S    
Cu1   N2    S    
C24   O21   S    
C16   H3    S    
C4    C30   S    
C34   O39   A    
C22   C38   S    
