data_mof_unit_48915.cif
_audit_creation_date              2012-12-10T18:44:09-0500
_audit_creation_method            fapswitch 2.2
_symmetry_space_group_name_H-M    P1
_symmetry_Int_Tables_number       1
_space_group_crystal_system       triclinic
_cell_length_a                    18.132113
_cell_length_b                    18.190775
_cell_length_c                    22.109927
_cell_angle_alpha                 114.462458
_cell_angle_beta                  114.1392
_cell_angle_gamma                 89.923411
_cell_volume                      5932.36048175

loop_
_atom_site_label
_atom_site_type_symbol
_atom_type_description
_atom_site_fract_x
_atom_site_fract_y
_atom_site_fract_z
_atom_type_partial_charge
C1    C     C_R   0.349304 0.349685 0.699265 0.807506
C2    C     C_1   0.889438 0.891564 0.778341 -0.133443
C3    C     C_1   0.337512 0.923053 0.446426 0.162223
C4    C     C_R   0.568319 0.121003 0.652718 0.095872
C5    C     C_R   0.637921 0.106322 0.702427 -0.146798
C6    C     C_R   0.676917 0.162202 0.778002 -0.133761
C7    C     C_R   0.647139 0.233546 0.804803 -0.104568
C8    C     C_R   0.578597 0.249253 0.755971 -0.138928
C9    C     C_R   0.539510 0.193527 0.680270 -0.169825
C10   C     C_R   0.431710 0.879012 0.347293 0.095895
C11   C     C_R   0.362159 0.893718 0.297568 -0.146829
C12   C     C_R   0.323191 0.837846 0.221992 -0.133757
C13   C     C_3   0.081756 0.008959 0.026264 -0.044744
C14   C     C_R   0.352942 0.766478 0.195207 -0.104562
C15   C     C_R   0.421427 0.750741 0.244056 -0.138952
C16   C     C_R   0.460490 0.806463 0.319757 -0.169712
C17   C     C_R   0.485969 0.918211 0.581806 0.127181
C18   C     C_R   0.487181 0.958792 0.651987 -0.148818
C19   C     C_R   0.481535 0.913942 0.688820 -0.139565
C20   C     C_R   0.474198 0.828418 0.655808 -0.105004
C21   C     C_R   0.469605 0.787470 0.584855 -0.101306
C22   C     C_R   0.472543 0.831789 0.547095 -0.076635
C23   C     C_R   0.514060 0.081794 0.418202 0.127122
C24   C     C_3   0.918242 0.991036 0.973735 -0.044747
C25   C     C_R   0.512927 0.041209 0.348056 -0.148823
C26   C     C_R   0.518589 0.086048 0.311220 -0.139582
C27   C     C_R   0.525867 0.171564 0.344195 -0.105046
C28   C     C_R   0.530391 0.212519 0.415119 -0.101324
C29   C     C_R   0.527439 0.168212 0.452886 -0.076589
C30   C     C_R   0.408939 0.586834 0.577189 0.124740
C31   C     C_R   0.432507 0.589253 0.647242 -0.075472
C32   C     C_R   0.392340 0.628991 0.690172 -0.124820
C33   C     C_R   0.328358 0.667152 0.663969 -0.112695
C34   C     C_R   0.304387 0.665399 0.594725 -0.122309
C35   C     C_3   0.034985 0.032082 0.074082 0.031043
C36   C     C_R   0.344209 0.625376 0.551442 -0.178046
C37   C     C_R   0.591058 0.413166 0.422809 0.124742
C38   C     C_R   0.655791 0.374626 0.448557 -0.178031
C39   C     C_R   0.695618 0.334610 0.405278 -0.122337
C40   C     C_R   0.671643 0.332855 0.336034 -0.112713
C41   C     C_R   0.607656 0.371012 0.309829 -0.124814
C42   C     C_R   0.567489 0.410748 0.352757 -0.075469
C43   C     C_1   0.602110 0.624833 0.642607 0.157724
C44   C     C_1   0.397889 0.375164 0.357392 0.157729
C45   C     C_1   0.958869 0.153826 0.058854 0.175774
C46   C     C_3   0.965013 0.967914 0.925918 0.031043
C47   C     C_1   0.041128 0.846169 0.941146 0.175775
C48   C     C_R   0.064235 0.113506 0.966255 0.121218
C49   C     C_R   0.123353 0.183086 0.027276 -0.136244
C50   C     C_R   0.157763 0.242490 0.016417 -0.126963
C51   C     C_R   0.133213 0.233223 0.944579 -0.101796
C52   C     C_R   0.074189 0.164556 0.883578 -0.127027
C53   C     C_R   0.039821 0.104797 0.894193 -0.135162
C54   C     C_R   0.935762 0.886489 0.033745 0.121215
C55   C     C_R   0.876646 0.816909 0.972723 -0.136246
C56   C     C_R   0.842235 0.757504 0.983583 -0.126961
C57   C     C_1   0.076364 0.073316 0.155055 -0.058413
C58   C     C_R   0.866783 0.766774 0.055421 -0.101799
C59   C     C_R   0.925805 0.835442 0.116423 -0.127022
C60   C     C_R   0.960174 0.895200 0.105807 -0.135154
C61   C     C_1   0.828297 0.982941 0.944750 0.181383
C62   C     C_1   0.171701 0.017054 0.055249 0.181376
C63   C     C_1   0.906921 0.488222 0.571575 0.157171
C64   C     C_1   0.093079 0.511781 0.428430 0.157178
C65   C     C_1   0.106658 0.532455 0.646732 0.153646
C66   C     C_1   0.893342 0.467543 0.353271 0.153646
C67   C     C_R   0.086870 0.666218 0.569293 0.150907
C68   C     C_1   0.923635 0.926681 0.844945 -0.058412
C69   C     C_R   0.129597 0.714986 0.646635 -0.145873
C70   C     C_R   0.164943 0.797940 0.676242 -0.144174
C71   C     C_R   0.157390 0.833091 0.629059 -0.089730
C72   C     C_R   0.114024 0.785474 0.552151 -0.134899
C73   C     C_R   0.078490 0.702641 0.522360 -0.137059
C74   C     C_R   0.913129 0.333783 0.430709 0.150895
C75   C     C_R   0.921503 0.297362 0.477643 -0.137077
C76   C     C_R   0.885967 0.214528 0.447852 -0.134903
C77   C     C_R   0.842610 0.166909 0.370944 -0.089734
C78   C     C_R   0.835066 0.202058 0.323761 -0.144161
C79   C     C_3   0.051138 0.518356 0.570843 -0.054495
C80   C     C_R   0.870412 0.285012 0.353369 -0.145864
C81   C     C_3   0.948862 0.481644 0.429160 -0.054499
C82   C     C_3   0.956349 0.493015 0.534205 -0.056608
C83   C     C_R   0.650695 0.650315 0.300735 0.807507
C84   C     C_3   0.043650 0.506985 0.465798 -0.056611
C85   C     C_3   0.949093 0.551814 0.499003 -0.101194
C86   C     C_3   0.050907 0.448186 0.501000 -0.101194
C87   C     C_R   0.150370 0.150066 0.300747 0.825702
C88   C     C_R   0.849630 0.849933 0.699253 0.825697
C89   C     C_3   0.044129 0.577729 0.535755 -0.033499
C90   C     C_3   0.955871 0.422271 0.464248 -0.033498
C91   C     C_3   0.531818 0.578726 0.024159 -0.044881
C92   C     C_3   0.468173 0.421276 0.975841 -0.044883
C93   C     C_3   0.553738 0.503513 0.972898 -0.044368
C94   C     C_3   0.548680 0.558110 0.567913 -0.046668
C95   C     C_3   0.446252 0.496491 0.027101 -0.044362
C96   C     C_1   0.387163 0.389321 0.778464 -0.128801
C97   C     C_1   0.612832 0.610679 0.221536 -0.128809
C98   C     C_3   0.439152 0.538739 0.977219 -0.046044
C99   C     C_3   0.560838 0.461264 0.022779 -0.046042
C100  C     C_3   0.460828 0.463441 0.926288 0.037444
C101  C     C_3   0.539162 0.536562 0.073712 0.037446
C102  C     C_1   0.419440 0.422572 0.845137 -0.035042
C103  C     C_1   0.580551 0.577430 0.154862 -0.035049
C104  C     C_3   0.076656 0.984586 0.526310 -0.198608
C105  C     C_3   0.451319 0.441889 0.432086 -0.046678
C106  C     C_3   0.923344 0.015414 0.473689 -0.198605
C107  C     C_3   0.999859 0.921481 0.456574 -0.249415
C108  C     C_3   0.000140 0.078519 0.543426 -0.249411
C109  C     C_3   0.948895 0.949182 0.500352 0.005206
C110  C     C_3   0.051105 0.050818 0.499647 0.005206
C111  C     C_R   0.393336 0.110392 0.501363 0.776594
C112  C     C_R   0.606670 0.889614 0.498641 0.776605
C113  C     C_3   0.024446 0.011318 0.568982 0.065138
C114  C     C_3   0.975553 0.988682 0.431017 0.065141
C115  C     C_3   0.527225 0.058199 0.571447 -0.047220
C116  C     C_3   0.028090 0.050786 0.980129 -0.043075
C117  C     C_3   0.472790 0.941815 0.428563 -0.047238
C118  C     C_3   0.577009 0.036967 0.526029 -0.047881
C119  C     C_3   0.423007 0.963046 0.473981 -0.047880
C120  C     C_3   0.547415 0.944224 0.497042 -0.107137
C121  C     C_3   0.452599 0.055790 0.502968 -0.107138
C122  C     C_3   0.497034 0.964771 0.542074 -0.026618
C123  C     C_3   0.502982 0.035242 0.457936 -0.026610
C124  C     C_R   0.108276 0.391393 0.500661 0.818196
C125  C     C_R   0.891724 0.608607 0.499340 0.818193
C126  C     C_R   0.108340 0.108082 0.499764 0.794253
C127  C     C_3   0.971908 0.949209 0.019871 -0.043075
C128  C     C_R   0.891660 0.891918 0.500236 0.794247
C129  C     C_R   0.393673 0.391254 0.501850 0.787330
C130  C     C_R   0.606326 0.608746 0.498149 0.787333
C131  C     C_3   0.453333 0.541568 0.531730 -0.038051
C132  C     C_3   0.546666 0.458431 0.468269 -0.038053
C133  C     C_3   0.451298 0.535055 0.458744 -0.065578
C134  C     C_3   0.548700 0.464944 0.541254 -0.065575
C135  C     C_3   0.546915 0.551663 0.495655 -0.094039
C136  C     C_3   0.453084 0.448337 0.504343 -0.094042
C137  C     C_R   0.391153 0.563767 0.406020 0.095704
C138  C     C_3   0.981068 0.073496 0.028012 -0.042219
C139  C     C_R   0.306875 0.526389 0.367932 -0.141349
C140  C     C_R   0.249891 0.551548 0.318746 -0.139095
C141  C     C_R   0.276282 0.614470 0.307262 -0.110760
C142  C     C_R   0.359696 0.651677 0.344518 -0.135933
C143  C     C_R   0.417168 0.626112 0.393140 -0.185012
C144  C     C_R   0.608840 0.436225 0.593974 0.095714
C145  C     C_R   0.693120 0.473604 0.632071 -0.141352
C146  C     C_R   0.750098 0.448439 0.681255 -0.139118
C147  C     C_R   0.723701 0.385509 0.692727 -0.110776
C148  C     C_R   0.640286 0.348298 0.655459 -0.135920
C149  C     C_3   0.018930 0.926499 0.971988 -0.042218
C150  C     C_R   0.582820 0.373870 0.606840 -0.185010
C151  C     C_R   0.606446 0.509687 0.936314 0.129873
C152  C     C_R   0.672861 0.468944 0.939767 -0.163683
C153  C     C_R   0.718385 0.473493 0.902917 -0.152483
C154  C     C_R   0.698090 0.518595 0.862356 -0.111702
C155  C     C_R   0.632016 0.559039 0.858315 -0.146147
C156  C     C_R   0.586346 0.554593 0.895011 -0.139395
C157  C     C_R   0.393530 0.490318 0.063674 0.129877
C158  C     C_R   0.327090 0.531034 0.060180 -0.163662
C159  C     C_R   0.281535 0.526474 0.096999 -0.152502
C160  C     C_1   0.110562 0.108434 0.221659 -0.133445
C161  C     C_R   0.301826 0.481389 0.137574 -0.111696
C162  C     C_R   0.367927 0.440974 0.141659 -0.146133
C163  C     C_R   0.413627 0.445430 0.104991 -0.139431
C164  C     C_1   0.567460 0.665645 0.052740 0.174114
C165  C     C_1   0.432532 0.334359 0.947264 0.174121
C166  C     C_1   0.625374 0.418969 0.051389 0.144561
C167  C     C_1   0.374633 0.581046 0.948604 0.144542
C168  C     C_1   0.051487 0.022960 0.645163 0.157584
C169  C     C_1   0.948513 0.977040 0.354837 0.157584
C170  C     C_1   0.662504 0.076956 0.553578 0.162198
H1    H     H_    0.998439 0.856616 0.420539 0.137818
H2    H     H_    0.714903 0.521541 0.622829 0.144002
H3    H     H_    0.814767 0.477426 0.710147 0.150616
H4    H     H_    0.767797 0.365584 0.730487 0.132803
H5    H     H_    0.620334 0.299256 0.663994 0.143887
H6    H     H_    0.518805 0.343944 0.579045 0.111516
H7    H     H_    0.689389 0.432820 0.969834 0.140795
H8    H     H_    0.769247 0.441668 0.905542 0.134379
H9    H     H_    0.733447 0.522110 0.833978 0.139538
H10   H     H_    0.615992 0.593616 0.826539 0.136816
H11   H     H_    0.534774 0.585661 0.890741 0.134448
H12   H     H_    0.001560 0.143384 0.579460 0.137819
H13   H     H_    0.310559 0.567143 0.030100 0.140799
H14   H     H_    0.230648 0.558274 0.094337 0.134386
H15   H     H_    0.266442 0.477863 0.165926 0.139510
H16   H     H_    0.383947 0.406409 0.173445 0.136823
H17   H     H_    0.465215 0.414381 0.109289 0.134447
H18   H     H_    0.661529 0.051043 0.682623 0.144454
H19   H     H_    0.730189 0.150090 0.815801 0.142564
H20   H     H_    0.677410 0.276837 0.863305 0.133304
H21   H     H_    0.556225 0.305149 0.776627 0.147163
H22   H     H_    0.488824 0.209263 0.644009 0.137198
H23   H     H_    0.140150 0.973024 0.548420 0.153095
H24   H     H_    0.338571 0.949015 0.317360 0.144488
H25   H     H_    0.269964 0.849981 0.184179 0.142592
H26   H     H_    0.322692 0.723191 0.136704 0.133328
H27   H     H_    0.443774 0.694824 0.223412 0.147150
H28   H     H_    0.511131 0.790706 0.356031 0.137091
H29   H     H_    0.491597 0.024604 0.678344 0.158673
H30   H     H_    0.483412 0.945605 0.743197 0.146720
H31   H     H_    0.471518 0.793902 0.684926 0.150679
H32   H     H_    0.464722 0.721541 0.559157 0.143331
H33   H     H_    0.467515 0.799021 0.491673 0.112304
H34   H     H_    0.859849 0.026977 0.451579 0.153093
H35   H     H_    0.508558 0.975403 0.321729 0.158681
H36   H     H_    0.516769 0.054382 0.256867 0.146717
H37   H     H_    0.528557 0.206070 0.315073 0.150689
H38   H     H_    0.535235 0.278443 0.440792 0.143350
H39   H     H_    0.532423 0.200985 0.508290 0.112328
H40   H     H_    0.481475 0.559258 0.668272 0.122093
H41   H     H_    0.410845 0.630112 0.743763 0.133995
H42   H     H_    0.297767 0.698349 0.697570 0.139612
H43   H     H_    0.255326 0.695628 0.574680 0.159761
H44   H     H_    0.324900 0.626565 0.499035 0.155676
H45   H     H_    0.285097 0.478459 0.377185 0.143999
H46   H     H_    0.675099 0.373433 0.500961 0.155687
H47   H     H_    0.744684 0.304388 0.425326 0.159770
H48   H     H_    0.702234 0.301661 0.302436 0.139622
H49   H     H_    0.589149 0.369891 0.256239 0.133995
H50   H     H_    0.518519 0.440741 0.331727 0.122090
H51   H     H_    0.142791 0.191315 0.083365 0.139556
H52   H     H_    0.203347 0.295766 0.063715 0.139801
H53   H     H_    0.159768 0.279320 0.936206 0.140995
H54   H     H_    0.054876 0.157740 0.827981 0.149579
H55   H     H_    0.994216 0.052645 0.846064 0.140860
H56   H     H_    0.185222 0.522564 0.289863 0.150617
H57   H     H_    0.857210 0.808678 0.916635 0.139556
H58   H     H_    0.796652 0.704227 0.936284 0.139807
H59   H     H_    0.840227 0.720677 0.063794 0.140992
H60   H     H_    0.945116 0.842259 0.172019 0.149582
H61   H     H_    0.005777 0.947353 0.153936 0.140863
H62   H     H_    0.134888 0.690010 0.684446 0.142841
H63   H     H_    0.197891 0.835110 0.735884 0.144241
H64   H     H_    0.184661 0.897307 0.652075 0.136346
H65   H     H_    0.107643 0.812768 0.515575 0.131236
H66   H     H_    0.043674 0.667131 0.462646 0.121837
H67   H     H_    0.232180 0.634391 0.269501 0.132799
H68   H     H_    0.956313 0.332873 0.537358 0.121845
H69   H     H_    0.892342 0.187235 0.484427 0.131241
H70   H     H_    0.815339 0.102691 0.347928 0.136340
H71   H     H_    0.802127 0.164885 0.264119 0.144239
H72   H     H_    0.865130 0.309988 0.315559 0.142840
H73   H     H_    0.379642 0.700713 0.335972 0.143877
H74   H     H_    0.481181 0.656037 0.420928 0.111513
N1    N     N_1   0.595565 0.734086 0.075235 -0.194800
N2    N     N_1   0.356015 0.322764 0.298771 -0.205614
N3    N     N_1   0.941448 0.217089 0.083151 -0.196494
N4    N     N_1   0.058549 0.782906 0.916848 -0.196495
N5    N     N_1   0.757478 0.976504 0.921875 -0.193625
N6    N     N_1   0.242520 0.023491 0.078125 -0.193620
N7    N     N_1   0.867898 0.484378 0.600875 -0.234827
N8    N     N_1   0.132104 0.515627 0.399132 -0.234836
N9    N     N_1   0.150451 0.543378 0.706445 -0.192660
N10   N     N_1   0.849551 0.456620 0.293558 -0.192660
N11   N     N_1   0.404425 0.265918 0.924773 -0.194797
N12   N     N_1   0.676132 0.385633 0.074069 -0.193151
N13   N     N_1   0.323895 0.614396 0.925920 -0.193151
N14   N     N_1   0.072839 0.031873 0.705169 -0.215703
N15   N     N_1   0.927161 0.968126 0.294830 -0.215708
N16   N     N_1   0.729676 0.108426 0.575213 -0.218716
N17   N     N_1   0.270340 0.891580 0.424788 -0.218712
N18   N     N_1   0.643984 0.677233 0.701229 -0.205626
O1    O     O_3   0.250010 0.250010 0.500010 -0.491525
O2    O     O_R   0.893710 0.832180 0.664370 -0.629825
O3    O     O_R   0.332200 0.393690 0.664400 -0.637283
O4    O     O_R   0.667800 0.606310 0.335600 -0.637289
O5    O     O_R   0.229300 0.167820 0.335610 -0.626881
O6    O     O_R   0.770700 0.832180 0.664390 -0.626881
O7    O     O_R   0.358130 0.123520 0.543120 -0.639516
O8    O     O_R   0.641870 0.876480 0.456880 -0.639503
O9    O     O_R   0.080390 0.314990 0.456920 -0.634222
O10   O     O_R   0.919610 0.685010 0.543080 -0.634222
O11   O     O_R   0.185040 0.123520 0.543150 -0.637550
O12   O     O_3   0.749990 0.749990 0.499990 -0.491530
O13   O     O_R   0.814960 0.876480 0.456850 -0.637555
O14   O     O_R   0.358080 0.419590 0.543080 -0.636638
O15   O     O_R   0.641920 0.580410 0.456920 -0.636641
O16   O     O_R   0.080420 0.141920 0.456950 -0.634448
O17   O     O_R   0.919580 0.858080 0.543050 -0.634450
O18   O     O_R   0.376490 0.315000 0.456880 -0.643589
O19   O     O_R   0.623510 0.685000 0.543120 -0.643569
O20   O     O_R   0.376520 0.141930 0.456900 -0.648986
O21   O     O_R   0.623480 0.858070 0.543100 -0.648969
O22   O     O_R   0.184990 0.419580 0.543110 -0.627011
O23   O     O_R   0.815010 0.580420 0.456890 -0.627008
O24   O     O_R   0.332220 0.270690 0.664420 -0.639339
O25   O     O_R   0.667780 0.729310 0.335580 -0.639317
O26   O     O_R   0.106290 0.167820 0.335630 -0.629826
Zn1   Zn    Zn3+2 0.307090 0.219220 0.438420 0.970674
Zn2   Zn    Zn3+2 0.692910 0.780780 0.561580 0.970689
Zn3   Zn    Zn3+2 0.280820 0.192930 0.561610 0.966904
Zn4   Zn    Zn3+2 0.719180 0.807070 0.438390 0.966912
Zn5   Zn    Zn3+2 0.131340 0.219220 0.438450 0.994155
Zn6   Zn    Zn3+2 0.868660 0.780780 0.561550 0.994150
Zn7   Zn    Zn3+2 0.280790 0.368660 0.561580 0.979139
Zn8   Zn    Zn3+2 0.719210 0.631340 0.438420 0.979138

loop_
_geom_bond_atom_site_label_1
_geom_bond_atom_site_label_2
_ccdc_geom_bond_type
C124  O9    A    
C133  C137  S    
C157  C158  A    
C96   C102  T    
C19   C20   A    
C145  C146  A    
C107  H1    S    
C126  O16   A    
C19   H30   S    
C24   C61   S    
C22   H33   S    
C84   C86   S    
C20   H31   S    
C42   H50   S    
C117  C119  S    
C5    C6    A    
C15   H27   S    
C30   C131  S    
C71   H64   S    
C37   C42   A    
C64   C84   S    
C53   H55   S    
C51   H53   S    
C3    N17   T    
C65   N9    T    
C24   C127  S    
C104  H23   S    
C159  C161  A    
C128  O17   A    
C72   C73   A    
C119  C121  S    
C59   C60   A    
C101  C103  S    
C21   C22   A    
C26   H36   S    
C1    O24   A    
C125  O23   A    
C56   H58   S    
C51   C52   A    
C140  C141  A    
C86   C90   S    
C69   H62   S    
C112  C120  S    
C88   O6    A    
O22   Zn7   S    
C108  C113  S    
C75   C76   A    
C37   C38   A    
C115  C118  S    
C35   C127  S    
C93   C100  S    
C154  C155  A    
C97   C103  T    
C81   C90   S    
O24   Zn3   S    
C99   C101  S    
C52   H54   S    
C158  C159  A    
C28   H38   S    
C111  O20   A    
C91   C164  S    
C16   H28   S    
C155  H10   S    
C105  C133  S    
C146  C147  A    
C50   H52   S    
O1    Zn3   S    
C94   C131  S    
C144  C145  A    
C34   H43   S    
C43   N18   T    
C139  C140  A    
C6    C7    A    
C82   C85   S    
C140  H56   S    
O18   Zn1   S    
C30   C36   A    
C24   C46   S    
C74   C90   S    
C10   C16   A    
C104  C110  S    
C91   C98   S    
C69   C70   A    
C118  C120  S    
C121  C123  S    
C17   C122  S    
C62   N6    T    
C20   C21   A    
C132  C134  S    
C155  C156  A    
C133  C135  S    
C75   H68   S    
O11   Zn3   S    
C5    H18   S    
O12   Zn4   S    
C104  C107  S    
C115  C121  S    
C60   H61   S    
C4    C115  S    
C147  C148  A    
C113  C168  S    
C147  H4    S    
C7    C8    A    
C44   C105  S    
O15   Zn8   S    
C76   H69   S    
C23   C29   A    
C148  C150  A    
C13   C35   S    
C2    C68   T    
O13   Zn4   S    
C38   C39   A    
C78   C80   A    
C43   C94   S    
C55   H57   S    
C73   H66   S    
C144  C150  A    
C36   H44   S    
C64   N8    T    
C77   H70   S    
C7    H20   S    
C158  H13   S    
C110  C114  S    
C48   C116  S    
C145  H2    S    
O1    Zn1   S    
C91   C101  S    
C94   C135  S    
C124  O22   A    
O21   Zn2   S    
C48   C53   A    
C78   H71   S    
C63   C82   S    
C131  C136  S    
C39   C40   A    
C32   H41   S    
C23   C123  S    
C25   C26   A    
C70   H63   S    
C128  O13   A    
C46   C68   S    
C31   C32   A    
C17   C18   A    
C164  N1    T    
O12   Zn2   S    
C3    C119  S    
C110  C126  S    
C86   C124  S    
C83   O25   A    
C52   C53   A    
C88   O2    A    
C54   C55   A    
C49   H51   S    
C95   C157  S    
C39   H47   S    
C129  O14   A    
C79   C82   S    
C29   H39   S    
C167  N13   T    
C130  O15   A    
C71   C72   A    
C10   C117  S    
C127  C149  S    
C106  C108  S    
C6    H19   S    
C45   C138  S    
C108  C110  S    
C34   C36   A    
C79   C89   S    
C10   C11   A    
C134  C144  S    
C104  C113  S    
C4    C5    A    
C46   C149  S    
C152  C153  A    
C61   N5    T    
C49   C50   A    
O1    Zn7   S    
O25   Zn4   S    
C4    C9    A    
C154  H9    S    
C81   C85   S    
C95   C101  S    
C92   C99   S    
O10   Zn6   S    
C106  C109  S    
C114  C169  S    
C63   N7    T    
C55   C56   A    
C41   C42   A    
C130  C135  S    
C161  C162  A    
C77   C78   A    
C137  C139  A    
C26   C27   A    
C65   C79   S    
C28   C29   A    
O7    Zn3   S    
C130  O19   A    
O8    Zn4   S    
C30   C31   A    
C33   H42   S    
O3    Zn7   S    
C129  O18   A    
O4    Zn8   S    
C18   C19   A    
C152  H7    S    
O12   Zn8   S    
O9    Zn5   S    
C161  H15   S    
C92   C165  S    
C13   C62   S    
C66   N10   T    
C139  H45   S    
C151  C152  A    
C70   C71   A    
C67   C73   A    
C159  H14   S    
C93   C99   S    
C44   N2    T    
O19   Zn2   S    
C74   C80   A    
C107  C109  S    
O2    Zn6   S    
C25   H35   S    
C47   N4    T    
C41   H49   S    
C105  C132  S    
C125  O10   A    
C87   O26   A    
C117  C120  S    
C112  O8    A    
C85   C89   S    
C58   C59   A    
C165  N11   T    
C107  C114  S    
C91   C93   S    
C109  C128  S    
C156  H11   S    
C50   C51   A    
O1    Zn5   S    
C151  C156  A    
C48   C49   A    
C57   C160  T    
C98   C100  S    
C12   H25   S    
C93   C151  S    
C111  O7    A    
C162  C163  A    
C21   H32   S    
C83   O4    A    
C17   C22   A    
C82   C90   S    
C72   H65   S    
C46   C116  S    
C35   C57   S    
C32   C33   A    
O12   Zn6   S    
C66   C81   S    
C31   H40   S    
O23   Zn8   S    
C80   H72   S    
C118  C123  S    
C13   C116  S    
C106  H34   S    
C83   C97   S    
C142  C143  A    
C79   C86   S    
C15   C16   A    
C150  H6    S    
C111  C121  S    
C85   C125  S    
C11   H24   S    
C45   N3    T    
C95   C98   S    
C54   C60   A    
C106  C114  S    
C132  C135  S    
C35   C138  S    
C118  C170  S    
C8    H21   S    
C142  H73   S    
C146  H3    S    
C67   C89   S    
C87   C160  S    
C163  H17   S    
C47   C149  S    
C56   C58   A    
C8    C9    A    
C166  N12   T    
C2    C88   S    
C9    H22   S    
C157  C163  A    
C98   C167  S    
C109  C113  S    
C99   C166  S    
C137  C143  A    
C115  C122  S    
C168  N14   T    
C120  C122  S    
C116  C138  S    
C148  H5    S    
C74   C75   A    
O5    Zn1   S    
C76   C77   A    
C162  H16   S    
O14   Zn7   S    
C134  C136  S    
C24   C138  S    
O26   Zn5   S    
O16   Zn5   S    
C92   C95   S    
C67   C69   A    
C112  O21   A    
C129  C136  S    
O20   Zn1   S    
C100  C102  S    
C33   C34   A    
C105  C136  S    
C40   C41   A    
C126  O11   A    
C12   C14   A    
C84   C89   S    
O6    Zn2   S    
C18   H29   S    
C81   C84   S    
C92   C100  S    
C119  C122  S    
C14   H26   S    
C153  H8    S    
C141  H67   S    
C40   H48   S    
C14   C15   A    
C38   H46   S    
C131  C133  S    
C11   C12   A    
O17   Zn6   S    
C54   C127  S    
C37   C132  S    
C108  H12   S    
C117  C123  S    
C13   C149  S    
C58   H59   S    
C141  C142  A    
C1    C96   S    
C94   C134  S    
C27   H37   S    
C23   C25   A    
C1    O3    A    
C87   O5    A    
C27   C28   A    
C169  N15   T    
C143  H74   S    
C170  N16   T    
C153  C154  A    
C59   H60   S    
