data_mof_unit_6798.cif
_audit_creation_date              2013-03-05T16:12:18-0500
_audit_creation_method            fapswitch 2.2
_symmetry_space_group_name_H-M    P1
_symmetry_Int_Tables_number       1
_space_group_crystal_system       triclinic
_cell_length_a                    8.38241
_cell_length_b                    16.674866
_cell_length_c                    27.037615
_cell_angle_alpha                 72.446754
_cell_angle_beta                  95.986194
_cell_angle_gamma                 96.38359
_cell_volume                      3570.88857572

loop_
_atom_site_label
_atom_site_type_symbol
_atom_site_description
_atom_site_fract_x
_atom_site_fract_y
_atom_site_fract_z
_atom_type_partial_charge
P1    P     P_3+3 0.610630 0.953360 0.619150 0.479757
O1    O     O_2   0.431310 0.922990 0.623550 -0.358857
O2    O     O_3   0.663280 0.983100 0.563360 -0.415500
O3    O     O_3   0.126250 0.812630 0.574830 -0.385903
O4    O     O_2   0.299836 0.770517 0.664666 -0.395682
O5    O     O_3   0.635052 0.036326 0.647038 -0.551902
O6    O     O_3   0.062052 0.660495 0.656221 -0.519400
H1    H     H_    0.169924 0.651861 0.592319 0.171679
C1    C     C_3   0.007981 0.542100 0.622429 -0.928505
H2    H     H_    0.104505 0.505947 0.648387 0.269972
H3    H     H_    0.892736 0.524311 0.642020 0.246948
P2    P     P_3+3 0.057260 0.861390 0.437850 0.419551
P3    P     P_3+3 0.510248 0.698535 0.535047 0.438842
O7    O     O_2   0.229950 0.835370 0.450810 -0.369391
O8    O     O_3   0.517580 0.797570 0.545130 -0.373194
O9    O     O_2   0.363665 0.694086 0.495850 -0.395296
O10   O     O_3   0.049032 0.886879 0.369419 -0.570439
O11   O     O_3   0.461316 0.621885 0.592888 -0.531991
C2    C     C_3   0.582100 0.628043 0.632376 0.334071
H4    H     H_    0.570625 0.684926 0.644899 0.119256
H5    H     H_    0.704494 0.632405 0.618858 0.024210
C3    C     C_3   0.566378 0.547961 0.678668 -0.477457
H6    H     H_    0.557484 0.492050 0.663664 0.191400
C4    C     C_3   0.586918 0.887887 0.389539 0.291969
H7    H     H_    0.713781 0.887567 0.405593 0.058464
H8    H     H_    0.506536 0.875987 0.421521 0.147423
C5    C     C_3   0.548788 0.817207 0.363698 -0.496779
H9    H     H_    0.650777 0.814790 0.341148 0.206349
H10   H     H_    0.536302 0.756981 0.394842 0.187101
Ba1   Ba    Ba6+2 0.337820 0.939830 0.518500 1.520767
C6    C     C_3   0.594401 0.111380 0.610072 0.406595
H11   H     H_    0.465640 0.105485 0.596583 0.087702
H12   H     H_    0.669765 0.127650 0.576452 0.135680
C7    C     C_3   0.624571 0.181503 0.636006 -0.888227
H13   H     H_    0.545560 0.168490 0.668533 0.261298
H14   H     H_    0.599372 0.242946 0.607826 0.219856
H15   H     H_    0.752432 0.185653 0.651410 0.284048
C8    C     C_3   0.015894 0.970018 0.344047 0.309078
H16   H     H_    0.130838 0.010131 0.337438 0.050126
H17   H     H_    0.936669 0.992138 0.365843 0.154974
C9    C     C_3   0.930988 0.975116 0.290825 -0.883332
H18   H     H_    0.007003 0.951708 0.267696 0.249664
H19   H     H_    0.908843 0.041795 0.269837 0.232846
H20   H     H_    0.813734 0.936519 0.294956 0.262147
P4    P     P_3+3 0.579040 0.046590 0.380840 0.459150
O12   O     O_2   0.758370 0.077020 0.376420 -0.368117
O13   O     O_3   0.526390 0.016840 0.436620 -0.427747
O14   O     O_3   0.063420 0.187310 0.425160 -0.384646
O15   O     O_3   0.564054 0.965131 0.352070 -0.567948
P5    P     P_3+3 0.691837 0.299806 0.469169 0.450678
O16   O     O_3   0.173250 0.067890 0.537260 -0.447303
O17   O     O_3   0.672100 0.202370 0.454860 -0.415248
O18   O     O_2   0.843013 0.299024 0.506999 -0.322999
O19   O     O_3   0.746241 0.380982 0.413215 -0.542367
Ba2   Ba    Ba6+2 0.851970 0.060110 0.481480 1.520633
P6    P     P_3+3 0.122525 0.768787 0.642187 0.477084
C10   C     C_3   0.052811 0.636824 0.610284 0.401540
H21   H     H_    0.958603 0.670115 0.582251 0.062328
H22   H     H_    0.993220 0.524104 0.585586 0.247235
O20   O     O_3   0.016420 0.932050 0.462720 -0.454573
C11   C     C_3   0.062435 0.028712 0.647971 0.445922
H23   H     H_    0.942940 0.030228 0.625931 0.103827
H24   H     H_    0.131097 0.980237 0.641240 0.077151
C12   C     C_3   0.035271 0.006457 0.705522 -0.935835
H25   H     H_    0.977463 0.058016 0.713057 0.283451
H26   H     H_    0.954949 0.947685 0.717590 0.217744
H27   H     H_    0.152075 0.997547 0.729152 0.258237
P7    P     P_3+3 0.142069 0.147188 0.565910 0.493342
O21   O     O_2   0.959730 0.164640 0.549160 -0.327454
O22   O     O_3   0.151955 0.106974 0.633698 -0.525900
H28   H     H_    0.677797 0.544362 0.705467 0.217830
C13   C     C_3   0.664026 0.363936 0.368710 0.185170
H29   H     H_    0.699572 0.303888 0.364607 0.147833
H30   H     H_    0.531858 0.358493 0.371535 0.030508
C14   C     C_3   0.707152 0.434966 0.319341 0.550037
H31   H     H_    0.833333 0.435547 0.311225 0.125492
P8    P     P_3+3 0.060604 0.236754 0.355794 0.449286
C15   C     C_3   0.172321 0.390997 0.354794 0.584768
H32   H     H_    0.266575 0.351141 0.378808 0.046510
O23   O     O_2   0.896079 0.207929 0.333139 -0.373374
O24   O     O_3   0.034959 0.343837 0.341328 -0.524748
H33   H     H_    0.352236 0.484157 0.313820 0.268411
C16   C     C_3   0.242716 0.445973 0.304786 -0.850649
H34   H     H_    0.153621 0.489096 0.280278 0.259801
H35   H     H_    0.274721 0.404383 0.282906 0.312569
C17   C     C_R   0.523560 0.258388 0.166008 0.526991
O25   O     O_2   0.564254 0.186445 0.182684 -0.603349
N1    N     N_R   0.429593 0.288332 0.195100 -0.157107
C18   C     C_R   0.375675 0.368774 0.172918 0.642371
C19   C     C_2   0.247035 0.242102 0.266715 -0.258602
C20   C     C_3   0.216975 0.199181 0.322660 0.133141
C21   C     C_1   0.480731 0.143065 0.337383 0.267317
C22   C     C_2   0.512811 0.183404 0.287594 -0.208790
C23   C     C_2   0.391291 0.237893 0.248714 0.183900
C24   C     C_R   0.522190 0.392497 0.095719 -0.072929
C25   C     C_R   0.570761 0.309921 0.116279 -0.039020
C26   C     C_R   0.666240 0.280765 0.086668 -0.085179
C27   C     C_R   0.425065 0.421778 0.124572 -0.098691
C28   C     C_2   0.369244 0.173377 0.356410 -0.172207
H36   H     H_    0.632220 0.182190 0.275980 0.204094
H37   H     H_    0.705809 0.217589 0.100975 0.163943
C29   C     C_2   0.845018 0.847450 0.637476 -0.466266
C30   C     C_R   0.712448 0.469090 0.966893 0.036355
C31   C     C_R   0.543192 0.576094 0.973758 0.050655
C32   C     C_R   0.647175 0.548495 0.945220 0.097724
C33   C     C_R   0.819511 0.445970 0.937309 -0.208176
C34   C     C_R   0.856590 0.497779 0.887917 -0.086919
C35   C     C_R   0.789111 0.575253 0.865564 -0.063636
C36   C     C_R   0.683766 0.600461 0.894162 -0.070016
C37   C     C_R   0.613235 0.677279 0.871548 -0.049401
C38   C     C_R   0.658417 0.730947 0.822637 0.523000
N2    N     N_R   0.761590 0.705903 0.794057 -0.162875
C39   C     C_R   0.823001 0.627229 0.814901 0.502952
C40   C     C_2   0.954392 0.769555 0.726808 -0.145762
C41   C     C_3   0.995523 0.823177 0.672558 0.161963
C42   C     C_1   0.717739 0.860872 0.657607 0.299332
C43   C     C_2   0.677801 0.810840 0.703945 -0.239600
C44   C     C_2   0.802192 0.760982 0.742190 0.106122
O26   O     O_2   0.904336 0.601156 0.789001 -0.588544
C45   C     C_R   0.665945 0.415352 0.016563 0.060776
C46   C     C_R   0.568805 0.445708 0.046054 0.068839
C47   C     C_R   0.519613 0.529359 0.026691 -0.048343
C48   C     C_R   0.712451 0.331919 0.038064 -0.207195
H38   H     H_    0.051408 0.740549 0.753753 0.167121
H39   H     H_    0.939243 0.476598 0.867157 0.166924
H40   H     H_    0.878590 0.388287 0.951522 0.128363
H41   H     H_    0.783133 0.303486 0.017835 0.126712
O27   O     O_2   0.287575 0.396393 0.195874 -0.593700
C49   C     C_R   0.387820 0.506212 0.106705 -0.079426
H42   H     H_    0.147786 0.271165 0.241091 0.193185
H43   H     H_    0.320806 0.530856 0.130277 0.183836
C50   C     C_R   0.456853 0.646543 0.946901 -0.244474
C51   C     C_R   0.495491 0.697951 0.897824 -0.077073
O28   O     O_2   0.607515 0.800724 0.806088 -0.592296
C52   C     C_R   0.449935 0.562365 0.061754 0.169954
H44   H     H_    0.356923 0.662453 0.963355 0.136939
H45   H     H_    0.430419 0.753493 0.880111 0.164271
H46   H     H_    0.554355 0.804742 0.713772 0.202339
H47   H     H_    0.844102 0.857124 0.595858 0.174444
C53   C     C_2   0.403669 0.251549 0.513491 -0.587841
C54   C     C_R   0.801051 0.760964 0.491630 -0.524196
C55   C     C_2   0.257690 0.311521 0.566094 0.352074
C56   C     C_2   0.272089 0.247249 0.546648 0.186461
C57   C     C_2   0.519696 0.315447 0.503109 0.195992
C58   C     C_3   0.524837 0.385196 0.529986 -0.127277
C59   C     C_3   0.366014 0.391927 0.551568 -0.008180
C60   C     C_2   0.593772 0.473163 0.501088 0.200792
C61   C     C_2   0.658671 0.526008 0.528990 -0.120389
C62   C     C_R   0.884791 0.610703 0.480506 0.019036
C63   C     C_R   0.745853 0.609536 0.505598 -0.055943
C64   C     C_R   0.978232 0.685893 0.460068 -0.240303
C65   C     C_R   0.938485 0.761179 0.466515 0.358270
C66   C     C_R   0.700325 0.686801 0.509551 0.173683
H48   H     H_    0.081898 0.685009 0.439588 0.177819
H49   H     H_    0.413794 0.196213 0.501717 0.168169
H50   H     H_    0.769718 0.819673 0.495771 0.175498
H51   H     H_    0.656827 0.504973 0.571050 0.127427
C67   C     C_3   0.393511 0.829473 0.327332 -0.149704
C68   C     C_3   0.330698 0.750181 0.312075 -0.883336
H52   H     H_    0.428902 0.724321 0.298421 0.287109
H53   H     H_    0.277771 0.702083 0.345771 0.260369
H54   H     H_    0.234089 0.765971 0.280089 0.257134
H55   H     H_    0.298504 0.846847 0.346857 0.243252
H56   H     H_    0.417023 0.881918 0.291271 0.213463
Cl1   Cl    Cl    0.594702 0.418694 0.263573 -0.678584
Cl2   Cl    Cl    0.678533 0.537508 0.323026 -0.688422
C69   C     C_3   0.119157 0.448042 0.384482 -0.384935
C70   C     C_3   0.129659 0.404221 0.442524 -0.773449
H57   H     H_    0.071877 0.338723 0.450918 0.308975
H58   H     H_    0.257980 0.401066 0.455897 0.206867
H59   H     H_    0.072041 0.440377 0.463269 0.271261
H60   H     H_    0.193127 0.509719 0.375784 0.184121
H61   H     H_    0.993629 0.464609 0.372298 0.252836
C71   C     C_3   0.458968 0.656332 0.057082 -0.442292
C72   C     C_3   0.538143 0.676522 0.106240 -0.768261
H62   H     H_    0.459330 0.652566 0.139045 0.262896
H63   H     H_    0.655821 0.648499 0.117731 0.270669
H64   H     H_    0.559513 0.746067 0.098453 0.240180
H65   H     H_    0.534746 0.694270 0.025622 0.218925
H66   H     H_    0.335651 0.678279 0.048928 0.195629
C73   C     C_3   0.346184 0.145509 0.412400 -0.352544
C74   C     C_3   0.223231 0.067965 0.421837 -0.485286
H67   H     H_    0.112364 0.077097 0.396454 0.178253
H68   H     H_    0.264548 0.012182 0.415227 0.211550
H69   H     H_    0.183450 0.054384 0.460008 0.303005
H70   H     H_    0.449591 0.132312 0.439131 0.240312
H71   H     H_    0.321020 0.201293 0.422687 0.153410
Cl3   Cl    Cl    0.105174 0.308349 0.607024 -0.599079
C75   C     C_3   0.567885 0.505140 0.442518 -0.253894
C76   C     C_3   0.453206 0.574678 0.424891 -0.889773
H72   H     H_    0.331881 0.551957 0.439623 0.265770
H73   H     H_    0.499072 0.627832 0.440217 0.273811
H74   H     H_    0.445986 0.598112 0.381380 0.280265
H75   H     H_    0.685936 0.528846 0.426032 0.252314
H76   H     H_    0.515081 0.454251 0.425914 0.197857
C77   C     C_3   0.416277 0.543307 0.708171 -0.184729
C78   C     C_3   0.451429 0.582625 0.752721 -0.829915
H77   H     H_    0.538205 0.546110 0.782619 0.248426
H78   H     H_    0.501264 0.649021 0.737909 0.254850
H79   H     H_    0.338334 0.581535 0.771148 0.264639
H80   H     H_    0.319221 0.576117 0.681363 0.248534
H81   H     H_    0.370856 0.476052 0.724495 0.194893

loop_
_geom_bond_atom_site_label_1
_geom_bond_atom_site_label_2
_geom_bond_distance
_ccdc_geom_bond_type
C11   O22   1.397841 S    
O14   P8    1.805597 S    
O14   Ba2   2.781730 S    
C8    H17   1.091591 S    
Ba1   O16   2.859101 S    
C51   H45   1.083956 S    
C76   H72   1.115466 S    
C5    H10   1.101586 S    
C7    H15   1.111197 S    
C9    H18   1.111349 S    
P2    C65   1.842287 S    
O4    P6    1.546586 D    
C43   H46   1.081360 S    
C4    C5    1.531566 S    
C60   C61   1.360273 D    
C58   C59   1.536307 S    
C73   H71   1.095000 S    
C24   C27   1.400159 A    
C72   H63   1.113069 S    
P4    O12   1.537107 D    
C35   C36   1.405455 A    
C5    C67   1.540691 S    
C15   C69   1.541801 S    
P5    O19   1.760801 S    
P3    O11   1.749045 S    
P1    Ba1   3.412277 S    
C2    H5    1.112222 S    
C4    H8    1.108792 S    
O11   C2    1.411763 S    
P1    O2    1.534613 S    
C62   C64   1.394569 A    
C8    H16   1.108234 S    
C7    H13   1.110673 S    
C17   N1    1.393574 Am   
C31   C47   1.430615 A    
C33   C34   1.399040 A    
C14   Cl1   1.768949 S    
C42   C43   1.331412 D    
P7    C56   1.852799 S    
C78   H78   1.106911 S    
P1    O1    1.536785 D    
C64   H48   1.081698 S    
C11   H24   1.109838 S    
P4    C21   1.897442 S    
C55   C59   1.504136 S    
C71   C72   1.535128 S    
C31   C32   1.417950 A    
C29   C41   1.512464 S    
C76   H74   1.119587 S    
C39   O26   1.222033 D    
O2    Ba2   2.759656 S    
C75   H75   1.110372 S    
P6    C41   1.864523 S    
C70   H59   1.112023 S    
C68   H52   1.112747 S    
P7    O21   1.581438 D    
C63   C66   1.420540 A    
Ba1   O20   2.956755 S    
O12   Ba2   2.804491 S    
P5    O17   1.767153 S    
C64   C65   1.398027 A    
C6    H12   1.109903 S    
P1    C42   1.847064 S    
P4    O15   1.744960 S    
C30   C33   1.416518 A    
C1    H2    1.116009 S    
C1    C10   1.524715 S    
C11   H23   1.109542 S    
C19   C20   1.500040 S    
C45   C48   1.418074 A    
C67   H56   1.114307 S    
C61   H51   1.085499 S    
C40   H38   1.085060 S    
C24   C46   1.434156 A    
C70   H58   1.100226 S    
O5    C6    1.396646 S    
C49   C52   1.400753 A    
Ba2   O20   2.858514 S    
O3    P6    1.748094 S    
C19   H42   1.083462 S    
C9    H19   1.111787 S    
C3    C77   1.541333 S    
C75   C76   1.521426 S    
O6    P6    1.756402 S    
O7    Ba1   2.903223 S    
C13   C14   1.538533 S    
C15   C16   1.521591 S    
C3    H6    1.116095 S    
N2    C39   1.395462 Am   
C58   C60   1.519990 S    
P5    C57   1.869875 S    
C19   C23   1.366095 D    
C72   H64   1.111573 S    
P4    O13   1.534365 S    
C47   C52   1.429848 A    
N1    C23   1.487754 S    
C68   H54   1.112223 S    
P5    O18   1.541903 D    
P1    O5    1.748829 S    
C52   C71   1.527436 S    
Ba1   O13   2.759048 S    
C2    C3    1.534354 S    
C4    H7    1.105835 S    
C34   H39   1.083940 S    
C8    C9    1.520040 S    
C13   H30   1.110220 S    
C69   C70   1.515988 S    
C15   H32   1.112183 S    
C77   C78   1.525416 S    
O16   Ba2   2.955896 S    
C73   C74   1.535824 S    
O3    Ba1   2.782446 S    
C37   C38   1.417194 A    
C1    H22   1.115356 S    
C74   H69   1.068458 S    
C12   H26   1.107446 S    
C35   C39   1.420756 A    
P2    O10   1.764721 S    
O2    Ba1   2.972282 S    
C14   H31   1.100827 S    
C12   H27   1.110635 S    
C54   H50   1.081355 S    
H1    C10   1.110753 S    
C75   H76   1.105605 S    
C48   H41   1.077705 S    
C16   H34   1.114754 S    
P8    O24   1.741880 S    
C50   H44   1.080869 S    
C25   C26   1.404595 A    
C68   H53   1.111100 S    
C6    C7    1.521413 S    
C30   C32   1.422013 A    
C22   C23   1.540958 S    
Ba2   O21   2.903725 S    
N1    C18   1.398651 Am   
C53   C56   1.474865 S    
C1    H3    1.118047 S    
C22   H36   1.083881 S    
P3    C66   1.852526 S    
C46   C47   1.425551 A    
C40   C44   1.362101 D    
C17   C25   1.428707 A    
C67   H55   1.108197 S    
C54   C65   1.396096 A    
C70   H57   1.111184 S    
C16   H35   1.106742 S    
P2    O7    1.532522 D    
C78   H79   1.111986 S    
P3    O8    1.746624 S    
C67   C68   1.524608 S    
C9    H20   1.109773 S    
C34   C35   1.405128 A    
C77   H81   1.113114 S    
C71   H66   1.113092 S    
C3    H28   1.116234 S    
C5    H9    1.111495 S    
C45   C46   1.423242 A    
O8    Ba1   2.820358 S    
O13   Ba2   2.973135 S    
P8    O23   1.536941 D    
C4    O15   1.396206 S    
C32   C36   1.434704 A    
P8    C20   1.918156 S    
C76   H73   1.103481 S    
C38   N2    1.390627 Am   
P2    Ba1   3.458798 S    
C17   O25   1.221245 D    
C6    H11   1.106147 S    
C53   C57   1.343914 D    
C61   C63   1.487525 S    
C57   C58   1.541034 S    
C73   H70   1.066736 S    
O17   Ba2   2.820925 S    
C38   O28   1.221716 D    
C40   C41   1.521747 S    
C69   H60   1.113650 S    
C55   Cl3   1.762585 S    
Ba1   Ba2   4.622309 S    
C33   H40   1.077659 S    
C69   H61   1.108813 S    
C18   C27   1.412748 A    
O1    Ba1   2.804265 S    
C12   H25   1.111009 S    
C2    H4    1.115513 S    
C26   C48   1.400417 A    
C72   H62   1.110211 S    
C43   C44   1.515582 S    
C11   C12   1.522392 S    
N2    C44   1.476184 S    
C15   O24   1.400231 S    
C54   C66   1.403103 A    
C10   H21   1.106834 S    
C60   C75   1.511259 S    
C13   H29   1.115304 S    
C27   C49   1.403255 A    
C21   C22   1.351309 D    
C30   C45   1.436687 A    
C50   C51   1.393660 A    
C14   Cl2   1.786080 S    
C7    H14   1.103877 S    
O16   P7    1.775870 S    
C78   H77   1.110077 S    
C74   H68   1.096330 S    
C29   H47   1.086857 S    
C28   C73   1.470305 S    
C29   C42   1.316189 D    
C53   H49   1.077127 S    
P2    O20   1.604124 S    
O19   C13   1.411912 S    
O10   C8    1.393521 S    
P4    Ba2   3.412620 S    
P7    O22   1.747880 S    
H33   C16   1.106757 S    
C31   C50   1.412779 A    
P3    O9    1.547233 D    
C36   C37   1.408803 A    
C24   C25   1.409426 A    
C55   C56   1.349615 D    
C37   C51   1.402594 A    
C20   C28   1.513054 S    
C77   H80   1.106055 S    
C62   C63   1.403144 A    
C71   H65   1.107229 S    
O6    C10   1.404739 S    
C26   H37   1.083760 S    
C74   H67   1.092364 S    
C21   C28   1.324996 D    
C49   H43   1.083780 S    
C18   O27   1.219161 D    
