data_mof_unit_33156.cif
_audit_creation_date              2012-12-10T18:43:10-0500
_audit_creation_method            fapswitch 2.2
_symmetry_space_group_name_H-M    P1
_symmetry_Int_Tables_number       1
_space_group_crystal_system       triclinic
_cell_length_a                    10.770288
_cell_length_b                    9.82035
_cell_length_c                    10.748608
_cell_angle_alpha                 90.000118
_cell_angle_beta                  89.755095
_cell_angle_gamma                 89.999351
_cell_volume                      1136.84836134

loop_
_atom_site_label
_atom_site_type_symbol
_atom_type_description
_atom_site_fract_x
_atom_site_fract_y
_atom_site_fract_z
_atom_type_partial_charge
C1    C     C_R   0.259842 0.499438 0.497103 0.916709
C2    C     C_R   0.936512 0.371879 0.508538 0.353705
C3    C     C_R   0.872645 0.497071 0.505451 -0.202587
C4    C     C_R   0.127356 0.497074 0.494539 -0.202599
C5    C     C_R   0.936433 0.620831 0.501391 -0.261548
C6    C     C_R   0.063565 0.620832 0.498631 -0.261531
C7    C     C_R   0.428514 0.072043 0.582973 -0.072708
C8    C     C_R   0.571485 0.072041 0.417026 -0.072653
C9    C     C_R   0.428288 0.928008 0.582758 -0.081595
C10   C     C_R   0.571711 0.928007 0.417241 -0.081633
C11   C     C_3   0.117929 0.206413 0.354050 0.151316
C12   C     C_R   0.740159 0.499437 0.502894 0.916747
C13   C     C_3   0.187731 0.072884 0.338186 -0.811360
C14   C     C_3   0.882148 0.206307 0.645832 0.151301
C15   C     C_3   0.812190 0.072875 0.661691 -0.811352
C16   C     C_R   0.502817 0.499823 0.262465 0.924213
C17   C     C_R   0.497180 0.499823 0.737535 0.924235
C18   C     C_2   0.503589 0.384859 0.933048 -0.170258
C19   C     C_2   0.496375 0.384861 0.066952 -0.170274
C20   C     C_2   0.485447 0.499552 0.869013 -0.330042
C21   C     C_2   0.514540 0.499549 0.130986 -0.330034
C22   C     C_R   0.063493 0.371883 0.491417 0.353620
H1    H     H_    0.522852 0.288481 0.887135 0.168729
H2    H     H_    0.629198 0.873308 0.351330 0.130193
H3    H     H_    0.161194 0.283526 0.291267 0.118427
H4    H     H_    0.019845 0.189369 0.325539 0.156713
H5    H     H_    0.150762 0.995256 0.403765 0.252850
H6    H     H_    0.176695 0.035103 0.241496 0.193682
H7    H     H_    0.287973 0.088700 0.356243 0.262075
H8    H     H_    0.839049 0.283440 0.708713 0.118346
H9    H     H_    0.980242 0.189091 0.674224 0.156837
H10   H     H_    0.848952 0.995252 0.595988 0.252857
H11   H     H_    0.823323 0.034980 0.758331 0.193683
H12   H     H_    0.477096 0.288488 0.112867 0.168731
H13   H     H_    0.711939 0.088876 0.643804 0.262064
H14   H     H_    0.458568 0.595077 0.911870 0.147113
H15   H     H_    0.541433 0.595069 0.088128 0.147114
H16   H     H_    0.888470 0.717843 0.501104 0.189121
H17   H     H_    0.111525 0.717845 0.498946 0.189129
H18   H     H_    0.371155 0.126781 0.648973 0.147213
H19   H     H_    0.628844 0.126778 0.351026 0.147236
H20   H     H_    0.370802 0.873311 0.648670 0.130187
N1    N     N_R   0.500000 0.857200 0.500000 -0.078835
N2    N     N_R   0.500000 0.142810 0.500000 -0.090631
O1    O     O_R   0.316770 0.614620 0.499990 -0.634386
O2    O     O_3   0.875411 0.248352 0.520300 -0.590783
O3    O     O_R   0.683230 0.614620 0.500010 -0.634398
O4    O     O_R   0.316800 0.385290 0.500000 -0.569189
O5    O     O_R   0.683200 0.385290 0.500000 -0.569164
O6    O     O_R   0.500000 0.614630 0.319080 -0.625891
O7    O     O_R   0.500000 0.614630 0.680920 -0.625892
O8    O     O_R   0.500030 0.385300 0.319080 -0.628089
O9    O     O_R   0.499970 0.385300 0.680920 -0.628096
O10   O     O_3   0.124593 0.248359 0.479614 -0.590820
Zn1   Zn    Zn3+2 0.500000 0.653120 0.500000 0.936970
Zn2   Zn    Zn3+2 0.500000 0.346880 0.500000 0.965230

loop_
_geom_bond_atom_site_label_1
_geom_bond_atom_site_label_2
_ccdc_geom_bond_type
C2    C22   A    
C7    H18   S    
C1    O4    A    
C16   C21   S    
N1    Zn1   S    
O5    Zn2   S    
C4    C22   A    
C15   H13   S    
N2    Zn2   S    
O7    Zn1   S    
O6    Zn1   S    
C14   H9    S    
C3    C5    A    
C1    C4    S    
C6    H17   S    
C7    C9    A    
C17   O7    A    
C13   H6    S    
C2    C3    A    
O3    Zn1   S    
C15   H10   S    
C22   O10   S    
C7    N2    A    
C2    O2    S    
C11   C13   S    
C1    O1    A    
C9    H20   S    
C11   O10   S    
O8    Zn2   S    
C14   H8    S    
C12   O3    A    
C8    C10   A    
C19   C21   D    
C16   O6    A    
C12   O5    A    
C18   C20   D    
C5    C6    A    
C9    N1    A    
C4    C6    A    
C11   H3    S    
C18   H1    S    
C20   H14   S    
C17   O9    A    
C17   C20   S    
C21   H15   S    
C8    H19   S    
O1    Zn1   S    
C16   O8    A    
C18   C19   S    
O9    Zn2   S    
C13   H7    S    
O4    Zn2   S    
C14   C15   S    
C13   H5    S    
C3    C12   S    
C11   H4    S    
C10   H2    S    
C10   N1    A    
C5    H16   S    
C15   H11   S    
C8    N2    A    
C14   O2    S    
C19   H12   S    
