data_mof_unit_36705.cif
_audit_creation_date              2012-12-10T19:00:15-0500
_audit_creation_method            fapswitch 2.2
_symmetry_space_group_name_H-M    P1
_symmetry_Int_Tables_number       1
_space_group_crystal_system       triclinic
_cell_length_a                    9.596667
_cell_length_b                    10.894153
_cell_length_c                    13.457577
_cell_angle_alpha                 92.369545
_cell_angle_beta                  72.775607
_cell_angle_gamma                 91.199086
_cell_volume                      1342.65350093

loop_
_atom_site_label
_atom_site_type_symbol
_atom_type_description
_atom_site_fract_x
_atom_site_fract_y
_atom_site_fract_z
_atom_type_partial_charge
C1    C     C_R   0.500825 0.737632 0.502085 0.836541
C2    C     C_R   0.438462 0.555651 0.978050 0.042129
C3    C     C_R   0.484894 0.562768 0.868302 -0.029337
C4    C     C_R   0.544783 0.533530 0.029688 0.007019
C5    C     C_R   0.693120 0.520447 0.970030 -0.021144
C6    C     C_R   0.737184 0.552939 0.866262 -0.303105
C7    C     C_R   0.634285 0.587817 0.819704 0.491765
C8    C     C_R   0.509217 0.521822 0.137794 -0.242032
C9    C     C_R   0.762228 0.489961 0.125447 -0.293416
C10   C     C_R   0.380492 0.551070 0.812279 -0.138747
C11   C     C_R   0.370659 0.933633 0.524965 0.056471
C12   C     C_R   0.423128 0.516459 0.699189 0.792685
C13   C     C_R   0.500032 0.871199 0.513691 -0.278649
C14   C     C_R   0.624874 0.939949 0.518721 0.374440
C15   C     C_R   0.617414 0.068610 0.530694 0.372777
C16   C     C_R   0.494356 0.129954 0.519080 -0.282539
C17   C     C_R   0.369018 0.060161 0.524695 0.062843
C18   C     C_3   0.269390 0.058600 0.458389 -0.444584
C19   C     C_3   0.267786 0.920069 0.460981 -0.423742
C20   C     C_R   0.936440 0.395929 0.472112 0.223596
C21   C     C_R   0.914140 0.599717 0.534585 -0.018213
C22   C     C_R   0.061410 0.599006 0.536448 -0.098688
C23   C     C_R   0.497745 0.262547 0.504462 0.842678
C24   C     C_R   0.083226 0.396484 0.472096 0.168596
C25   C     C_3   0.132257 0.327802 0.370730 -0.551568
C26   C     C_3   0.973736 0.320371 0.371806 0.305329
C27   C     C_R   0.577338 0.501042 0.300137 0.814397
C28   C     C_R   0.797634 0.485983 0.017387 0.497223
C29   C     C_R   0.618099 0.504981 0.186214 -0.124393
C30   C     C_R   0.233514 0.571537 0.866662 -0.149870
C31   C     C_R   0.190637 0.591008 0.974519 -0.090542
C32   C     C_R   0.289353 0.575342 0.030506 -0.191353
Cu1   Cu    Cu3+1 0.359330 0.500020 0.500010 0.936942
Cu2   Cu    Cu3+1 0.640670 0.499980 0.499990 1.017947
H1    H     H_    0.846881 0.481178 0.161634 0.216825
H2    H     H_    0.161707 0.099453 0.500115 0.205741
H3    H     H_    0.325543 0.091381 0.379262 0.184300
H4    H     H_    0.160005 0.882463 0.505654 0.195226
H5    H     H_    0.317620 0.874301 0.383440 0.191145
H6    H     H_    0.851770 0.682210 0.559482 0.223724
H7    H     H_    0.105656 0.679667 0.565861 0.143189
H8    H     H_    0.202748 0.384785 0.308303 0.230031
H9    H     H_    0.176314 0.237207 0.375101 0.151984
H10   H     H_    0.851962 0.562532 0.824161 0.193336
H11   H     H_    0.924621 0.226470 0.383176 0.125008
H12   H     H_    0.397846 0.528246 0.186020 0.162819
H13   H     H_    0.152083 0.574053 0.825708 0.182031
H14   H     H_    0.246510 0.583638 0.114065 0.135393
H15   H     H_    0.079027 0.614132 0.016043 0.172304
N1    N     N_R   0.852320 0.499070 0.499340 -0.180398
N2    N     N_R   0.148230 0.499110 0.499340 -0.172056
O1    O     O_R   0.381190 0.680360 0.500000 -0.598870
O2    O     O_R   0.618780 0.680320 0.499990 -0.536245
O3    O     O_R   0.323230 0.500000 0.650990 -0.591798
O4    O     O_R   0.560820 0.499960 0.650980 -0.539728
O5    O     O_R   0.381220 0.319680 0.500010 -0.576840
O6    O     O_R   0.618810 0.319640 0.500000 -0.543138
O7    O     O_R   0.439180 0.500040 0.349020 -0.594242
O8    O     O_R   0.676770 0.500000 0.349010 -0.539168
O9    O     O_3   0.738274 0.132476 0.541681 -0.574027
C33   C     C_3   0.718986 0.155635 0.648721 -0.286318
H16   H     H_    0.712815 0.068588 0.690236 0.148250
H17   H     H_    0.620363 0.212068 0.685389 0.152415
H18   H     H_    0.814833 0.208568 0.657695 0.168382
O10   O     O_3   0.953288 0.380350 0.286627 -0.543824
C34   C     C_3   0.991508 0.298596 0.198124 -0.381812
H19   H     H_    0.892578 0.248220 0.191638 0.170899
H20   H     H_    0.077431 0.231050 0.197853 0.150778
H21   H     H_    0.036934 0.352272 0.127315 0.212697
O11   O     O_3   0.936555 0.453304 0.958765 -0.616705
C35   C     C_3   0.934000 0.329275 0.924968 -0.370292
H22   H     H_    0.866544 0.316153 0.870783 0.167196
H23   H     H_    0.894223 0.267929 0.991935 0.156300
H24   H     H_    0.047021 0.301605 0.881822 0.197155
O12   O     O_3   0.681055 0.661066 0.734549 -0.573275
C36   C     C_3   0.626236 0.780892 0.762860 -0.334212
H25   H     H_    0.633777 0.813413 0.840805 0.142618
H26   H     H_    0.511899 0.786113 0.760205 0.159353
H27   H     H_    0.693222 0.844979 0.705923 0.215547
O13   O     O_3   0.754849 0.883045 0.512307 -0.571402
C37   C     C_3   0.846373 0.887120 0.408801 -0.276850
H28   H     H_    0.948144 0.837049 0.402914 0.167919
H29   H     H_    0.877809 0.983105 0.386008 0.169925
H30   H     H_    0.794434 0.840962 0.353218 0.147257

loop_
_geom_bond_atom_site_label_1
_geom_bond_atom_site_label_2
_ccdc_geom_bond_type
C34   H20   S    
Cu1   O7    S    
C27   C29   S    
C15   O9    S    
C36   H27   S    
C4    C8    A    
C25   H9    S    
C37   H28   S    
C23   O5    A    
Cu1   O1    S    
C11   C19   S    
C8    C29   A    
C19   H5    S    
C18   H3    S    
C36   H26   S    
C3    C7    A    
C5    C6    A    
C22   H7    S    
C15   C16   A    
C2    C32   A    
C18   C19   S    
C33   H17   S    
C1    O2    A    
C20   N1    A    
C26   H11   S    
C20   C24   A    
C16   C17   A    
Cu2   O6    S    
O11   C35   S    
C14   O13   S    
C9    C29   A    
C24   N2    A    
C34   H19   S    
Cu2   O4    S    
C6    H10   S    
C21   C22   A    
C32   H14   S    
C31   H15   S    
C21   N1    A    
C37   H29   S    
Cu1   Cu2   S    
Cu2   N1    S    
C30   H13   S    
C36   H25   S    
C35   H23   S    
O13   C37   S    
C7    O12   S    
C25   C26   S    
O9    C33   S    
C33   H18   S    
C2    C4    A    
O12   C36   S    
C19   H4    S    
C5    C28   A    
C10   C30   A    
C31   C32   A    
C17   C18   S    
C24   C25   S    
C10   C12   S    
C16   C23   S    
Cu2   O8    S    
C1    C13   S    
C37   H30   S    
Cu1   O3    S    
C23   O6    A    
C11   C17   A    
C26   O10   S    
C28   O11   S    
C4    C5    A    
C27   O7    A    
C25   H8    S    
C35   H24   S    
C6    C7    A    
Cu1   N2    S    
C2    C3    A    
C35   H22   S    
C3    C10   A    
C27   O8    A    
C11   C13   A    
C30   C31   A    
C21   H6    S    
C20   C26   S    
Cu1   O5    S    
C33   H16   S    
C1    O1    A    
C8    H12   S    
C12   O4    A    
C34   H21   S    
Cu2   O2    S    
O10   C34   S    
C9    H1    S    
C14   C15   A    
C13   C14   A    
C18   H2    S    
C12   O3    A    
C9    C28   A    
C22   N2    A    
