data_mof_unit_33258.cif
_audit_creation_date              2012-10-26T21:21:56-0400
_audit_creation_method            fapswitch 2.2
_symmetry_space_group_name_H-M    P1
_symmetry_Int_Tables_number       1
_space_group_crystal_system       triclinic
_cell_length_a                    17.654052
_cell_length_b                    19.199228
_cell_length_c                    11.87802
_cell_angle_alpha                 90.031854
_cell_angle_beta                  76.518135
_cell_angle_gamma                 89.984132
_cell_volume                      3915.04365362

loop_
_atom_site_label
_atom_site_type_symbol
_atom_type_description
_atom_site_fract_x
_atom_site_fract_y
_atom_site_fract_z
_atom_type_partial_charge
C1    C     C_R   0.399855 0.100242 0.520950 0.561232
C2    C     C_R   0.462913 0.008015 0.037097 -0.081402
C3    C     C_3   0.598355 0.711092 0.917105 -0.422801
C4    C     C_3   0.143128 0.816619 0.799919 -0.002113
C5    C     C_3   0.107241 0.811253 0.928936 -0.392916
C6    C     C_3   0.840556 0.173846 0.173190 0.013336
C7    C     C_3   0.917718 0.187696 0.088666 -0.418337
C8    C     C_3   0.846554 0.795721 0.195241 -0.005530
C9    C     C_3   0.888875 0.779641 0.071423 -0.400263
C10   C     C_3   0.142466 0.179127 0.802034 -0.000612
C11   C     C_3   0.108562 0.188839 0.930400 -0.393319
C12   C     C_3   0.310756 0.100985 0.052565 0.008697
C13   C     C_R   0.036667 0.509488 0.962867 -0.086279
C14   C     C_3   0.233771 0.114800 0.137867 -0.346966
C15   C     C_3   0.683042 0.106501 0.961699 0.005291
C16   C     C_3   0.765170 0.126126 0.899122 -0.355203
C17   C     C_3   0.806667 0.595792 0.047794 0.004363
C18   C     C_3   0.724804 0.607878 0.120138 -0.352781
C19   C     C_3   0.182277 0.605294 0.913523 0.024236
C20   C     C_3   0.263115 0.613103 0.834765 -0.355340
C21   C     C_R   0.962648 0.505900 0.037163 -0.077108
C22   C     C_R   0.407440 0.003673 0.866518 0.100457
C23   C     C_R   0.592362 0.002891 0.133426 0.099828
C24   C     C_R   0.907428 0.502136 0.866299 0.099458
C25   C     C_R   0.091426 0.514325 0.134558 0.105357
C26   C     C_R   0.399039 0.015222 0.986103 0.160759
C27   C     C_R   0.600787 0.015348 0.014064 0.162718
C28   C     C_R   0.898454 0.512031 0.986486 0.165814
C29   C     C_R   0.597683 0.897710 0.478872 0.546714
C30   C     C_R   0.099797 0.522295 0.013842 0.160081
C31   C     C_R   0.545605 0.003520 0.839408 0.388522
C32   C     C_R   0.454432 0.002430 0.160329 0.389868
C33   C     C_R   0.045289 0.502606 0.839832 0.376717
C34   C     C_R   0.954648 0.497578 0.159838 0.390558
C35   C     C_R   0.660724 0.154228 0.467000 -0.039875
C36   C     C_R   0.347530 0.838748 0.536766 -0.052852
C37   C     C_R   0.341428 0.155721 0.532675 -0.046899
C38   C     C_R   0.649479 0.836422 0.464924 -0.054515
C39   C     C_R   0.155392 0.658450 0.468037 -0.045771
C40   C     C_R   0.600634 0.099966 0.478996 0.561991
C41   C     C_R   0.853048 0.334393 0.535837 -0.058308
C42   C     C_R   0.841472 0.655942 0.533505 -0.044519
C43   C     C_R   0.150830 0.337321 0.463235 -0.055557
C44   C     C_R   0.241405 0.772660 0.658022 0.255700
C45   C     C_R   0.769629 0.217830 0.346856 0.259273
C46   C     C_R   0.747497 0.762110 0.343844 0.258931
C47   C     C_R   0.234636 0.221327 0.651616 0.254978
C48   C     C_R   0.751412 0.263554 0.656845 0.258815
C49   C     C_R   0.261034 0.724954 0.348863 0.258677
C50   C     C_R   0.253034 0.266932 0.341877 0.253217
C51   C     C_R   0.401688 0.898200 0.521400 0.546856
C52   C     C_R   0.740387 0.727520 0.655406 0.267676
C53   C     C_R   0.304501 0.818642 0.647682 0.276586
C54   C     C_R   0.701074 0.178076 0.357347 0.279985
C55   C     C_R   0.687480 0.811478 0.354288 0.275916
C56   C     C_R   0.301143 0.179765 0.642284 0.281644
C57   C     C_R   0.812306 0.311860 0.646647 0.281832
C58   C     C_R   0.194605 0.683500 0.358627 0.271505
C59   C     C_R   0.192714 0.315946 0.352129 0.282155
C60   C     C_R   0.806258 0.684000 0.643037 0.270596
C61   C     C_R   0.337350 0.802281 0.439966 -0.216041
C62   C     C_R   0.899766 0.600209 0.521078 0.566732
C63   C     C_R   0.679169 0.181529 0.566423 -0.190773
C64   C     C_R   0.661730 0.802575 0.563159 -0.202417
C65   C     C_R   0.324242 0.183969 0.432836 -0.193536
C66   C     C_R   0.845118 0.296401 0.438949 -0.205626
C67   C     C_R   0.171208 0.688143 0.567870 -0.188153
C68   C     C_R   0.159929 0.300306 0.560223 -0.216330
C69   C     C_R   0.820614 0.681239 0.434693 -0.190874
C70   C     C_R   0.276921 0.754561 0.448914 -0.045762
C71   C     C_R   0.738335 0.230789 0.557422 -0.053813
C72   C     C_R   0.720853 0.753269 0.554717 -0.033120
C73   C     C_R   0.098163 0.398025 0.478579 0.549377
C74   C     C_R   0.265757 0.233940 0.441407 -0.049645
C75   C     C_R   0.785519 0.247396 0.447298 -0.034874
C76   C     C_R   0.229195 0.738672 0.558968 -0.046679
C77   C     C_R   0.219027 0.251123 0.551465 -0.042955
C78   C     C_R   0.763232 0.732087 0.443880 -0.051444
C79   C     C_2   0.665600 0.984356 0.167358 0.345971
C80   C     C_2   0.333556 0.986468 0.832823 0.350711
C81   C     C_2   0.164453 0.524555 0.174636 0.359505
C82   C     C_2   0.834676 0.484106 0.830742 0.343850
C83   C     C_3   0.351152 0.930714 0.245502 0.054481
C84   C     C_R   0.099226 0.600998 0.479281 0.555556
C85   C     C_3   0.284638 0.914970 0.187066 -0.358841
C86   C     C_3   0.652456 0.935768 0.753242 0.056391
C87   C     C_3   0.723392 0.925474 0.804446 -0.349543
C88   C     C_3   0.855120 0.420531 0.238151 0.053740
C89   C     C_3   0.791243 0.404212 0.174761 -0.358750
C90   C     C_3   0.146842 0.428472 0.759117 0.048493
C91   C     C_3   0.209476 0.412717 0.824977 -0.358650
C92   C     C_3   0.639317 0.225574 0.225953 -0.016744
C93   C     C_3   0.556067 0.211063 0.217530 -0.373586
C94   C     C_3   0.361223 0.793463 0.797705 0.001810
C95   C     C_R   0.903149 0.397063 0.521087 0.544044
C96   C     C_3   0.428346 0.826154 0.839095 -0.382049
C97   C     C_3   0.358672 0.219757 0.784307 -0.000605
C98   C     C_3   0.440090 0.201266 0.797363 -0.376678
C99   C     C_3   0.631323 0.786562 0.202500 0.002567
C100  C     C_3   0.550561 0.811727 0.197585 -0.384532
C101  C     C_3   0.136608 0.725810 0.218714 -0.001036
C102  C     C_3   0.055193 0.708443 0.204861 -0.385672
C103  C     C_3   0.867449 0.290029 0.800061 -0.005028
C104  C     C_3   0.953263 0.308292 0.780157 -0.380453
C105  C     C_3   0.890031 0.724382 0.747296 -0.010485
C106  C     C_R   0.537083 0.008367 0.962726 -0.081649
C107  C     C_3   0.952444 0.695931 0.804037 -0.373450
C108  C     C_3   0.142104 0.297536 0.192944 0.020149
C109  C     C_3   0.071795 0.331134 0.161814 -0.362074
C110  C     C_3   0.648423 0.302238 0.795222 0.001094
C111  C     C_3   0.613972 0.300040 0.924813 -0.388043
C112  C     C_3   0.355860 0.684817 0.199983 -0.002792
C113  C     C_3   0.391553 0.694773 0.071945 -0.393070
C114  C     C_3   0.356855 0.304201 0.204327 -0.002059
C115  C     C_3   0.398902 0.295643 0.078232 -0.390924
C116  C     C_3   0.680846 0.699434 0.846558 0.016276
Cu1   Cu    Cu3+1 0.507800 0.000000 0.383250 1.039669
Cu2   Cu    Cu3+1 0.492200 0.000000 0.616750 1.034345
Cu3   Cu    Cu3+1 0.007800 0.500000 0.383250 1.036918
Cu4   Cu    Cu3+1 0.992200 0.500000 0.616750 1.031012
H1    H     H_    0.646130 0.165522 0.651175 0.196573
H2    H     H_    0.290221 0.955664 0.892042 0.112983
H3    H     H_    0.964252 0.192493 0.136867 0.144447
H4    H     H_    0.931927 0.143684 0.026645 0.090947
H5    H     H_    0.914463 0.236436 0.039701 0.149160
H6    H     H_    0.889926 0.797603 0.249877 0.117503
H7    H     H_    0.819198 0.848038 0.195410 0.169069
H8    H     H_    0.846027 0.772156 0.017281 0.155827
H9    H     H_    0.927940 0.823536 0.035696 0.092710
H10   H     H_    0.924371 0.731744 0.068950 0.130701
H11   H     H_    0.175947 0.129321 0.791195 0.176651
H12   H     H_    0.093998 0.174698 0.757001 0.117626
H13   H     H_    0.206526 0.562940 0.132392 0.132535
H14   H     H_    0.070076 0.235161 0.944246 0.143789
H15   H     H_    0.074753 0.141947 0.966289 0.091733
H16   H     H_    0.156253 0.196461 0.975553 0.149815
H17   H     H_    0.305130 0.117368 0.965233 0.162495
H18   H     H_    0.357055 0.131918 0.079200 0.162076
H19   H     H_    0.186940 0.082801 0.115508 0.128249
H20   H     H_    0.238506 0.102049 0.227190 0.187685
H21   H     H_    0.218394 0.170203 0.133982 0.117857
H22   H     H_    0.676157 0.120240 0.054210 0.163554
H23   H     H_    0.640965 0.136728 0.924414 0.169183
H24   H     H_    0.794727 0.447518 0.883526 0.115834
H25   H     H_    0.808060 0.092646 0.928688 0.128317
H26   H     H_    0.772683 0.119950 0.804171 0.184713
H27   H     H_    0.775556 0.180989 0.919776 0.112030
H28   H     H_    0.807637 0.611086 0.957190 0.157464
H29   H     H_    0.847697 0.628710 0.082692 0.170980
H30   H     H_    0.683059 0.573067 0.090579 0.131139
H31   H     H_    0.722484 0.597608 0.212911 0.184074
H32   H     H_    0.707898 0.662466 0.109828 0.104824
H33   H     H_    0.178102 0.639208 0.990592 0.115275
H34   H     H_    0.138154 0.622130 0.865728 0.177266
H35   H     H_    0.322975 0.924586 0.338267 0.167893
H36   H     H_    0.266544 0.584282 0.752627 0.170985
H37   H     H_    0.276361 0.668238 0.814437 0.138185
H38   H     H_    0.307657 0.592262 0.878220 0.129148
H39   H     H_    0.397422 0.890507 0.218477 0.110815
H40   H     H_    0.307122 0.905022 0.093260 0.159203
H41   H     H_    0.254230 0.866823 0.224615 0.122239
H42   H     H_    0.240881 0.957550 0.203021 0.181862
H43   H     H_    0.677211 0.928766 0.659625 0.167727
H44   H     H_    0.609325 0.893757 0.786007 0.107603
H45   H     H_    0.375981 0.811830 0.356949 0.151250
H46   H     H_    0.705252 0.913644 0.898277 0.160382
H47   H     H_    0.757603 0.879973 0.762739 0.117338
H48   H     H_    0.762269 0.971633 0.787555 0.184755
H49   H     H_    0.825752 0.411555 0.329697 0.167809
H50   H     H_    0.903473 0.382358 0.210743 0.105814
H51   H     H_    0.816018 0.397584 0.080626 0.151724
H52   H     H_    0.762870 0.354218 0.206770 0.122809
H53   H     H_    0.745161 0.444779 0.192571 0.186077
H54   H     H_    0.177242 0.420601 0.667504 0.166978
H55   H     H_    0.099380 0.389255 0.784071 0.112007
H56   H     H_    0.357274 0.167711 0.348182 0.194211
H57   H     H_    0.183662 0.407325 0.918956 0.173030
H58   H     H_    0.237659 0.362241 0.794915 0.123664
H59   H     H_    0.255652 0.453127 0.807575 0.182011
H60   H     H_    0.674301 0.240746 0.139254 0.133721
H61   H     H_    0.637942 0.271486 0.284401 0.106278
H62   H     H_    0.532509 0.257708 0.182501 0.080269
H63   H     H_    0.554021 0.166249 0.159277 0.148783
H64   H     H_    0.519161 0.199338 0.304702 0.161515
H65   H     H_    0.385909 0.749707 0.738183 0.102223
H66   H     H_    0.319348 0.771833 0.874153 0.153974
H67   H     H_    0.625710 0.815554 0.646812 0.163210
H68   H     H_    0.405843 0.862091 0.912324 0.120443
H69   H     H_    0.462683 0.784937 0.868964 0.078138
H70   H     H_    0.467727 0.854412 0.767397 0.188840
H71   H     H_    0.321740 0.233301 0.870612 0.144032
H72   H     H_    0.363591 0.267629 0.729470 0.104516
H73   H     H_    0.465252 0.246090 0.835042 0.077295
H74   H     H_    0.437982 0.155627 0.855203 0.148448
H75   H     H_    0.478369 0.189024 0.711391 0.167794
H76   H     H_    0.624553 0.734823 0.246770 0.117153
H77   H     H_    0.665840 0.778787 0.112510 0.149613
H78   H     H_    0.138156 0.672077 0.652539 0.180452
H79   H     H_    0.554805 0.858837 0.142522 0.134620
H80   H     H_    0.520091 0.770333 0.160368 0.080052
H81   H     H_    0.516229 0.823619 0.286114 0.174276
H82   H     H_    0.173790 0.739788 0.132822 0.152871
H83   H     H_    0.131941 0.773025 0.275117 0.110071
H84   H     H_    0.029832 0.754837 0.171845 0.081565
H85   H     H_    0.057361 0.664856 0.142817 0.137285
H86   H     H_    0.017290 0.693555 0.289808 0.170552
H87   H     H_    0.863121 0.235289 0.770618 0.123513
H88   H     H_    0.841445 0.291650 0.894631 0.136651
H89   H     H_    0.884116 0.306588 0.356318 0.158497
H90   H     H_    0.959996 0.360278 0.817039 0.152600
H91   H     H_    0.983173 0.269203 0.823149 0.080395
H92   H     H_    0.980547 0.308065 0.686061 0.159101
H93   H     H_    0.857862 0.766760 0.802136 0.137588
H94   H     H_    0.920682 0.747059 0.662185 0.100029
H95   H     H_    0.989697 0.739184 0.820943 0.086410
H96   H     H_    0.925818 0.670209 0.887101 0.127933
H97   H     H_    0.989275 0.657546 0.746302 0.190050
H98   H     H_    0.121629 0.248841 0.242270 0.095536
H99   H     H_    0.184240 0.283434 0.111264 0.152046
H100  H     H_    0.850080 0.661996 0.349992 0.197110
H101  H     H_    0.090604 0.374903 0.101196 0.148036
H102  H     H_    0.041089 0.292773 0.119227 0.066547
H103  H     H_    0.030509 0.349902 0.241069 0.181642
H104  H     H_    0.601095 0.294125 0.749020 0.116435
H105  H     H_    0.673329 0.355396 0.774462 0.160040
H106  H     H_    0.661239 0.304566 0.971761 0.152530
H107  H     H_    0.573383 0.344444 0.950063 0.090923
H108  H     H_    0.581787 0.250593 0.949061 0.129650
H109  H     H_    0.324719 0.633818 0.210263 0.156680
H110  H     H_    0.403422 0.683027 0.247146 0.118712
H111  H     H_    0.122087 0.311065 0.643426 0.155291
H112  H     H_    0.421737 0.745740 0.058111 0.150198
H113  H     H_    0.434035 0.652508 0.039864 0.091337
H114  H     H_    0.345176 0.693406 0.022934 0.146160
H115  H     H_    0.399819 0.299612 0.259179 0.115438
H116  H     H_    0.331206 0.357563 0.214535 0.177446
H117  H     H_    0.356539 0.299669 0.022671 0.151112
H118  H     H_    0.442802 0.337550 0.053673 0.092405
H119  H     H_    0.428497 0.244265 0.064426 0.134496
H120  H     H_    0.720917 0.702522 0.905830 0.160100
H121  H     H_    0.683434 0.645829 0.809339 0.163314
H122  H     H_    0.706782 0.950321 0.110755 0.103413
H123  H     H_    0.556583 0.699152 0.862973 0.143035
H124  H     H_    0.586267 0.676084 0.993605 0.089636
H125  H     H_    0.590671 0.766026 0.946916 0.153616
H126  H     H_    0.096098 0.815802 0.751879 0.116200
H127  H     H_    0.173593 0.867804 0.784550 0.167658
H128  H     H_    0.153612 0.815603 0.977627 0.147948
H129  H     H_    0.064841 0.854193 0.956256 0.089844
H130  H     H_    0.077072 0.760486 0.949285 0.140754
H131  H     H_    0.797569 0.160678 0.121887 0.179367
H132  H     H_    0.848446 0.128074 0.227309 0.142332
N1    N     N_R   0.519530 0.000000 0.207810 -0.276036
N2    N     N_R   0.480470 0.000000 0.792190 -0.279866
N3    N     N_R   0.019530 0.500000 0.207810 -0.277583
N4    N     N_R   0.980470 0.500000 0.792190 -0.280290
O1    O     O_R   0.430030 0.075530 0.417420 -0.502783
O2    O     O_R   0.583140 0.924490 0.385390 -0.426862
O3    O     O_R   0.583140 0.075510 0.385390 -0.406754
O4    O     O_R   0.416860 0.924490 0.614610 -0.429780
O5    O     O_R   0.916860 0.575510 0.614610 -0.408137
O6    O     O_R   0.083140 0.424490 0.385390 -0.408481
O7    O     O_R   0.083140 0.575510 0.385390 -0.442650
O8    O     O_R   0.916860 0.424490 0.614610 -0.431796
O9    O     O_2   0.684605 0.009338 0.250626 -0.462802
O10   O     O_2   0.316491 0.008574 0.746257 -0.456026
O11   O     O_2   0.183080 0.487738 0.246602 -0.454819
O12   O     O_R   0.569970 0.924470 0.582580 -0.545580
O13   O     O_2   0.814189 0.512777 0.751644 -0.467710
O14   O     O_3   0.379740 0.000358 0.231752 -0.494062
O15   O     O_3   0.620212 0.004143 0.767495 -0.492740
O16   O     O_3   0.880253 0.491236 0.230883 -0.489706
O17   O     O_3   0.119760 0.498603 0.768554 -0.504472
O18   O     O_3   0.672126 0.164229 0.261139 -0.538631
O19   O     O_3   0.322715 0.845051 0.746514 -0.543745
O20   O     O_3   0.325236 0.161330 0.741057 -0.519901
O21   O     O_3   0.669049 0.837902 0.255550 -0.549156
O22   O     O_3   0.169163 0.666493 0.260575 -0.562614
O23   O     O_R   0.569970 0.075530 0.582580 -0.503551
O24   O     O_3   0.828297 0.339770 0.745966 -0.548036
O25   O     O_3   0.837461 0.670392 0.737265 -0.539255
O26   O     O_3   0.178289 0.346089 0.253310 -0.495162
O27   O     O_3   0.704819 0.248969 0.765005 -0.581322
O28   O     O_3   0.305702 0.741379 0.240325 -0.584268
O29   O     O_3   0.299545 0.251835 0.233926 -0.588625
O30   O     O_3   0.700504 0.752849 0.762702 -0.598202
O31   O     O_3   0.193550 0.759381 0.765778 -0.594269
O32   O     O_3   0.816653 0.234635 0.239355 -0.598185
O33   O     O_3   0.790533 0.743342 0.235197 -0.583721
O34   O     O_R   0.430030 0.924470 0.417420 -0.542352
O35   O     O_3   0.189212 0.237449 0.759766 -0.587380
O36   O     O_3   0.325974 0.029259 0.053856 -0.574818
O37   O     O_3   0.672778 0.034652 0.948164 -0.569343
O38   O     O_3   0.825074 0.524949 0.054717 -0.569524
O39   O     O_3   0.173324 0.534778 0.945865 -0.577945
O40   O     O_R   0.930030 0.575530 0.417420 -0.505964
O41   O     O_R   0.069970 0.424470 0.582580 -0.537238
O42   O     O_R   0.069970 0.575530 0.582580 -0.507703
O43   O     O_R   0.930030 0.424470 0.417420 -0.534648
O44   O     O_R   0.416860 0.075510 0.614610 -0.408858

loop_
_geom_bond_atom_site_label_1
_geom_bond_atom_site_label_2
_ccdc_geom_bond_type
C61   C70   A    
C43   C73   S    
C115  H119  S    
C51   O4    A    
C101  C102  S    
Cu1   O34   S    
C69   H100  S    
C85   H41   S    
C65   C74   A    
C96   H68   S    
C1    O44   A    
C32   O14   S    
C19   C20   S    
C94   H65   S    
C89   H53   S    
C7    H4    S    
C23   N1    A    
C67   H78   S    
C110  H104  S    
C114  C115  S    
C25   N3    A    
C108  O26   S    
C48   C57   A    
C80   H2    S    
C9    H10   S    
C113  H113  S    
C105  C107  S    
C100  H81   S    
C114  H115  S    
C47   C56   A    
C45   O32   S    
C19   O39   S    
C6    H131  S    
C16   H27   S    
C80   O10   D    
C50   C59   A    
C26   O36   S    
C61   H45   S    
C103  H87   S    
C39   C84   S    
C92   H61   S    
C50   C74   A    
C52   O30   S    
Cu2   O23   S    
Cu1   O3    S    
C93   H64   S    
C87   H46   S    
Cu2   O4    S    
C15   C16   S    
C91   H58   S    
C68   C77   A    
C112  H110  S    
C108  C109  S    
C98   H74   S    
C104  H92   S    
C2    C32   A    
C112  O28   S    
C79   H122  S    
C96   H70   S    
C24   N4    A    
C24   C82   S    
C110  C111  S    
C72   C78   A    
C36   C53   A    
C92   H60   S    
C23   C79   S    
C10   H11   S    
C108  H99   S    
Cu1   N1    S    
C44   C53   A    
C88   O16   S    
C97   H72   S    
Cu3   O7    S    
C38   C55   A    
C58   O22   S    
C40   O23   A    
C43   C68   A    
Cu4   O8    S    
C74   C77   A    
C91   H59   S    
C46   C55   A    
C56   O20   S    
C67   C76   A    
C62   O40   A    
C84   O7    A    
C116  O30   S    
C18   H31   S    
C88   H49   S    
C85   H40   S    
C23   C27   A    
C52   C60   A    
C42   C62   S    
C38   C64   A    
C109  H103  S    
C68   H111  S    
C43   C59   A    
C8    O33   S    
C16   H26   S    
C108  H98   S    
C88   C89   S    
C14   H21   S    
C47   O35   S    
C107  H97   S    
C35   C54   A    
C25   C81   S    
C85   H42   S    
C37   C56   A    
C94   H66   S    
C34   O16   S    
C69   C78   A    
C39   C67   A    
C103  O24   S    
C27   O37   S    
C18   H32   S    
Cu3   O40   S    
C62   O5    A    
C112  C113  S    
C63   H1    S    
C40   O3    A    
C30   O39   S    
C97   C98   S    
C6    C7    S    
C1    O1    A    
C17   O38   S    
C113  H114  S    
C87   H47   S    
C102  H85   S    
C4    O31   S    
C88   H50   S    
C107  H96   S    
C73   O41   A    
C9    H8    S    
C5    H129  S    
C13   C30   A    
C93   H63   S    
C29   C38   S    
C105  H93   S    
C103  H88   S    
C89   H51   S    
C51   O34   A    
C82   H24   S    
C101  H83   S    
C11   H14   S    
C42   C60   A    
C94   O19   S    
C115  H117  S    
C102  H84   S    
C86   C87   S    
C8    C9    S    
C114  H116  S    
C21   C34   A    
C27   C106  A    
C39   C58   A    
C99   H76   S    
C2    C106  A    
C42   C69   A    
C112  H109  S    
C98   H73   S    
C37   C65   A    
C16   H25   S    
C46   O33   S    
Cu2   N2    S    
C96   H69   S    
C32   N1    A    
C83   O14   S    
C6    O32   S    
Cu4   N4    S    
C4    H127  S    
C13   C33   A    
C28   O38   S    
C52   C72   A    
C11   H15   S    
C15   H22   S    
Cu1   O1    S    
C93   H62   S    
C101  O22   S    
C8    H7    S    
C105  O25   S    
C87   H48   S    
C53   O19   S    
C54   O18   S    
C4    H126  S    
C84   O42   A    
C17   H28   S    
C17   C18   S    
C13   C21   A    
C99   H77   S    
C2    C26   A    
C3    H123  S    
C7    H5    S    
C66   H89   S    
C94   C96   S    
C102  H86   S    
Cu4   O42   S    
C10   O35   S    
C36   C51   S    
C15   H23   S    
C57   O24   S    
C100  H80   S    
C8    H6    S    
C95   O8    A    
C83   C85   S    
C59   O26   S    
C63   C71   A    
C45   C54   A    
C14   H20   S    
C49   C70   A    
C82   O13   D    
C65   H56   S    
C31   O15   S    
C104  H90   S    
C19   H33   S    
C31   C106  A    
Cu2   O12   S    
C86   H44   S    
C111  H108  S    
C70   C76   A    
C92   O18   S    
C48   O27   S    
C109  H101  S    
C73   O6    A    
C113  H112  S    
C46   C78   A    
C25   C30   A    
C19   H34   S    
C44   O31   S    
C116  H120  S    
C116  H121  S    
C15   O37   S    
C105  H94   S    
C20   H36   S    
C31   N2    A    
C101  H82   S    
C60   O25   S    
C111  H106  S    
C95   O43   A    
C5    H130  S    
C21   C28   A    
C33   N4    A    
C17   H29   S    
C24   C28   A    
C89   H52   S    
C12   C14   S    
C4    C5    S    
C110  H105  S    
Cu3   N3    S    
C86   O15   S    
C115  H118  S    
C35   C63   A    
Cu3   Cu4   S    
C114  O29   S    
C81   H13   S    
C41   C66   A    
C110  O27   S    
C9    H9    S    
C12   O36   S    
C3    H125  S    
C3    C116  S    
C90   H54   S    
C49   O28   S    
C29   O2    A    
C48   C71   A    
C99   C100  S    
Cu2   O44   S    
C45   C75   A    
C111  H107  S    
C35   C40   S    
C22   C80   S    
C50   O29   S    
C18   H30   S    
C11   H16   S    
C71   C75   A    
Cu1   O2    S    
C99   O21   S    
C90   C91   S    
C41   C95   S    
C33   O17   S    
C20   H37   S    
C66   C75   A    
C91   H57   S    
C92   C93   S    
C79   O9    D    
C90   H55   S    
C98   H75   S    
C90   O17   S    
C12   H18   S    
C3    H124  S    
C64   C72   A    
C55   O21   S    
C97   O20   S    
C10   H12   S    
Cu4   O41   S    
C22   N2    A    
C64   H67   S    
C10   C11   S    
C49   C58   A    
Cu3   O43   S    
C41   C57   A    
Cu3   O6    S    
C100  H79   S    
C97   H71   S    
C83   H39   S    
C14   H19   S    
Cu4   O5    S    
C22   C26   A    
C103  C104  S    
C81   O11   D    
C29   O12   A    
C47   C77   A    
C12   H17   S    
C34   N3    A    
C20   H38   S    
C86   H43   S    
C5    H128  S    
C104  H91   S    
C44   C76   A    
C83   H35   S    
Cu1   Cu2   S    
C6    H132  S    
C107  H95   S    
C109  H102  S    
C36   C61   A    
C7    H3    S    
C1    C37   S    
