data_mof_unit_61648.cif
_audit_creation_date              2012-10-26T21:31:49-0400
_audit_creation_method            fapswitch 2.2
_symmetry_space_group_name_H-M    P1
_symmetry_Int_Tables_number       1
_space_group_crystal_system       cubic
_cell_length_a                    50.62555
_cell_length_b                    50.62555
_cell_length_c                    50.62555
_cell_angle_alpha                 90.0
_cell_angle_beta                  90.0
_cell_angle_gamma                 90.0
_cell_volume                      129750.566706

loop_
_atom_site_label
_atom_site_type_symbol
_atom_type_description
_atom_site_fract_x
_atom_site_fract_y
_atom_site_fract_z
_atom_type_partial_charge
C1    C     C_R   0.224384 0.775616 0.054191 0.557078
C2    C     C_R   0.224384 0.945809 0.224384 0.557078
C3    C     C_R   0.814101 0.314101 0.583779 0.058897
C4    C     C_R   0.416221 0.314101 0.185899 0.058897
C5    C     C_R   0.185899 0.685899 0.583779 0.058897
C6    C     C_R   0.583779 0.314101 0.814101 0.058897
C7    C     C_R   0.814101 0.685899 0.416221 0.058897
C8    C     C_R   0.314101 0.814101 0.583779 0.058897
C9    C     C_R   0.685899 0.416221 0.814101 0.058897
C10   C     C_R   0.314101 0.185899 0.416221 0.058897
C11   C     C_R   0.685899 0.583779 0.185899 0.058897
C12   C     C_R   0.685899 0.185899 0.583779 0.058897
C13   C     C_R   0.775616 0.945809 0.775616 0.557078
C14   C     C_R   0.314101 0.583779 0.814101 0.058897
C15   C     C_R   0.685899 0.814101 0.416221 0.058897
C16   C     C_R   0.314101 0.416221 0.185899 0.058897
C17   C     C_R   0.185899 0.583779 0.685899 0.058897
C18   C     C_R   0.583779 0.814101 0.314101 0.058897
C19   C     C_R   0.814101 0.416221 0.685899 0.058897
C20   C     C_R   0.416221 0.185899 0.314101 0.058897
C21   C     C_R   0.814101 0.583779 0.314101 0.058897
C22   C     C_R   0.416221 0.814101 0.685899 0.058897
C23   C     C_R   0.185899 0.416221 0.314101 0.058897
C24   C     C_R   0.775616 0.054191 0.224384 0.557078
C25   C     C_R   0.583779 0.185899 0.685899 0.058897
C26   C     C_R   0.916221 0.185899 0.814101 0.058897
C27   C     C_R   0.185899 0.814101 0.916221 0.058897
C28   C     C_R   0.083779 0.185899 0.185899 0.058897
C29   C     C_R   0.814101 0.814101 0.083779 0.058897
C30   C     C_R   0.916221 0.814101 0.185899 0.058897
C31   C     C_R   0.185899 0.185899 0.083779 0.058897
C32   C     C_R   0.083779 0.814101 0.814101 0.058897
C33   C     C_R   0.814101 0.185899 0.916221 0.058897
C34   C     C_R   0.185899 0.916221 0.814101 0.058897
C35   C     C_R   0.724384 0.275616 0.054191 0.557078
C36   C     C_R   0.185899 0.083779 0.185899 0.058897
C37   C     C_R   0.814101 0.083779 0.814101 0.058897
C38   C     C_R   0.814101 0.916221 0.185899 0.058897
C39   C     C_R   0.916221 0.685899 0.314101 0.058897
C40   C     C_R   0.685899 0.314101 0.916221 0.058897
C41   C     C_R   0.083779 0.685899 0.685899 0.058897
C42   C     C_R   0.314101 0.314101 0.083779 0.058897
C43   C     C_R   0.916221 0.314101 0.685899 0.058897
C44   C     C_R   0.685899 0.685899 0.083779 0.058897
C45   C     C_R   0.083779 0.314101 0.314101 0.058897
C46   C     C_R   0.945809 0.724384 0.724384 0.557078
C47   C     C_R   0.314101 0.685899 0.916221 0.058897
C48   C     C_R   0.685899 0.916221 0.314101 0.058897
C49   C     C_R   0.685899 0.083779 0.685899 0.058897
C50   C     C_R   0.314101 0.083779 0.314101 0.058897
C51   C     C_R   0.314101 0.916221 0.685899 0.058897
C52   C     C_R   0.359813 0.673172 0.859813 0.431294
C53   C     C_R   0.140187 0.326827 0.359813 0.431294
C54   C     C_R   0.640187 0.673172 0.140187 0.431294
C55   C     C_R   0.859813 0.326827 0.640187 0.431294
C56   C     C_R   0.359813 0.326827 0.140187 0.431294
C57   C     C_R   0.275616 0.275616 0.945809 0.557078
C58   C     C_R   0.140187 0.673172 0.640187 0.431294
C59   C     C_R   0.640187 0.326827 0.859813 0.431294
C60   C     C_R   0.859813 0.673172 0.359813 0.431294
C61   C     C_R   0.326827 0.859813 0.640187 0.431294
C62   C     C_R   0.673172 0.359813 0.859813 0.431294
C63   C     C_R   0.326827 0.140187 0.359813 0.431294
C64   C     C_R   0.673172 0.640187 0.140187 0.431294
C65   C     C_R   0.673172 0.140187 0.640187 0.431294
C66   C     C_R   0.326827 0.640187 0.859813 0.431294
C67   C     C_R   0.673172 0.859813 0.359813 0.431294
C68   C     C_R   0.054191 0.724384 0.275616 0.557078
C69   C     C_R   0.326827 0.359813 0.140187 0.431294
C70   C     C_R   0.140187 0.640187 0.673172 0.431294
C71   C     C_R   0.640187 0.859813 0.326827 0.431294
C72   C     C_R   0.859813 0.359813 0.673172 0.431294
C73   C     C_R   0.359813 0.140187 0.326827 0.431294
C74   C     C_R   0.859813 0.640187 0.326827 0.431294
C75   C     C_R   0.359813 0.859813 0.673172 0.431294
C76   C     C_R   0.140187 0.359813 0.326827 0.431294
C77   C     C_R   0.640187 0.140187 0.673172 0.431294
C78   C     C_R   0.859813 0.173173 0.859813 0.431294
C79   C     C_R   0.724384 0.724384 0.945809 0.557078
C80   C     C_R   0.140187 0.826827 0.859813 0.431294
C81   C     C_R   0.140187 0.173173 0.140187 0.431294
C82   C     C_R   0.859813 0.826827 0.140187 0.431294
C83   C     C_R   0.826827 0.859813 0.140187 0.431294
C84   C     C_R   0.173173 0.859813 0.859813 0.431294
C85   C     C_R   0.826827 0.140187 0.859813 0.431294
C86   C     C_R   0.173173 0.140187 0.140187 0.431294
C87   C     C_R   0.140187 0.140187 0.173173 0.431294
C88   C     C_R   0.140187 0.859813 0.826827 0.431294
C89   C     C_R   0.859813 0.859813 0.173173 0.431294
C90   C     C_R   0.945809 0.275616 0.275616 0.557078
C91   C     C_R   0.859813 0.140187 0.826827 0.431294
C92   C     C_R   0.359813 0.173173 0.359813 0.431294
C93   C     C_R   0.640187 0.826827 0.359813 0.431294
C94   C     C_R   0.640187 0.173173 0.640187 0.431294
C95   C     C_R   0.359813 0.826827 0.640187 0.431294
C96   C     C_R   0.826827 0.359813 0.640187 0.431294
C97   C     C_R   0.173173 0.359813 0.359813 0.431294
C98   C     C_R   0.826827 0.640187 0.359813 0.431294
C99   C     C_R   0.173173 0.640187 0.640187 0.431294
C100  C     C_R   0.640187 0.640187 0.173173 0.431294
C101  C     C_R   0.275616 0.724384 0.054191 0.557078
C102  C     C_R   0.640187 0.359813 0.826827 0.431294
C103  C     C_R   0.359813 0.359813 0.173173 0.431294
C104  C     C_R   0.359813 0.640187 0.826827 0.431294
C105  C     C_R   0.392672 0.673382 0.826618 0.271167
C106  C     C_R   0.173382 0.326618 0.392672 0.271167
C107  C     C_R   0.607328 0.673382 0.173382 0.271167
C108  C     C_R   0.826618 0.326618 0.607328 0.271167
C109  C     C_R   0.392672 0.326618 0.173382 0.271167
C110  C     C_R   0.173382 0.673382 0.607328 0.271167
C111  C     C_R   0.607328 0.326618 0.826618 0.271167
C112  C     C_R   0.945809 0.224384 0.224384 0.557078
C113  C     C_R   0.054191 0.275616 0.724384 0.557078
C114  C     C_R   0.826618 0.673382 0.392672 0.271167
C115  C     C_R   0.326618 0.826618 0.607328 0.271167
C116  C     C_R   0.673382 0.392672 0.826618 0.271167
C117  C     C_R   0.326618 0.173382 0.392672 0.271167
C118  C     C_R   0.673382 0.607328 0.173382 0.271167
C119  C     C_R   0.673382 0.173382 0.607328 0.271167
C120  C     C_R   0.326618 0.607328 0.826618 0.271167
C121  C     C_R   0.673382 0.826618 0.392672 0.271167
C122  C     C_R   0.326618 0.392672 0.173382 0.271167
C123  C     C_R   0.173382 0.607328 0.673382 0.271167
C124  C     C_R   0.724384 0.054191 0.275616 0.557078
C125  C     C_R   0.607328 0.826618 0.326618 0.271167
C126  C     C_R   0.826618 0.392672 0.673382 0.271167
C127  C     C_R   0.392672 0.173382 0.326618 0.271167
C128  C     C_R   0.826618 0.607328 0.326618 0.271167
C129  C     C_R   0.392672 0.826618 0.673382 0.271167
C130  C     C_R   0.173382 0.392672 0.326618 0.271167
C131  C     C_R   0.607328 0.173382 0.673382 0.271167
C132  C     C_R   0.892672 0.173382 0.826618 0.271167
C133  C     C_R   0.173382 0.826618 0.892672 0.271167
C134  C     C_R   0.107328 0.173382 0.173382 0.271167
C135  C     C_R   0.724384 0.945809 0.724384 0.557078
C136  C     C_R   0.826618 0.826618 0.107328 0.271167
C137  C     C_R   0.892672 0.826618 0.173382 0.271167
C138  C     C_R   0.173382 0.173382 0.107328 0.271167
C139  C     C_R   0.107328 0.826618 0.826618 0.271167
C140  C     C_R   0.826618 0.173382 0.892672 0.271167
C141  C     C_R   0.173382 0.892672 0.826618 0.271167
C142  C     C_R   0.173382 0.107328 0.173382 0.271167
C143  C     C_R   0.826618 0.107328 0.826618 0.271167
C144  C     C_R   0.826618 0.892672 0.173382 0.271167
C145  C     C_R   0.892672 0.673382 0.326618 0.271167
C146  C     C_R   0.275616 0.945809 0.275616 0.557078
C147  C     C_R   0.673382 0.326618 0.892672 0.271167
C148  C     C_R   0.107328 0.673382 0.673382 0.271167
C149  C     C_R   0.326618 0.326618 0.107328 0.271167
C150  C     C_R   0.892672 0.326618 0.673382 0.271167
C151  C     C_R   0.673382 0.673382 0.107328 0.271167
C152  C     C_R   0.107328 0.326618 0.326618 0.271167
C153  C     C_R   0.326618 0.673382 0.892672 0.271167
C154  C     C_R   0.673382 0.892672 0.326618 0.271167
C155  C     C_R   0.673382 0.107328 0.673382 0.271167
C156  C     C_R   0.326618 0.107328 0.326618 0.271167
C157  C     C_R   0.275616 0.054191 0.724384 0.557078
C158  C     C_R   0.326618 0.892672 0.673382 0.271167
C159  C     C_R   0.275406 0.724594 0.981893 0.552619
C160  C     C_R   0.018107 0.275406 0.275406 0.552619
C161  C     C_R   0.724594 0.724594 0.018107 0.552619
C162  C     C_R   0.981893 0.275406 0.724594 0.552619
C163  C     C_R   0.275406 0.275406 0.018107 0.552619
C164  C     C_R   0.018107 0.724594 0.724594 0.552619
C165  C     C_R   0.724594 0.275406 0.981893 0.552619
C166  C     C_R   0.981893 0.724594 0.275406 0.552619
C167  C     C_R   0.275406 0.981893 0.724594 0.552619
C168  C     C_R   0.724384 0.775616 0.554191 0.557078
C169  C     C_R   0.275406 0.018107 0.275406 0.552619
C170  C     C_R   0.724594 0.018107 0.724594 0.552619
C171  C     C_R   0.724594 0.981893 0.275406 0.552619
C172  C     C_R   0.775406 0.224594 0.981893 0.552619
C173  C     C_R   0.018107 0.775406 0.775406 0.552619
C174  C     C_R   0.224594 0.224594 0.018107 0.552619
C175  C     C_R   0.981893 0.775406 0.224594 0.552619
C176  C     C_R   0.775406 0.775406 0.018107 0.552619
C177  C     C_R   0.018107 0.224594 0.224594 0.552619
C178  C     C_R   0.224594 0.775406 0.981893 0.552619
C179  C     C_R   0.445809 0.224384 0.724384 0.557078
C180  C     C_R   0.981893 0.224594 0.775406 0.552619
C181  C     C_R   0.775406 0.981893 0.224594 0.552619
C182  C     C_R   0.775406 0.018107 0.775406 0.552619
C183  C     C_R   0.224594 0.018107 0.224594 0.552619
C184  C     C_R   0.224594 0.981893 0.775406 0.552619
C185  C     C_R   0.775406 0.724594 0.481893 0.552619
C186  C     C_R   0.518107 0.275406 0.775406 0.552619
C187  C     C_R   0.224594 0.724594 0.518107 0.552619
C188  C     C_R   0.481893 0.275406 0.224594 0.552619
C189  C     C_R   0.775406 0.275406 0.518107 0.552619
C190  C     C_R   0.275616 0.775616 0.445809 0.557078
C191  C     C_R   0.518107 0.724594 0.224594 0.552619
C192  C     C_R   0.224594 0.275406 0.481893 0.552619
C193  C     C_R   0.481893 0.724594 0.775406 0.552619
C194  C     C_R   0.275406 0.481893 0.224594 0.552619
C195  C     C_R   0.724594 0.775406 0.481893 0.552619
C196  C     C_R   0.275406 0.518107 0.775406 0.552619
C197  C     C_R   0.724594 0.224594 0.518107 0.552619
C198  C     C_R   0.724594 0.518107 0.224594 0.552619
C199  C     C_R   0.275406 0.224594 0.481893 0.552619
C200  C     C_R   0.724594 0.481893 0.775406 0.552619
C201  C     C_R   0.554191 0.224384 0.275616 0.557078
C202  C     C_R   0.275406 0.775406 0.518107 0.552619
C203  C     C_R   0.518107 0.224594 0.724594 0.552619
C204  C     C_R   0.224594 0.481893 0.275406 0.552619
C205  C     C_R   0.481893 0.775406 0.724594 0.552619
C206  C     C_R   0.775406 0.518107 0.275406 0.552619
C207  C     C_R   0.481893 0.224594 0.275406 0.552619
C208  C     C_R   0.775406 0.481893 0.724594 0.552619
C209  C     C_R   0.518107 0.775406 0.275406 0.552619
C210  C     C_R   0.224594 0.518107 0.724594 0.552619
C211  C     C_R   0.331664 0.635443 0.168336 0.306535
C212  C     C_R   0.724384 0.224384 0.445809 0.557078
C213  C     C_R   0.831664 0.364557 0.331664 0.306535
C214  C     C_R   0.668336 0.635443 0.831664 0.306535
C215  C     C_R   0.168336 0.364557 0.668336 0.306535
C216  C     C_R   0.331664 0.364557 0.831664 0.306535
C217  C     C_R   0.831664 0.635443 0.668336 0.306535
C218  C     C_R   0.668336 0.364557 0.168336 0.306535
C219  C     C_R   0.168336 0.635443 0.331664 0.306535
C220  C     C_R   0.364557 0.168336 0.668336 0.306535
C221  C     C_R   0.635443 0.331664 0.168336 0.306535
C222  C     C_R   0.364557 0.831664 0.331664 0.306535
C223  C     C_R   0.775616 0.775616 0.945809 0.557078
C224  C     C_R   0.445809 0.775616 0.275616 0.557078
C225  C     C_R   0.635443 0.668336 0.831664 0.306535
C226  C     C_R   0.635443 0.831664 0.668336 0.306535
C227  C     C_R   0.364557 0.668336 0.168336 0.306535
C228  C     C_R   0.635443 0.168336 0.331664 0.306535
C229  C     C_R   0.364557 0.331664 0.831664 0.306535
C230  C     C_R   0.831664 0.668336 0.635443 0.306535
C231  C     C_R   0.668336 0.168336 0.364557 0.306535
C232  C     C_R   0.168336 0.331664 0.635443 0.306535
C233  C     C_R   0.331664 0.831664 0.364557 0.306535
C234  C     C_R   0.168336 0.668336 0.364557 0.306535
C235  C     C_R   0.275616 0.224384 0.554191 0.557078
C236  C     C_R   0.331664 0.168336 0.635443 0.306535
C237  C     C_R   0.831664 0.331664 0.364557 0.306535
C238  C     C_R   0.668336 0.831664 0.635443 0.306535
C239  C     C_R   0.831664 0.135443 0.168336 0.306535
C240  C     C_R   0.831664 0.864557 0.831664 0.306535
C241  C     C_R   0.168336 0.135443 0.831664 0.306535
C242  C     C_R   0.168336 0.864557 0.168336 0.306535
C243  C     C_R   0.864557 0.168336 0.168336 0.306535
C244  C     C_R   0.135443 0.831664 0.168336 0.306535
C245  C     C_R   0.864557 0.831664 0.831664 0.306535
C246  C     C_R   0.554191 0.775616 0.724384 0.557078
C247  C     C_R   0.135443 0.168336 0.831664 0.306535
C248  C     C_R   0.831664 0.168336 0.135443 0.306535
C249  C     C_R   0.168336 0.168336 0.864557 0.306535
C250  C     C_R   0.168336 0.831664 0.135443 0.306535
C251  C     C_R   0.831664 0.831664 0.864557 0.306535
C252  C     C_R   0.331664 0.135443 0.668336 0.306535
C253  C     C_R   0.331664 0.864557 0.331664 0.306535
C254  C     C_R   0.668336 0.135443 0.331664 0.306535
C255  C     C_R   0.668336 0.864557 0.668336 0.306535
C256  C     C_R   0.864557 0.668336 0.668336 0.306535
C257  C     C_R   0.224384 0.554191 0.275616 0.557078
C258  C     C_R   0.135443 0.331664 0.668336 0.306535
C259  C     C_R   0.864557 0.331664 0.331664 0.306535
C260  C     C_R   0.135443 0.668336 0.331664 0.306535
C261  C     C_R   0.331664 0.668336 0.135443 0.306535
C262  C     C_R   0.668336 0.668336 0.864557 0.306535
C263  C     C_R   0.668336 0.331664 0.135443 0.306535
C264  C     C_R   0.331664 0.331664 0.864557 0.306535
C265  C     C_R   0.328438 0.603118 0.205420 -0.117870
C266  C     C_R   0.794580 0.396882 0.328438 -0.117870
C267  C     C_R   0.671562 0.603118 0.794580 -0.117870
C268  C     C_R   0.775616 0.724384 0.554191 0.557078
C269  C     C_R   0.205420 0.396882 0.671562 -0.117870
C270  C     C_R   0.328438 0.396882 0.794580 -0.117870
C271  C     C_R   0.794580 0.603118 0.671562 -0.117870
C272  C     C_R   0.671562 0.396882 0.205420 -0.117870
C273  C     C_R   0.205420 0.603118 0.328438 -0.117870
C274  C     C_R   0.396882 0.205420 0.671562 -0.117870
C275  C     C_R   0.603118 0.328438 0.205420 -0.117870
C276  C     C_R   0.396882 0.794580 0.328438 -0.117870
C277  C     C_R   0.603118 0.671562 0.794580 -0.117870
C278  C     C_R   0.603118 0.794580 0.671562 -0.117870
C279  C     C_R   0.224384 0.445809 0.724384 0.557078
C280  C     C_R   0.396882 0.671562 0.205420 -0.117870
C281  C     C_R   0.603118 0.205420 0.328438 -0.117870
C282  C     C_R   0.396882 0.328438 0.794580 -0.117870
C283  C     C_R   0.794580 0.671562 0.603118 -0.117870
C284  C     C_R   0.671562 0.205420 0.396882 -0.117870
C285  C     C_R   0.205420 0.328438 0.603118 -0.117870
C286  C     C_R   0.328438 0.794580 0.396882 -0.117870
C287  C     C_R   0.205420 0.671562 0.396882 -0.117870
C288  C     C_R   0.328438 0.205420 0.603118 -0.117870
C289  C     C_R   0.794580 0.328438 0.396882 -0.117870
C290  C     C_R   0.775616 0.275616 0.445809 0.557078
C291  C     C_R   0.671562 0.794580 0.603118 -0.117870
C292  C     C_R   0.828438 0.103118 0.205420 -0.117870
C293  C     C_R   0.794580 0.896882 0.828438 -0.117870
C294  C     C_R   0.171562 0.103118 0.794580 -0.117870
C295  C     C_R   0.205420 0.896882 0.171562 -0.117870
C296  C     C_R   0.828438 0.896882 0.794580 -0.117870
C297  C     C_R   0.794580 0.103118 0.171562 -0.117870
C298  C     C_R   0.171562 0.896882 0.205420 -0.117870
C299  C     C_R   0.205420 0.103118 0.828438 -0.117870
C300  C     C_R   0.896882 0.205420 0.171562 -0.117870
C301  C     C_R   0.775616 0.445809 0.275616 0.557078
C302  C     C_R   0.103118 0.828438 0.205420 -0.117870
C303  C     C_R   0.896882 0.794580 0.828438 -0.117870
C304  C     C_R   0.103118 0.171562 0.794580 -0.117870
C305  C     C_R   0.103118 0.794580 0.171562 -0.117870
C306  C     C_R   0.896882 0.171562 0.205420 -0.117870
C307  C     C_R   0.103118 0.205420 0.828438 -0.117870
C308  C     C_R   0.896882 0.828438 0.794580 -0.117870
C309  C     C_R   0.794580 0.171562 0.103118 -0.117870
C310  C     C_R   0.171562 0.205420 0.896882 -0.117870
C311  C     C_R   0.205420 0.828438 0.103118 -0.117870
C312  C     C_R   0.224384 0.275616 0.554191 0.557078
C313  C     C_R   0.828438 0.794580 0.896882 -0.117870
C314  C     C_R   0.205420 0.171562 0.896882 -0.117870
C315  C     C_R   0.828438 0.205420 0.103118 -0.117870
C316  C     C_R   0.794580 0.828438 0.896882 -0.117870
C317  C     C_R   0.171562 0.794580 0.103118 -0.117870
C318  C     C_R   0.828438 0.603118 0.705420 -0.117870
C319  C     C_R   0.294580 0.396882 0.828438 -0.117870
C320  C     C_R   0.171562 0.603118 0.294580 -0.117870
C321  C     C_R   0.705420 0.396882 0.171562 -0.117870
C322  C     C_R   0.828438 0.396882 0.294580 -0.117870
C323  C     C_R   0.775616 0.554191 0.724384 0.557078
C324  C     C_R   0.294580 0.603118 0.171562 -0.117870
C325  C     C_R   0.171562 0.396882 0.705420 -0.117870
C326  C     C_R   0.705420 0.603118 0.828438 -0.117870
C327  C     C_R   0.396882 0.705420 0.171562 -0.117870
C328  C     C_R   0.603118 0.828438 0.705420 -0.117870
C329  C     C_R   0.396882 0.294580 0.828438 -0.117870
C330  C     C_R   0.603118 0.171562 0.294580 -0.117870
C331  C     C_R   0.603118 0.294580 0.171562 -0.117870
C332  C     C_R   0.396882 0.171562 0.705420 -0.117870
C333  C     C_R   0.603118 0.705420 0.828438 -0.117870
C334  C     C_R   0.054191 0.224384 0.775616 0.557078
C335  C     C_R   0.224384 0.724384 0.445809 0.557078
C336  C     C_R   0.396882 0.828438 0.294580 -0.117870
C337  C     C_R   0.294580 0.171562 0.603118 -0.117870
C338  C     C_R   0.171562 0.705420 0.396882 -0.117870
C339  C     C_R   0.705420 0.828438 0.603118 -0.117870
C340  C     C_R   0.828438 0.294580 0.396882 -0.117870
C341  C     C_R   0.705420 0.171562 0.396882 -0.117870
C342  C     C_R   0.828438 0.705420 0.603118 -0.117870
C343  C     C_R   0.294580 0.828438 0.396882 -0.117870
C344  C     C_R   0.171562 0.294580 0.603118 -0.117870
C345  C     C_R   0.328438 0.103118 0.705420 -0.117870
C346  C     C_R   0.445809 0.275616 0.775616 0.557078
C347  C     C_R   0.294580 0.896882 0.328438 -0.117870
C348  C     C_R   0.671562 0.103118 0.294580 -0.117870
C349  C     C_R   0.705420 0.896882 0.671562 -0.117870
C350  C     C_R   0.328438 0.896882 0.294580 -0.117870
C351  C     C_R   0.294580 0.103118 0.671562 -0.117870
C352  C     C_R   0.671562 0.896882 0.705420 -0.117870
C353  C     C_R   0.705420 0.103118 0.328438 -0.117870
C354  C     C_R   0.896882 0.705420 0.671562 -0.117870
C355  C     C_R   0.103118 0.328438 0.705420 -0.117870
C356  C     C_R   0.896882 0.294580 0.328438 -0.117870
C357  C     C_R   0.275616 0.554191 0.224384 0.557078
C358  C     C_R   0.103118 0.671562 0.294580 -0.117870
C359  C     C_R   0.103118 0.294580 0.671562 -0.117870
C360  C     C_R   0.896882 0.671562 0.705420 -0.117870
C361  C     C_R   0.103118 0.705420 0.328438 -0.117870
C362  C     C_R   0.896882 0.328438 0.294580 -0.117870
C363  C     C_R   0.294580 0.671562 0.103118 -0.117870
C364  C     C_R   0.671562 0.705420 0.896882 -0.117870
C365  C     C_R   0.705420 0.328438 0.103118 -0.117870
C366  C     C_R   0.328438 0.294580 0.896882 -0.117870
C367  C     C_R   0.705420 0.671562 0.896882 -0.117870
C368  C     C_R   0.554191 0.724384 0.775616 0.557078
C369  C     C_R   0.328438 0.705420 0.103118 -0.117870
C370  C     C_R   0.294580 0.328438 0.896882 -0.117870
C371  C     C_R   0.671562 0.294580 0.103118 -0.117870
C372  C     C_R   0.314629 0.583744 0.219220 -0.135208
C373  C     C_R   0.780780 0.416256 0.314629 -0.135208
C374  C     C_R   0.685371 0.583744 0.780780 -0.135208
C375  C     C_R   0.219220 0.416256 0.685371 -0.135208
C376  C     C_R   0.314629 0.416256 0.780780 -0.135208
C377  C     C_R   0.780780 0.583744 0.685371 -0.135208
C378  C     C_R   0.685371 0.416256 0.219220 -0.135208
C379  C     C_R   0.724384 0.445809 0.224384 0.557078
C380  C     C_R   0.219220 0.583744 0.314629 -0.135208
C381  C     C_R   0.416256 0.219220 0.685371 -0.135208
C382  C     C_R   0.583744 0.314629 0.219220 -0.135208
C383  C     C_R   0.416256 0.780780 0.314629 -0.135208
C384  C     C_R   0.583744 0.685371 0.780780 -0.135208
C385  C     C_R   0.583744 0.780780 0.685371 -0.135208
C386  C     C_R   0.416256 0.685371 0.219220 -0.135208
C387  C     C_R   0.583744 0.219220 0.314629 -0.135208
C388  C     C_R   0.416256 0.314629 0.780780 -0.135208
C389  C     C_R   0.780780 0.685371 0.583744 -0.135208
C390  C     C_R   0.554191 0.275616 0.224384 0.557078
C391  C     C_R   0.685371 0.219220 0.416256 -0.135208
C392  C     C_R   0.219220 0.314629 0.583744 -0.135208
C393  C     C_R   0.314629 0.780780 0.416256 -0.135208
C394  C     C_R   0.219220 0.685371 0.416256 -0.135208
C395  C     C_R   0.314629 0.219220 0.583744 -0.135208
C396  C     C_R   0.780780 0.314629 0.416256 -0.135208
C397  C     C_R   0.685371 0.780780 0.583744 -0.135208
C398  C     C_R   0.814629 0.083744 0.219220 -0.135208
C399  C     C_R   0.780780 0.916256 0.814629 -0.135208
C400  C     C_R   0.185371 0.083744 0.780780 -0.135208
C401  C     C_R   0.724384 0.554191 0.775616 0.557078
C402  C     C_R   0.219220 0.916256 0.185371 -0.135208
C403  C     C_R   0.814629 0.916256 0.780780 -0.135208
C404  C     C_R   0.780780 0.083744 0.185371 -0.135208
C405  C     C_R   0.185371 0.916256 0.219220 -0.135208
C406  C     C_R   0.219220 0.083744 0.814629 -0.135208
C407  C     C_R   0.916256 0.219220 0.185371 -0.135208
C408  C     C_R   0.083744 0.814629 0.219220 -0.135208
C409  C     C_R   0.916256 0.780780 0.814629 -0.135208
C410  C     C_R   0.083744 0.185371 0.780780 -0.135208
C411  C     C_R   0.083744 0.780780 0.185371 -0.135208
C412  C     C_R   0.445809 0.724384 0.224384 0.557078
C413  C     C_R   0.916256 0.185371 0.219220 -0.135208
C414  C     C_R   0.083744 0.219220 0.814629 -0.135208
C415  C     C_R   0.916256 0.814629 0.780780 -0.135208
C416  C     C_R   0.780780 0.185371 0.083744 -0.135208
C417  C     C_R   0.185371 0.219220 0.916256 -0.135208
C418  C     C_R   0.219220 0.814629 0.083744 -0.135208
C419  C     C_R   0.814629 0.780780 0.916256 -0.135208
C420  C     C_R   0.219220 0.185371 0.916256 -0.135208
C421  C     C_R   0.814629 0.219220 0.083744 -0.135208
C422  C     C_R   0.780780 0.814629 0.916256 -0.135208
C423  C     C_R   0.275616 0.445809 0.775616 0.557078
C424  C     C_R   0.185371 0.780780 0.083744 -0.135208
C425  C     C_R   0.814629 0.583744 0.719220 -0.135208
C426  C     C_R   0.280780 0.416256 0.814629 -0.135208
C427  C     C_R   0.185371 0.583744 0.280780 -0.135208
C428  C     C_R   0.719220 0.416256 0.185371 -0.135208
C429  C     C_R   0.814629 0.416256 0.280780 -0.135208
C430  C     C_R   0.280780 0.583744 0.185371 -0.135208
C431  C     C_R   0.185371 0.416256 0.719220 -0.135208
C432  C     C_R   0.719220 0.583744 0.814629 -0.135208
C433  C     C_R   0.416256 0.719220 0.185371 -0.135208
C434  C     C_R   0.459929 0.710783 0.789217 0.012220
C435  C     C_R   0.583744 0.814629 0.719220 -0.135208
C436  C     C_R   0.416256 0.280780 0.814629 -0.135208
C437  C     C_R   0.583744 0.185371 0.280780 -0.135208
C438  C     C_R   0.583744 0.280780 0.185371 -0.135208
C439  C     C_R   0.416256 0.185371 0.719220 -0.135208
C440  C     C_R   0.583744 0.719220 0.814629 -0.135208
C441  C     C_R   0.416256 0.814629 0.280780 -0.135208
C442  C     C_R   0.280780 0.185371 0.583744 -0.135208
C443  C     C_R   0.185371 0.719220 0.416256 -0.135208
C444  C     C_R   0.719220 0.814629 0.583744 -0.135208
C445  C     C_R   0.224384 0.224384 0.945809 0.557078
C446  C     C_R   0.210783 0.289217 0.459929 0.012220
C447  C     C_R   0.814629 0.280780 0.416256 -0.135208
C448  C     C_R   0.719220 0.185371 0.416256 -0.135208
C449  C     C_R   0.814629 0.719220 0.583744 -0.135208
C450  C     C_R   0.280780 0.814629 0.416256 -0.135208
C451  C     C_R   0.185371 0.280780 0.583744 -0.135208
C452  C     C_R   0.314629 0.083744 0.719220 -0.135208
C453  C     C_R   0.280780 0.916256 0.314629 -0.135208
C454  C     C_R   0.685371 0.083744 0.280780 -0.135208
C455  C     C_R   0.719220 0.916256 0.685371 -0.135208
C456  C     C_R   0.314629 0.916256 0.280780 -0.135208
C457  C     C_R   0.540071 0.710783 0.210783 0.012220
C458  C     C_R   0.280780 0.083744 0.685371 -0.135208
C459  C     C_R   0.685371 0.916256 0.719220 -0.135208
C460  C     C_R   0.719220 0.083744 0.314629 -0.135208
C461  C     C_R   0.916256 0.719220 0.685371 -0.135208
C462  C     C_R   0.083744 0.314629 0.719220 -0.135208
C463  C     C_R   0.916256 0.280780 0.314629 -0.135208
C464  C     C_R   0.083744 0.685371 0.280780 -0.135208
C465  C     C_R   0.083744 0.280780 0.685371 -0.135208
C466  C     C_R   0.916256 0.685371 0.719220 -0.135208
C467  C     C_R   0.083744 0.719220 0.314629 -0.135208
C468  C     C_R   0.789217 0.289217 0.540071 0.012220
C469  C     C_R   0.916256 0.314629 0.280780 -0.135208
C470  C     C_R   0.280780 0.685371 0.083744 -0.135208
C471  C     C_R   0.685371 0.719220 0.916256 -0.135208
C472  C     C_R   0.719220 0.314629 0.083744 -0.135208
C473  C     C_R   0.314629 0.280780 0.916256 -0.135208
C474  C     C_R   0.719220 0.685371 0.916256 -0.135208
C475  C     C_R   0.314629 0.719220 0.083744 -0.135208
C476  C     C_R   0.280780 0.314629 0.916256 -0.135208
C477  C     C_R   0.685371 0.280780 0.083744 -0.135208
C478  C     C_R   0.290520 0.574139 0.209480 0.015249
C479  C     C_R   0.459929 0.289217 0.210783 0.012220
C480  C     C_R   0.790520 0.425861 0.290520 0.015249
C481  C     C_R   0.709480 0.574139 0.790520 0.015249
C482  C     C_R   0.209480 0.425861 0.709480 0.015249
C483  C     C_R   0.290520 0.425861 0.790520 0.015249
C484  C     C_R   0.790520 0.574139 0.709480 0.015249
C485  C     C_R   0.709480 0.425861 0.209480 0.015249
C486  C     C_R   0.209480 0.574139 0.290520 0.015249
C487  C     C_R   0.425861 0.209480 0.709480 0.015249
C488  C     C_R   0.574139 0.290520 0.209480 0.015249
C489  C     C_R   0.425861 0.790520 0.290520 0.015249
C490  C     C_R   0.210783 0.710783 0.540071 0.012220
C491  C     C_R   0.574139 0.709480 0.790520 0.015249
C492  C     C_R   0.574139 0.790520 0.709480 0.015249
C493  C     C_R   0.425861 0.709480 0.209480 0.015249
C494  C     C_R   0.574139 0.209480 0.290520 0.015249
C495  C     C_R   0.425861 0.290520 0.790520 0.015249
C496  C     C_R   0.790520 0.709480 0.574139 0.015249
C497  C     C_R   0.709480 0.209480 0.425861 0.015249
C498  C     C_R   0.209480 0.290520 0.574139 0.015249
C499  C     C_R   0.290520 0.790520 0.425861 0.015249
C500  C     C_R   0.209480 0.709480 0.425861 0.015249
C501  C     C_R   0.540071 0.289217 0.789217 0.012220
C502  C     C_R   0.290520 0.209480 0.574139 0.015249
C503  C     C_R   0.790520 0.290520 0.425861 0.015249
C504  C     C_R   0.709480 0.790520 0.574139 0.015249
C505  C     C_R   0.790520 0.074139 0.209480 0.015249
C506  C     C_R   0.790520 0.925861 0.790520 0.015249
C507  C     C_R   0.209480 0.074139 0.790520 0.015249
C508  C     C_R   0.209480 0.925861 0.209480 0.015249
C509  C     C_R   0.925861 0.209480 0.209480 0.015249
C510  C     C_R   0.074139 0.790520 0.209480 0.015249
C511  C     C_R   0.925861 0.790520 0.790520 0.015249
C512  C     C_R   0.789217 0.710783 0.459929 0.012220
C513  C     C_R   0.074139 0.209480 0.790520 0.015249
C514  C     C_R   0.790520 0.209480 0.074139 0.015249
C515  C     C_R   0.209480 0.209480 0.925861 0.015249
C516  C     C_R   0.209480 0.790520 0.074139 0.015249
C517  C     C_R   0.790520 0.790520 0.925861 0.015249
C518  C     C_R   0.290520 0.074139 0.709480 0.015249
C519  C     C_R   0.290520 0.925861 0.290520 0.015249
C520  C     C_R   0.709480 0.074139 0.290520 0.015249
C521  C     C_R   0.709480 0.925861 0.709480 0.015249
C522  C     C_R   0.925861 0.709480 0.709480 0.015249
C523  C     C_R   0.289217 0.789217 0.540071 0.012220
C524  C     C_R   0.074139 0.290520 0.709480 0.015249
C525  C     C_R   0.925861 0.290520 0.290520 0.015249
C526  C     C_R   0.074139 0.709480 0.290520 0.015249
C527  C     C_R   0.290520 0.709480 0.074139 0.015249
C528  C     C_R   0.709480 0.709480 0.925861 0.015249
C529  C     C_R   0.709480 0.290520 0.074139 0.015249
C530  C     C_R   0.290520 0.290520 0.925861 0.015249
C531  C     C_R   0.318361 0.613261 0.181639 0.061019
C532  C     C_R   0.818361 0.386739 0.318361 0.061019
C533  C     C_R   0.681639 0.613261 0.818361 0.061019
C534  C     C_R   0.710783 0.459929 0.789217 0.012220
C535  C     C_R   0.181639 0.386739 0.681639 0.061019
C536  C     C_R   0.318361 0.386739 0.818361 0.061019
C537  C     C_R   0.818361 0.613261 0.681639 0.061019
C538  C     C_R   0.681639 0.386739 0.181639 0.061019
C539  C     C_R   0.181639 0.613261 0.318361 0.061019
C540  C     C_R   0.386739 0.181639 0.681639 0.061019
C541  C     C_R   0.613261 0.318361 0.181639 0.061019
C542  C     C_R   0.386739 0.818361 0.318361 0.061019
C543  C     C_R   0.613261 0.681639 0.818361 0.061019
C544  C     C_R   0.613261 0.818361 0.681639 0.061019
C545  C     C_R   0.289217 0.210783 0.459929 0.012220
C546  C     C_R   0.386739 0.681639 0.181639 0.061019
C547  C     C_R   0.613261 0.181639 0.318361 0.061019
C548  C     C_R   0.386739 0.318361 0.818361 0.061019
C549  C     C_R   0.818361 0.681639 0.613261 0.061019
C550  C     C_R   0.681639 0.181639 0.386739 0.061019
C551  C     C_R   0.181639 0.318361 0.613261 0.061019
C552  C     C_R   0.318361 0.818361 0.386739 0.061019
C553  C     C_R   0.181639 0.681639 0.386739 0.061019
C554  C     C_R   0.318361 0.181639 0.613261 0.061019
C555  C     C_R   0.818361 0.318361 0.386739 0.061019
C556  C     C_R   0.945809 0.775616 0.775616 0.557078
C557  C     C_R   0.710783 0.540071 0.210783 0.012220
C558  C     C_R   0.681639 0.818361 0.613261 0.061019
C559  C     C_R   0.818361 0.113261 0.181639 0.061019
C560  C     C_R   0.818361 0.886739 0.818361 0.061019
C561  C     C_R   0.181639 0.113261 0.818361 0.061019
C562  C     C_R   0.181639 0.886739 0.181639 0.061019
C563  C     C_R   0.886739 0.181639 0.181639 0.061019
C564  C     C_R   0.113261 0.818361 0.181639 0.061019
C565  C     C_R   0.886739 0.818361 0.818361 0.061019
C566  C     C_R   0.113261 0.181639 0.818361 0.061019
C567  C     C_R   0.818361 0.181639 0.113261 0.061019
C568  C     C_R   0.710783 0.210783 0.540071 0.012220
C569  C     C_R   0.181639 0.181639 0.886739 0.061019
C570  C     C_R   0.181639 0.818361 0.113261 0.061019
C571  C     C_R   0.818361 0.818361 0.886739 0.061019
C572  C     C_R   0.318361 0.113261 0.681639 0.061019
C573  C     C_R   0.318361 0.886739 0.318361 0.061019
C574  C     C_R   0.681639 0.113261 0.318361 0.061019
C575  C     C_R   0.681639 0.886739 0.681639 0.061019
C576  C     C_R   0.886739 0.681639 0.681639 0.061019
C577  C     C_R   0.113261 0.318361 0.681639 0.061019
C578  C     C_R   0.886739 0.318361 0.318361 0.061019
C579  C     C_R   0.289217 0.540071 0.789217 0.012220
C580  C     C_R   0.113261 0.681639 0.318361 0.061019
C581  C     C_R   0.318361 0.681639 0.113261 0.061019
C582  C     C_R   0.681639 0.681639 0.886739 0.061019
C583  C     C_R   0.681639 0.318361 0.113261 0.061019
C584  C     C_R   0.318361 0.318361 0.886739 0.061019
C585  C     C_R   0.427451 0.675208 0.791019 -0.112930
C586  C     C_R   0.208981 0.324792 0.427451 -0.112930
C587  C     C_R   0.572549 0.675208 0.208981 -0.112930
C588  C     C_R   0.791019 0.324792 0.572549 -0.112930
C589  C     C_R   0.427451 0.324792 0.208981 -0.112930
C590  C     C_R   0.710783 0.789217 0.459929 0.012220
C591  C     C_R   0.208981 0.675208 0.572549 -0.112930
C592  C     C_R   0.572549 0.324792 0.791019 -0.112930
C593  C     C_R   0.791019 0.675208 0.427451 -0.112930
C594  C     C_R   0.324792 0.791019 0.572549 -0.112930
C595  C     C_R   0.675208 0.427451 0.791019 -0.112930
C596  C     C_R   0.324792 0.208981 0.427451 -0.112930
C597  C     C_R   0.675208 0.572549 0.208981 -0.112930
C598  C     C_R   0.675208 0.208981 0.572549 -0.112930
C599  C     C_R   0.324792 0.572549 0.791019 -0.112930
C600  C     C_R   0.675208 0.791019 0.427451 -0.112930
C601  C     C_R   0.289217 0.459929 0.210783 0.012220
C602  C     C_R   0.324792 0.427451 0.208981 -0.112930
C603  C     C_R   0.208981 0.572549 0.675208 -0.112930
C604  C     C_R   0.572549 0.791019 0.324792 -0.112930
C605  C     C_R   0.791019 0.427451 0.675208 -0.112930
C606  C     C_R   0.427451 0.208981 0.324792 -0.112930
C607  C     C_R   0.791019 0.572549 0.324792 -0.112930
C608  C     C_R   0.427451 0.791019 0.675208 -0.112930
C609  C     C_R   0.208981 0.427451 0.324792 -0.112930
C610  C     C_R   0.572549 0.208981 0.675208 -0.112930
C611  C     C_R   0.927451 0.175208 0.791019 -0.112930
C612  C     C_R   0.210783 0.540071 0.710783 0.012220
C613  C     C_R   0.208981 0.824792 0.927451 -0.112930
C614  C     C_R   0.072549 0.175208 0.208981 -0.112930
C615  C     C_R   0.791019 0.824792 0.072549 -0.112930
C616  C     C_R   0.927451 0.824792 0.208981 -0.112930
C617  C     C_R   0.208981 0.175208 0.072549 -0.112930
C618  C     C_R   0.072549 0.824792 0.791019 -0.112930
C619  C     C_R   0.791019 0.175208 0.927451 -0.112930
C620  C     C_R   0.824792 0.791019 0.072549 -0.112930
C621  C     C_R   0.175208 0.927451 0.791019 -0.112930
C622  C     C_R   0.824792 0.208981 0.927451 -0.112930
C623  C     C_R   0.540071 0.789217 0.289217 0.012220
C624  C     C_R   0.175208 0.072549 0.208981 -0.112930
C625  C     C_R   0.175208 0.208981 0.072549 -0.112930
C626  C     C_R   0.824792 0.072549 0.791019 -0.112930
C627  C     C_R   0.175208 0.791019 0.927451 -0.112930
C628  C     C_R   0.824792 0.927451 0.208981 -0.112930
C629  C     C_R   0.208981 0.072549 0.175208 -0.112930
C630  C     C_R   0.072549 0.791019 0.824792 -0.112930
C631  C     C_R   0.791019 0.927451 0.175208 -0.112930
C632  C     C_R   0.927451 0.208981 0.824792 -0.112930
C633  C     C_R   0.791019 0.072549 0.824792 -0.112930
C634  C     C_R   0.789217 0.459929 0.710783 0.012220
C635  C     C_R   0.927451 0.791019 0.175208 -0.112930
C636  C     C_R   0.208981 0.927451 0.824792 -0.112930
C637  C     C_R   0.072549 0.208981 0.175208 -0.112930
C638  C     C_R   0.927451 0.675208 0.291019 -0.112930
C639  C     C_R   0.708981 0.324792 0.927451 -0.112930
C640  C     C_R   0.072549 0.675208 0.708981 -0.112930
C641  C     C_R   0.291019 0.324792 0.072549 -0.112930
C642  C     C_R   0.927451 0.324792 0.708981 -0.112930
C643  C     C_R   0.708981 0.675208 0.072549 -0.112930
C644  C     C_R   0.072549 0.324792 0.291019 -0.112930
C645  C     C_R   0.459929 0.210783 0.289217 0.012220
C646  C     C_R   0.291019 0.675208 0.927451 -0.112930
C647  C     C_R   0.324792 0.291019 0.072549 -0.112930
C648  C     C_R   0.675208 0.927451 0.291019 -0.112930
C649  C     C_R   0.324792 0.708981 0.927451 -0.112930
C650  C     C_R   0.675208 0.072549 0.708981 -0.112930
C651  C     C_R   0.675208 0.708981 0.072549 -0.112930
C652  C     C_R   0.324792 0.072549 0.291019 -0.112930
C653  C     C_R   0.675208 0.291019 0.927451 -0.112930
C654  C     C_R   0.324792 0.927451 0.708981 -0.112930
C655  C     C_R   0.708981 0.072549 0.675208 -0.112930
C656  C     C_R   0.789217 0.540071 0.289217 0.012220
C657  C     C_R   0.072549 0.291019 0.324792 -0.112930
C658  C     C_R   0.291019 0.927451 0.675208 -0.112930
C659  C     C_R   0.927451 0.708981 0.324792 -0.112930
C660  C     C_R   0.291019 0.072549 0.324792 -0.112930
C661  C     C_R   0.927451 0.291019 0.675208 -0.112930
C662  C     C_R   0.708981 0.927451 0.324792 -0.112930
C663  C     C_R   0.072549 0.708981 0.675208 -0.112930
C664  C     C_R   0.427451 0.175208 0.291019 -0.112930
C665  C     C_R   0.708981 0.824792 0.427451 -0.112930
C666  C     C_R   0.572549 0.175208 0.708981 -0.112930
C667  C     C_R   0.775616 0.224384 0.054191 0.557078
C668  C     C_R   0.459929 0.789217 0.710783 0.012220
C669  C     C_R   0.291019 0.824792 0.572549 -0.112930
C670  C     C_R   0.427451 0.824792 0.708981 -0.112930
C671  C     C_R   0.708981 0.175208 0.572549 -0.112930
C672  C     C_R   0.572549 0.824792 0.291019 -0.112930
C673  C     C_R   0.291019 0.175208 0.427451 -0.112930
C674  C     C_R   0.824792 0.291019 0.572549 -0.112930
C675  C     C_R   0.175208 0.427451 0.291019 -0.112930
C676  C     C_R   0.824792 0.708981 0.427451 -0.112930
C677  C     C_R   0.175208 0.572549 0.708981 -0.112930
C678  C     C_R   0.175208 0.708981 0.572549 -0.112930
C679  C     C_R   0.210783 0.459929 0.289217 0.012220
C680  C     C_R   0.824792 0.572549 0.291019 -0.112930
C681  C     C_R   0.175208 0.291019 0.427451 -0.112930
C682  C     C_R   0.824792 0.427451 0.708981 -0.112930
C683  C     C_R   0.708981 0.572549 0.175208 -0.112930
C684  C     C_R   0.572549 0.291019 0.824792 -0.112930
C685  C     C_R   0.291019 0.427451 0.175208 -0.112930
C686  C     C_R   0.427451 0.708981 0.824792 -0.112930
C687  C     C_R   0.291019 0.572549 0.824792 -0.112930
C688  C     C_R   0.427451 0.291019 0.175208 -0.112930
C689  C     C_R   0.708981 0.427451 0.824792 -0.112930
C690  C     C_R   0.540071 0.210783 0.710783 0.012220
C691  C     C_R   0.572549 0.708981 0.175208 -0.112930
C692  C     C_R   0.449006 0.687486 0.778747 -0.133568
C693  C     C_R   0.221253 0.312514 0.449006 -0.133568
C694  C     C_R   0.550994 0.687486 0.221253 -0.133568
C695  C     C_R   0.778747 0.312514 0.550994 -0.133568
C696  C     C_R   0.449006 0.312514 0.221253 -0.133568
C697  C     C_R   0.221253 0.687486 0.550994 -0.133568
C698  C     C_R   0.550994 0.312514 0.778747 -0.133568
C699  C     C_R   0.778747 0.687486 0.449006 -0.133568
C700  C     C_R   0.312514 0.778747 0.550994 -0.133568
C701  C     C_R   0.959929 0.210783 0.789217 0.012220
C702  C     C_R   0.687486 0.449006 0.778747 -0.133568
C703  C     C_R   0.312514 0.221253 0.449006 -0.133568
C704  C     C_R   0.687486 0.550994 0.221253 -0.133568
C705  C     C_R   0.687486 0.221253 0.550994 -0.133568
C706  C     C_R   0.312514 0.550994 0.778747 -0.133568
C707  C     C_R   0.687486 0.778747 0.449006 -0.133568
C708  C     C_R   0.312514 0.449006 0.221253 -0.133568
C709  C     C_R   0.221253 0.550994 0.687486 -0.133568
C710  C     C_R   0.550994 0.778747 0.312514 -0.133568
C711  C     C_R   0.778747 0.449006 0.687486 -0.133568
C712  C     C_R   0.210783 0.789217 0.959929 0.012220
C713  C     C_R   0.449006 0.221253 0.312514 -0.133568
C714  C     C_R   0.778747 0.550994 0.312514 -0.133568
C715  C     C_R   0.449006 0.778747 0.687486 -0.133568
C716  C     C_R   0.221253 0.449006 0.312514 -0.133568
C717  C     C_R   0.550994 0.221253 0.687486 -0.133568
C718  C     C_R   0.949006 0.187486 0.778747 -0.133568
C719  C     C_R   0.221253 0.812514 0.949006 -0.133568
C720  C     C_R   0.050994 0.187486 0.221253 -0.133568
C721  C     C_R   0.778747 0.812514 0.050994 -0.133568
C722  C     C_R   0.949006 0.812514 0.221253 -0.133568
C723  C     C_R   0.040071 0.210783 0.210783 0.012220
C724  C     C_R   0.221253 0.187486 0.050994 -0.133568
C725  C     C_R   0.050994 0.812514 0.778747 -0.133568
C726  C     C_R   0.778747 0.187486 0.949006 -0.133568
C727  C     C_R   0.812514 0.778747 0.050994 -0.133568
C728  C     C_R   0.187486 0.949006 0.778747 -0.133568
C729  C     C_R   0.812514 0.221253 0.949006 -0.133568
C730  C     C_R   0.187486 0.050994 0.221253 -0.133568
C731  C     C_R   0.187486 0.221253 0.050994 -0.133568
C732  C     C_R   0.812514 0.050994 0.778747 -0.133568
C733  C     C_R   0.187486 0.778747 0.949006 -0.133568
C734  C     C_R   0.789217 0.789217 0.040071 0.012220
C735  C     C_R   0.812514 0.949006 0.221253 -0.133568
C736  C     C_R   0.221253 0.050994 0.187486 -0.133568
C737  C     C_R   0.050994 0.778747 0.812514 -0.133568
C738  C     C_R   0.778747 0.949006 0.187486 -0.133568
C739  C     C_R   0.949006 0.221253 0.812514 -0.133568
C740  C     C_R   0.778747 0.050994 0.812514 -0.133568
C741  C     C_R   0.949006 0.778747 0.187486 -0.133568
C742  C     C_R   0.221253 0.949006 0.812514 -0.133568
C743  C     C_R   0.050994 0.221253 0.187486 -0.133568
C744  C     C_R   0.949006 0.687486 0.278747 -0.133568
C745  C     C_R   0.959929 0.789217 0.210783 0.012220
C746  C     C_R   0.721253 0.312514 0.949006 -0.133568
C747  C     C_R   0.050994 0.687486 0.721253 -0.133568
C748  C     C_R   0.278747 0.312514 0.050994 -0.133568
C749  C     C_R   0.949006 0.312514 0.721253 -0.133568
C750  C     C_R   0.721253 0.687486 0.050994 -0.133568
C751  C     C_R   0.050994 0.312514 0.278747 -0.133568
C752  C     C_R   0.278747 0.687486 0.949006 -0.133568
C753  C     C_R   0.312514 0.278747 0.050994 -0.133568
C754  C     C_R   0.687486 0.949006 0.278747 -0.133568
C755  C     C_R   0.312514 0.721253 0.949006 -0.133568
C756  C     C_R   0.210783 0.210783 0.040071 0.012220
C757  C     C_R   0.687486 0.050994 0.721253 -0.133568
C758  C     C_R   0.687486 0.721253 0.050994 -0.133568
C759  C     C_R   0.312514 0.050994 0.278747 -0.133568
C760  C     C_R   0.687486 0.278747 0.949006 -0.133568
C761  C     C_R   0.312514 0.949006 0.721253 -0.133568
C762  C     C_R   0.721253 0.050994 0.687486 -0.133568
C763  C     C_R   0.050994 0.278747 0.312514 -0.133568
C764  C     C_R   0.278747 0.949006 0.687486 -0.133568
C765  C     C_R   0.949006 0.721253 0.312514 -0.133568
C766  C     C_R   0.278747 0.050994 0.312514 -0.133568
C767  C     C_R   0.040071 0.789217 0.789217 0.012220
C768  C     C_R   0.949006 0.278747 0.687486 -0.133568
C769  C     C_R   0.721253 0.949006 0.312514 -0.133568
C770  C     C_R   0.050994 0.721253 0.687486 -0.133568
C771  C     C_R   0.449006 0.187486 0.278747 -0.133568
C772  C     C_R   0.721253 0.812514 0.449006 -0.133568
C773  C     C_R   0.550994 0.187486 0.721253 -0.133568
C774  C     C_R   0.278747 0.812514 0.550994 -0.133568
C775  C     C_R   0.449006 0.812514 0.721253 -0.133568
C776  C     C_R   0.721253 0.187486 0.550994 -0.133568
C777  C     C_R   0.550994 0.812514 0.278747 -0.133568
C778  C     C_R   0.054191 0.775616 0.224384 0.557078
C779  C     C_R   0.789217 0.210783 0.959929 0.012220
C780  C     C_R   0.278747 0.187486 0.449006 -0.133568
C781  C     C_R   0.812514 0.278747 0.550994 -0.133568
C782  C     C_R   0.187486 0.449006 0.278747 -0.133568
C783  C     C_R   0.812514 0.721253 0.449006 -0.133568
C784  C     C_R   0.187486 0.550994 0.721253 -0.133568
C785  C     C_R   0.187486 0.721253 0.550994 -0.133568
C786  C     C_R   0.812514 0.550994 0.278747 -0.133568
C787  C     C_R   0.187486 0.278747 0.449006 -0.133568
C788  C     C_R   0.812514 0.449006 0.721253 -0.133568
C789  C     C_R   0.721253 0.550994 0.187486 -0.133568
C790  C     C_R   0.210783 0.959929 0.789217 0.012220
C791  C     C_R   0.550994 0.278747 0.812514 -0.133568
C792  C     C_R   0.278747 0.449006 0.187486 -0.133568
C793  C     C_R   0.449006 0.721253 0.812514 -0.133568
C794  C     C_R   0.278747 0.550994 0.812514 -0.133568
C795  C     C_R   0.449006 0.278747 0.187486 -0.133568
C796  C     C_R   0.721253 0.449006 0.812514 -0.133568
C797  C     C_R   0.550994 0.721253 0.187486 -0.133568
C798  C     C_R   0.210783 0.040071 0.210783 0.012220
C799  C     C_R   0.789217 0.040071 0.789217 0.012220
C800  C     C_R   0.789217 0.959929 0.210783 0.012220
C801  C     C_R   0.959929 0.710783 0.289217 0.012220
C802  C     C_R   0.710783 0.289217 0.959929 0.012220
C803  C     C_R   0.040071 0.710783 0.710783 0.012220
C804  C     C_R   0.289217 0.289217 0.040071 0.012220
C805  C     C_R   0.959929 0.289217 0.710783 0.012220
C806  C     C_R   0.224384 0.054191 0.775616 0.557078
C807  C     C_R   0.710783 0.710783 0.040071 0.012220
C808  C     C_R   0.040071 0.289217 0.289217 0.012220
C809  C     C_R   0.289217 0.710783 0.959929 0.012220
C810  C     C_R   0.710783 0.959929 0.289217 0.012220
C811  C     C_R   0.710783 0.040071 0.710783 0.012220
C812  C     C_R   0.289217 0.040071 0.289217 0.012220
C813  C     C_R   0.289217 0.959929 0.710783 0.012220
C814  C     C_R   0.416221 0.685899 0.814101 0.058897
C815  C     C_R   0.185899 0.314101 0.416221 0.058897
C816  C     C_R   0.583779 0.685899 0.185899 0.058897
Cu1   Cu    Cu3+1 0.231590 0.731590 0.018360 0.927210
Cu2   Cu    Cu3+1 0.731590 0.231590 0.018360 0.927210
Cu3   Cu    Cu3+1 0.268410 0.981640 0.231590 0.927210
Cu4   Cu    Cu3+1 0.731590 0.768410 0.981640 0.927210
Cu5   Cu    Cu3+1 0.731590 0.981640 0.768410 0.927210
Cu6   Cu    Cu3+1 0.268410 0.768410 0.018360 0.927210
Cu7   Cu    Cu3+1 0.731590 0.018360 0.231590 0.927210
Cu8   Cu    Cu3+1 0.268410 0.231590 0.981640 0.927210
Cu9   Cu    Cu3+1 0.981640 0.768410 0.731590 0.927210
Cu10  Cu    Cu3+1 0.768410 0.018360 0.268410 0.927210
Cu11  Cu    Cu3+1 0.018360 0.231590 0.731590 0.927210
Cu12  Cu    Cu3+1 0.981640 0.268410 0.231590 0.927210
Cu13  Cu    Cu3+1 0.231590 0.981640 0.268410 0.927210
Cu14  Cu    Cu3+1 0.018360 0.768410 0.268410 0.927210
Cu15  Cu    Cu3+1 0.231590 0.018360 0.731590 0.927210
Cu16  Cu    Cu3+1 0.981640 0.231590 0.268410 0.927210
Cu17  Cu    Cu3+1 0.768410 0.981640 0.731590 0.927210
Cu18  Cu    Cu3+1 0.731590 0.731590 0.518360 0.927210
Cu19  Cu    Cu3+1 0.481640 0.268410 0.731590 0.927210
Cu20  Cu    Cu3+1 0.268410 0.731590 0.481640 0.927210
Cu21  Cu    Cu3+1 0.518360 0.268410 0.268410 0.927210
Cu22  Cu    Cu3+1 0.731590 0.268410 0.481640 0.927210
Cu23  Cu    Cu3+1 0.768410 0.731590 0.981640 0.927210
Cu24  Cu    Cu3+1 0.481640 0.731590 0.268410 0.927210
Cu25  Cu    Cu3+1 0.268410 0.268410 0.518360 0.927210
Cu26  Cu    Cu3+1 0.518360 0.731590 0.731590 0.927210
Cu27  Cu    Cu3+1 0.268410 0.518360 0.268410 0.927210
Cu28  Cu    Cu3+1 0.268410 0.481640 0.731590 0.927210
Cu29  Cu    Cu3+1 0.731590 0.481640 0.268410 0.927210
Cu30  Cu    Cu3+1 0.731590 0.518360 0.731590 0.927210
Cu31  Cu    Cu3+1 0.231590 0.231590 0.518360 0.927210
Cu32  Cu    Cu3+1 0.481640 0.768410 0.231590 0.927210
Cu33  Cu    Cu3+1 0.768410 0.231590 0.481640 0.927210
Cu34  Cu    Cu3+1 0.018360 0.268410 0.768410 0.927210
Cu35  Cu    Cu3+1 0.518360 0.768410 0.768410 0.927210
Cu36  Cu    Cu3+1 0.231590 0.768410 0.481640 0.927210
Cu37  Cu    Cu3+1 0.481640 0.231590 0.768410 0.927210
Cu38  Cu    Cu3+1 0.768410 0.768410 0.518360 0.927210
Cu39  Cu    Cu3+1 0.518360 0.231590 0.231590 0.927210
Cu40  Cu    Cu3+1 0.768410 0.518360 0.768410 0.927210
Cu41  Cu    Cu3+1 0.768410 0.481640 0.231590 0.927210
Cu42  Cu    Cu3+1 0.231590 0.481640 0.768410 0.927210
Cu43  Cu    Cu3+1 0.231590 0.518360 0.231590 0.927210
Cu44  Cu    Cu3+1 0.231590 0.268410 0.981640 0.927210
Cu45  Cu    Cu3+1 0.981640 0.731590 0.768410 0.927210
Cu46  Cu    Cu3+1 0.768410 0.268410 0.018360 0.927210
Cu47  Cu    Cu3+1 0.018360 0.731590 0.231590 0.927210
Cu48  Cu    Cu3+1 0.268410 0.018360 0.768410 0.927210
H1    H     H_    0.322702 0.576533 0.237671 0.131579
H2    H     H_    0.576533 0.322702 0.237671 0.131579
H3    H     H_    0.213688 0.389520 0.653259 0.127680
H4    H     H_    0.346741 0.389520 0.786312 0.127680
H5    H     H_    0.786312 0.610479 0.653259 0.127680
H6    H     H_    0.653259 0.389520 0.213688 0.127680
H7    H     H_    0.213688 0.610479 0.346741 0.127680
H8    H     H_    0.389520 0.213688 0.653259 0.127680
H9    H     H_    0.610479 0.346741 0.213688 0.127680
H10   H     H_    0.389520 0.786312 0.346741 0.127680
H11   H     H_    0.610479 0.653259 0.786312 0.127680
H12   H     H_    0.610479 0.786312 0.653259 0.127680
H13   H     H_    0.423467 0.762329 0.322702 0.131579
H14   H     H_    0.389520 0.653259 0.213688 0.127680
H15   H     H_    0.610479 0.213688 0.346741 0.127680
H16   H     H_    0.389520 0.346741 0.786312 0.127680
H17   H     H_    0.786312 0.653259 0.610479 0.127680
H18   H     H_    0.653259 0.213688 0.389520 0.127680
H19   H     H_    0.213688 0.346741 0.610479 0.127680
H20   H     H_    0.346741 0.786312 0.389520 0.127680
H21   H     H_    0.213688 0.653259 0.389520 0.127680
H22   H     H_    0.346741 0.213688 0.610479 0.127680
H23   H     H_    0.786312 0.346741 0.389520 0.127680
H24   H     H_    0.576533 0.677298 0.762329 0.131579
H25   H     H_    0.653259 0.786312 0.610479 0.127680
H26   H     H_    0.846741 0.110479 0.213688 0.127680
H27   H     H_    0.786312 0.889520 0.846741 0.127680
H28   H     H_    0.153259 0.110479 0.786312 0.127680
H29   H     H_    0.213688 0.889520 0.153259 0.127680
H30   H     H_    0.846741 0.889520 0.786312 0.127680
H31   H     H_    0.786312 0.110479 0.153259 0.127680
H32   H     H_    0.153259 0.889520 0.213688 0.127680
H33   H     H_    0.213688 0.110479 0.846741 0.127680
H34   H     H_    0.889520 0.213688 0.153259 0.127680
H35   H     H_    0.576533 0.762329 0.677298 0.131579
H36   H     H_    0.110479 0.846741 0.213688 0.127680
H37   H     H_    0.889520 0.786312 0.846741 0.127680
H38   H     H_    0.110479 0.153259 0.786312 0.127680
H39   H     H_    0.110479 0.786312 0.153259 0.127680
H40   H     H_    0.889520 0.153259 0.213688 0.127680
H41   H     H_    0.110479 0.213688 0.846741 0.127680
H42   H     H_    0.889520 0.846741 0.786312 0.127680
H43   H     H_    0.786312 0.153259 0.110479 0.127680
H44   H     H_    0.153259 0.213688 0.889520 0.127680
H45   H     H_    0.213688 0.846741 0.110479 0.127680
H46   H     H_    0.423467 0.677298 0.237671 0.131579
H47   H     H_    0.846741 0.786312 0.889520 0.127680
H48   H     H_    0.213688 0.153259 0.889520 0.127680
H49   H     H_    0.846741 0.213688 0.110479 0.127680
H50   H     H_    0.786312 0.846741 0.889520 0.127680
H51   H     H_    0.153259 0.786312 0.110479 0.127680
H52   H     H_    0.846741 0.610479 0.713688 0.127680
H53   H     H_    0.286312 0.389520 0.846741 0.127680
H54   H     H_    0.153259 0.610479 0.286312 0.127680
H55   H     H_    0.713688 0.389520 0.153259 0.127680
H56   H     H_    0.846741 0.389520 0.286312 0.127680
H57   H     H_    0.576533 0.237671 0.322702 0.131579
H58   H     H_    0.286312 0.610479 0.153259 0.127680
H59   H     H_    0.153259 0.389520 0.713688 0.127680
H60   H     H_    0.713688 0.610479 0.846741 0.127680
H61   H     H_    0.389520 0.713688 0.153259 0.127680
H62   H     H_    0.610479 0.846741 0.713688 0.127680
H63   H     H_    0.389520 0.286312 0.846741 0.127680
H64   H     H_    0.610479 0.153259 0.286312 0.127680
H65   H     H_    0.610479 0.286312 0.153259 0.127680
H66   H     H_    0.389520 0.153259 0.713688 0.127680
H67   H     H_    0.610479 0.713688 0.846741 0.127680
H68   H     H_    0.423467 0.322702 0.762329 0.131579
H69   H     H_    0.389520 0.846741 0.286312 0.127680
H70   H     H_    0.286312 0.153259 0.610479 0.127680
H71   H     H_    0.153259 0.713688 0.389520 0.127680
H72   H     H_    0.713688 0.846741 0.610479 0.127680
H73   H     H_    0.846741 0.286312 0.389520 0.127680
H74   H     H_    0.713688 0.153259 0.389520 0.127680
H75   H     H_    0.846741 0.713688 0.610479 0.127680
H76   H     H_    0.286312 0.846741 0.389520 0.127680
H77   H     H_    0.153259 0.286312 0.610479 0.127680
H78   H     H_    0.346741 0.110479 0.713688 0.127680
H79   H     H_    0.762329 0.677298 0.576533 0.131579
H80   H     H_    0.286312 0.889520 0.346741 0.127680
H81   H     H_    0.653259 0.110479 0.286312 0.127680
H82   H     H_    0.713688 0.889520 0.653259 0.127680
H83   H     H_    0.346741 0.889520 0.286312 0.127680
H84   H     H_    0.286312 0.110479 0.653259 0.127680
H85   H     H_    0.653259 0.889520 0.713688 0.127680
H86   H     H_    0.713688 0.110479 0.346741 0.127680
H87   H     H_    0.889520 0.713688 0.653259 0.127680
H88   H     H_    0.110479 0.346741 0.713688 0.127680
H89   H     H_    0.889520 0.286312 0.346741 0.127680
H90   H     H_    0.677298 0.237671 0.423467 0.131579
H91   H     H_    0.110479 0.653259 0.286312 0.127680
H92   H     H_    0.110479 0.286312 0.653259 0.127680
H93   H     H_    0.889520 0.653259 0.713688 0.127680
H94   H     H_    0.110479 0.713688 0.346741 0.127680
H95   H     H_    0.889520 0.346741 0.286312 0.127680
H96   H     H_    0.286312 0.653259 0.110479 0.127680
H97   H     H_    0.653259 0.713688 0.889520 0.127680
H98   H     H_    0.713688 0.346741 0.110479 0.127680
H99   H     H_    0.346741 0.286312 0.889520 0.127680
H100  H     H_    0.713688 0.653259 0.889520 0.127680
H101  H     H_    0.237671 0.322702 0.576533 0.131579
H102  H     H_    0.346741 0.713688 0.110479 0.127680
H103  H     H_    0.286312 0.346741 0.889520 0.127680
H104  H     H_    0.653259 0.286312 0.110479 0.127680
H105  H     H_    0.456903 0.178866 0.260836 0.131951
H106  H     H_    0.739164 0.821133 0.456903 0.131951
H107  H     H_    0.543097 0.178866 0.739164 0.131951
H108  H     H_    0.260836 0.821133 0.543097 0.131951
H109  H     H_    0.456903 0.821133 0.739164 0.131951
H110  H     H_    0.739164 0.178866 0.543097 0.131951
H111  H     H_    0.543097 0.821133 0.260836 0.131951
H112  H     H_    0.762329 0.423467 0.322702 0.131579
H113  H     H_    0.322702 0.762329 0.423467 0.131579
H114  H     H_    0.260836 0.178866 0.456903 0.131951
H115  H     H_    0.821133 0.260836 0.543097 0.131951
H116  H     H_    0.178866 0.456903 0.260836 0.131951
H117  H     H_    0.821133 0.739164 0.456903 0.131951
H118  H     H_    0.178866 0.543097 0.739164 0.131951
H119  H     H_    0.178866 0.739164 0.543097 0.131951
H120  H     H_    0.821133 0.543097 0.260836 0.131951
H121  H     H_    0.178866 0.260836 0.456903 0.131951
H122  H     H_    0.821133 0.456903 0.739164 0.131951
H123  H     H_    0.739164 0.543097 0.178866 0.131951
H124  H     H_    0.237671 0.677298 0.423467 0.131579
H125  H     H_    0.543097 0.260836 0.821133 0.131951
H126  H     H_    0.260836 0.456903 0.178866 0.131951
H127  H     H_    0.456903 0.739164 0.821133 0.131951
H128  H     H_    0.260836 0.543097 0.821133 0.131951
H129  H     H_    0.456903 0.260836 0.178866 0.131951
H130  H     H_    0.739164 0.456903 0.821133 0.131951
H131  H     H_    0.543097 0.739164 0.178866 0.131951
H132  H     H_    0.956903 0.678866 0.260836 0.131951
H133  H     H_    0.739164 0.321134 0.956903 0.131951
H134  H     H_    0.043097 0.678866 0.739164 0.131951
H135  H     H_    0.322702 0.237671 0.576533 0.131579
H136  H     H_    0.260836 0.321133 0.043097 0.131951
H137  H     H_    0.956903 0.321134 0.739164 0.131951
H138  H     H_    0.739164 0.678866 0.043097 0.131951
H139  H     H_    0.043097 0.321133 0.260836 0.131951
H140  H     H_    0.260836 0.678866 0.956903 0.131951
H141  H     H_    0.321133 0.260836 0.043097 0.131951
H142  H     H_    0.678866 0.956903 0.260836 0.131951
H143  H     H_    0.321134 0.739164 0.956903 0.131951
H144  H     H_    0.678866 0.043097 0.739164 0.131951
H145  H     H_    0.678866 0.739164 0.043097 0.131951
H146  H     H_    0.762329 0.322702 0.423467 0.131579
H147  H     H_    0.321133 0.043097 0.260836 0.131951
H148  H     H_    0.678866 0.260836 0.956903 0.131951
H149  H     H_    0.321134 0.956903 0.739164 0.131951
H150  H     H_    0.739164 0.043097 0.678866 0.131951
H151  H     H_    0.043097 0.260836 0.321133 0.131951
H152  H     H_    0.260836 0.956903 0.678866 0.131951
H153  H     H_    0.956903 0.739164 0.321133 0.131951
H154  H     H_    0.260836 0.043097 0.321133 0.131951
H155  H     H_    0.956903 0.260836 0.678866 0.131951
H156  H     H_    0.739164 0.956903 0.321133 0.131951
H157  H     H_    0.677298 0.762329 0.576533 0.131579
H158  H     H_    0.043097 0.739164 0.678866 0.131951
H159  H     H_    0.956903 0.178866 0.760836 0.131951
H160  H     H_    0.239164 0.821133 0.956903 0.131951
H161  H     H_    0.043097 0.178866 0.239164 0.131951
H162  H     H_    0.760836 0.821133 0.043097 0.131951
H163  H     H_    0.956903 0.821133 0.239164 0.131951
H164  H     H_    0.239164 0.178866 0.043097 0.131951
H165  H     H_    0.043097 0.821133 0.760836 0.131951
H166  H     H_    0.760836 0.178866 0.956903 0.131951
H167  H     H_    0.821133 0.760836 0.043097 0.131951
H168  H     H_    0.822702 0.076533 0.237671 0.131579
H169  H     H_    0.178866 0.956903 0.760836 0.131951
H170  H     H_    0.821133 0.239164 0.956903 0.131951
H171  H     H_    0.178866 0.043097 0.239164 0.131951
H172  H     H_    0.178866 0.239164 0.043097 0.131951
H173  H     H_    0.821133 0.043097 0.760836 0.131951
H174  H     H_    0.178866 0.760836 0.956903 0.131951
H175  H     H_    0.821133 0.956903 0.239164 0.131951
H176  H     H_    0.239164 0.043097 0.178866 0.131951
H177  H     H_    0.043097 0.760836 0.821133 0.131951
H178  H     H_    0.760836 0.956903 0.178866 0.131951
H179  H     H_    0.762329 0.923467 0.822702 0.131579
H180  H     H_    0.956903 0.239164 0.821133 0.131951
H181  H     H_    0.760836 0.043097 0.821133 0.131951
H182  H     H_    0.956903 0.760836 0.178866 0.131951
H183  H     H_    0.239164 0.956903 0.821133 0.131951
H184  H     H_    0.043097 0.239164 0.178866 0.131951
H185  H     H_    0.456903 0.678866 0.760836 0.131951
H186  H     H_    0.239164 0.321133 0.456903 0.131951
H187  H     H_    0.543097 0.678866 0.239164 0.131951
H188  H     H_    0.760836 0.321133 0.543097 0.131951
H189  H     H_    0.456903 0.321133 0.239164 0.131951
H190  H     H_    0.177298 0.076533 0.762329 0.131579
H191  H     H_    0.239164 0.678866 0.543097 0.131951
H192  H     H_    0.543097 0.321134 0.760836 0.131951
H193  H     H_    0.760836 0.678866 0.456903 0.131951
H194  H     H_    0.321133 0.760836 0.543097 0.131951
H195  H     H_    0.678866 0.456903 0.760836 0.131951
H196  H     H_    0.321133 0.239164 0.456903 0.131951
H197  H     H_    0.678866 0.543097 0.239164 0.131951
H198  H     H_    0.678866 0.239164 0.543097 0.131951
H199  H     H_    0.321133 0.543097 0.760836 0.131951
H200  H     H_    0.678866 0.760836 0.456903 0.131951
H201  H     H_    0.237671 0.923467 0.177298 0.131579
H202  H     H_    0.321133 0.456903 0.239164 0.131951
H203  H     H_    0.239164 0.543097 0.678866 0.131951
H204  H     H_    0.543097 0.760836 0.321133 0.131951
H205  H     H_    0.760836 0.456903 0.678866 0.131951
H206  H     H_    0.456903 0.239164 0.321133 0.131951
H207  H     H_    0.760836 0.543097 0.321133 0.131951
H208  H     H_    0.456903 0.760836 0.678866 0.131951
H209  H     H_    0.239164 0.456903 0.321133 0.131951
H210  H     H_    0.543097 0.239164 0.678866 0.131951
H211  H     H_    0.419430 0.657452 0.782202 0.138637
H212  H     H_    0.822702 0.923467 0.762329 0.131579
H213  H     H_    0.217798 0.342548 0.419430 0.138637
H214  H     H_    0.580570 0.657452 0.217798 0.138637
H215  H     H_    0.782202 0.342548 0.580569 0.138637
H216  H     H_    0.419430 0.342548 0.217798 0.138637
H217  H     H_    0.217798 0.657452 0.580569 0.138637
H218  H     H_    0.580570 0.342548 0.782202 0.138637
H219  H     H_    0.782202 0.657452 0.419430 0.138637
H220  H     H_    0.342548 0.782202 0.580569 0.138637
H221  H     H_    0.657452 0.419430 0.782202 0.138637
H222  H     H_    0.342548 0.217798 0.419430 0.138637
H223  H     H_    0.677298 0.576533 0.762329 0.131579
H224  H     H_    0.762329 0.076533 0.177298 0.131579
H225  H     H_    0.657452 0.580569 0.217798 0.138637
H226  H     H_    0.657452 0.217798 0.580569 0.138637
H227  H     H_    0.342548 0.580570 0.782202 0.138637
H228  H     H_    0.657452 0.782202 0.419430 0.138637
H229  H     H_    0.342548 0.419430 0.217798 0.138637
H230  H     H_    0.217798 0.580570 0.657452 0.138637
H231  H     H_    0.580570 0.782202 0.342548 0.138637
H232  H     H_    0.782202 0.419430 0.657452 0.138637
H233  H     H_    0.419430 0.217798 0.342548 0.138637
H234  H     H_    0.782202 0.580569 0.342548 0.138637
H235  H     H_    0.177298 0.923467 0.237671 0.131579
H236  H     H_    0.419430 0.782202 0.657452 0.138637
H237  H     H_    0.217798 0.419430 0.342548 0.138637
H238  H     H_    0.580570 0.217798 0.657452 0.138637
H239  H     H_    0.919430 0.157452 0.782202 0.138637
H240  H     H_    0.217798 0.842548 0.919430 0.138637
H241  H     H_    0.080570 0.157452 0.217798 0.138637
H242  H     H_    0.782202 0.842548 0.080570 0.138637
H243  H     H_    0.919430 0.842548 0.217798 0.138637
H244  H     H_    0.217798 0.157452 0.080570 0.138637
H245  H     H_    0.080570 0.842548 0.782202 0.138637
H246  H     H_    0.237671 0.076533 0.822702 0.131579
H247  H     H_    0.782202 0.157452 0.919430 0.138637
H248  H     H_    0.842548 0.782202 0.080570 0.138637
H249  H     H_    0.157452 0.919430 0.782202 0.138637
H250  H     H_    0.842548 0.217798 0.919430 0.138637
H251  H     H_    0.157452 0.080570 0.217798 0.138637
H252  H     H_    0.157452 0.217798 0.080570 0.138637
H253  H     H_    0.842548 0.080570 0.782202 0.138637
H254  H     H_    0.157452 0.782202 0.919430 0.138637
H255  H     H_    0.842548 0.919430 0.217798 0.138637
H256  H     H_    0.217798 0.080570 0.157452 0.138637
H257  H     H_    0.923467 0.237671 0.177298 0.131579
H258  H     H_    0.080570 0.782202 0.842548 0.138637
H259  H     H_    0.782202 0.919430 0.157452 0.138637
H260  H     H_    0.919430 0.217798 0.842548 0.138637
H261  H     H_    0.782202 0.080570 0.842548 0.138637
H262  H     H_    0.919430 0.782202 0.157452 0.138637
H263  H     H_    0.217798 0.919430 0.842548 0.138637
H264  H     H_    0.080570 0.217798 0.157452 0.138637
H265  H     H_    0.919430 0.657452 0.282202 0.138637
H266  H     H_    0.717798 0.342548 0.919430 0.138637
H267  H     H_    0.080570 0.657452 0.717798 0.138637
H268  H     H_    0.076533 0.822702 0.237671 0.131579
H269  H     H_    0.282202 0.342548 0.080570 0.138637
H270  H     H_    0.919430 0.342548 0.717798 0.138637
H271  H     H_    0.717798 0.657452 0.080570 0.138637
H272  H     H_    0.080570 0.342548 0.282202 0.138637
H273  H     H_    0.282202 0.657452 0.919430 0.138637
H274  H     H_    0.342548 0.282202 0.080570 0.138637
H275  H     H_    0.657452 0.919430 0.282202 0.138637
H276  H     H_    0.342548 0.717798 0.919430 0.138637
H277  H     H_    0.657452 0.080570 0.717798 0.138637
H278  H     H_    0.657452 0.717798 0.080570 0.138637
H279  H     H_    0.923467 0.762329 0.822702 0.131579
H280  H     H_    0.342548 0.080570 0.282202 0.138637
H281  H     H_    0.657452 0.282202 0.919430 0.138637
H282  H     H_    0.342548 0.919430 0.717798 0.138637
H283  H     H_    0.717798 0.080570 0.657452 0.138637
H284  H     H_    0.080570 0.282202 0.342548 0.138637
H285  H     H_    0.282202 0.919430 0.657452 0.138637
H286  H     H_    0.919430 0.717798 0.342548 0.138637
H287  H     H_    0.282202 0.080569 0.342548 0.138637
H288  H     H_    0.919430 0.282202 0.657452 0.138637
H289  H     H_    0.717798 0.919430 0.342548 0.138637
H290  H     H_    0.076533 0.177298 0.762329 0.131579
H291  H     H_    0.080570 0.717798 0.657452 0.138637
H292  H     H_    0.419430 0.157452 0.282202 0.138637
H293  H     H_    0.717798 0.842548 0.419430 0.138637
H294  H     H_    0.580570 0.157452 0.717798 0.138637
H295  H     H_    0.282202 0.842548 0.580569 0.138637
H296  H     H_    0.419430 0.842548 0.717798 0.138637
H297  H     H_    0.717798 0.157452 0.580569 0.138637
H298  H     H_    0.580570 0.842548 0.282202 0.138637
H299  H     H_    0.282202 0.157452 0.419430 0.138637
H300  H     H_    0.842548 0.282202 0.580569 0.138637
H301  H     H_    0.076533 0.762329 0.177298 0.131579
H302  H     H_    0.157452 0.419430 0.282202 0.138637
H303  H     H_    0.842548 0.717798 0.419430 0.138637
H304  H     H_    0.157452 0.580570 0.717798 0.138637
H305  H     H_    0.157452 0.717798 0.580569 0.138637
H306  H     H_    0.842548 0.580569 0.282202 0.138637
H307  H     H_    0.157452 0.282202 0.419430 0.138637
H308  H     H_    0.842548 0.419430 0.717798 0.138637
H309  H     H_    0.717798 0.580569 0.157452 0.138637
H310  H     H_    0.580570 0.282202 0.842548 0.138637
H311  H     H_    0.282202 0.419430 0.157452 0.138637
H312  H     H_    0.923467 0.177298 0.237671 0.131579
H313  H     H_    0.419430 0.717798 0.842548 0.138637
H314  H     H_    0.282202 0.580570 0.842548 0.138637
H315  H     H_    0.419430 0.282202 0.157452 0.138637
H316  H     H_    0.717798 0.419430 0.842548 0.138637
H317  H     H_    0.580570 0.717798 0.157452 0.138637
H318  H     H_    0.076533 0.237671 0.822702 0.131579
H319  H     H_    0.237671 0.423467 0.677298 0.131579
H320  H     H_    0.923467 0.822702 0.762329 0.131579
H321  H     H_    0.762329 0.177298 0.076533 0.131579
H322  H     H_    0.177298 0.237671 0.923467 0.131579
H323  H     H_    0.237671 0.822702 0.076533 0.131579
H324  H     H_    0.822702 0.762329 0.923467 0.131579
H325  H     H_    0.237671 0.177298 0.923467 0.131579
H326  H     H_    0.822702 0.237671 0.076533 0.131579
H327  H     H_    0.762329 0.822702 0.923467 0.131579
H328  H     H_    0.177298 0.762329 0.076533 0.131579
H329  H     H_    0.822702 0.576533 0.737671 0.131579
H330  H     H_    0.322702 0.423467 0.762329 0.131579
H331  H     H_    0.262329 0.423467 0.822702 0.131579
H332  H     H_    0.177298 0.576533 0.262329 0.131579
H333  H     H_    0.737671 0.423467 0.177298 0.131579
H334  H     H_    0.822702 0.423467 0.262329 0.131579
H335  H     H_    0.262329 0.576533 0.177298 0.131579
H336  H     H_    0.177298 0.423467 0.737671 0.131579
H337  H     H_    0.737671 0.576533 0.822702 0.131579
H338  H     H_    0.423467 0.737671 0.177298 0.131579
H339  H     H_    0.576533 0.822702 0.737671 0.131579
H340  H     H_    0.423467 0.262329 0.822702 0.131579
H341  H     H_    0.762329 0.576533 0.677298 0.131579
H342  H     H_    0.576533 0.177298 0.262329 0.131579
H343  H     H_    0.576533 0.262329 0.177298 0.131579
H344  H     H_    0.423467 0.177298 0.737671 0.131579
H345  H     H_    0.576533 0.737671 0.822702 0.131579
H346  H     H_    0.423467 0.822702 0.262329 0.131579
H347  H     H_    0.262329 0.177298 0.576533 0.131579
H348  H     H_    0.177298 0.737671 0.423467 0.131579
H349  H     H_    0.737671 0.822702 0.576533 0.131579
H350  H     H_    0.822702 0.262329 0.423467 0.131579
H351  H     H_    0.737671 0.177298 0.423467 0.131579
H352  H     H_    0.677298 0.423467 0.237671 0.131579
H353  H     H_    0.822702 0.737671 0.576533 0.131579
H354  H     H_    0.262329 0.822702 0.423467 0.131579
H355  H     H_    0.177298 0.262329 0.576533 0.131579
H356  H     H_    0.322702 0.076533 0.737671 0.131579
H357  H     H_    0.262329 0.923467 0.322702 0.131579
H358  H     H_    0.677298 0.076533 0.262329 0.131579
H359  H     H_    0.737671 0.923467 0.677298 0.131579
H360  H     H_    0.322702 0.923467 0.262329 0.131579
H361  H     H_    0.262329 0.076533 0.677298 0.131579
H362  H     H_    0.677298 0.923467 0.737671 0.131579
H363  H     H_    0.237671 0.576533 0.322702 0.131579
H364  H     H_    0.737671 0.076533 0.322702 0.131579
H365  H     H_    0.923467 0.737671 0.677298 0.131579
H366  H     H_    0.076533 0.322702 0.737671 0.131579
H367  H     H_    0.923467 0.262329 0.322702 0.131579
H368  H     H_    0.076533 0.677298 0.262329 0.131579
H369  H     H_    0.076533 0.262329 0.677298 0.131579
H370  H     H_    0.923467 0.677298 0.737671 0.131579
H371  H     H_    0.076533 0.737671 0.322702 0.131579
H372  H     H_    0.923467 0.322702 0.262329 0.131579
H373  H     H_    0.262329 0.677298 0.076533 0.131579
H374  H     H_    0.423467 0.237671 0.677298 0.131579
H375  H     H_    0.677298 0.737671 0.923467 0.131579
H376  H     H_    0.737671 0.322702 0.076533 0.131579
H377  H     H_    0.322702 0.262329 0.923467 0.131579
H378  H     H_    0.737671 0.677298 0.923467 0.131579
H379  H     H_    0.322702 0.737671 0.076533 0.131579
H380  H     H_    0.262329 0.322702 0.923467 0.131579
H381  H     H_    0.677298 0.262329 0.076533 0.131579
H382  H     H_    0.346741 0.610479 0.213688 0.127680
H383  H     H_    0.786312 0.389520 0.346741 0.127680
H384  H     H_    0.653259 0.610479 0.786312 0.127680
N1    N     N_R   0.353480 0.646520 0.179202 -0.383043
N2    N     N_R   0.353480 0.820798 0.353480 -0.383043
N3    N     N_R   0.348670 0.315819 0.118396 -0.351198
N4    N     N_R   0.881604 0.315819 0.651330 -0.351198
N5    N     N_R   0.651330 0.684181 0.118396 -0.351198
N6    N     N_R   0.118396 0.315819 0.348670 -0.351198
N7    N     N_R   0.348670 0.684181 0.881604 -0.351198
N8    N     N_R   0.315819 0.348670 0.118396 -0.351198
N9    N     N_R   0.684181 0.881604 0.348670 -0.351198
N10   N     N_R   0.315819 0.651330 0.881604 -0.351198
N11   N     N_R   0.684181 0.118396 0.651330 -0.351198
N12   N     N_R   0.684181 0.651330 0.118396 -0.351198
N13   N     N_R   0.646520 0.820798 0.646520 -0.383043
N14   N     N_R   0.315819 0.118396 0.348670 -0.351198
N15   N     N_R   0.684181 0.348670 0.881604 -0.351198
N16   N     N_R   0.315819 0.881604 0.651330 -0.351198
N17   N     N_R   0.651330 0.118396 0.684181 -0.351198
N18   N     N_R   0.118396 0.348670 0.315819 -0.351198
N19   N     N_R   0.348670 0.881604 0.684181 -0.351198
N20   N     N_R   0.881604 0.651330 0.315819 -0.351198
N21   N     N_R   0.348670 0.118396 0.315819 -0.351198
N22   N     N_R   0.881604 0.348670 0.684181 -0.351198
N23   N     N_R   0.651330 0.881604 0.315819 -0.351198
N24   N     N_R   0.646520 0.179202 0.353480 -0.383043
N25   N     N_R   0.118395 0.651330 0.684181 -0.351198
N26   N     N_R   0.381604 0.184181 0.348670 -0.351198
N27   N     N_R   0.651330 0.815819 0.381604 -0.351198
N28   N     N_R   0.618396 0.184181 0.651330 -0.351198
N29   N     N_R   0.348670 0.815819 0.618395 -0.351198
N30   N     N_R   0.381604 0.815819 0.651330 -0.351198
N31   N     N_R   0.651330 0.184181 0.618395 -0.351198
N32   N     N_R   0.618396 0.815819 0.348670 -0.351198
N33   N     N_R   0.348670 0.184181 0.381604 -0.351198
N34   N     N_R   0.815819 0.348670 0.618395 -0.351198
N35   N     N_R   0.853480 0.146520 0.179202 -0.383043
N36   N     N_R   0.184181 0.381604 0.348670 -0.351198
N37   N     N_R   0.815819 0.651330 0.381604 -0.351198
N38   N     N_R   0.184181 0.618396 0.651330 -0.351198
N39   N     N_R   0.184181 0.651330 0.618395 -0.351198
N40   N     N_R   0.815819 0.618395 0.348670 -0.351198
N41   N     N_R   0.184181 0.348670 0.381604 -0.351198
N42   N     N_R   0.815819 0.381604 0.651330 -0.351198
N43   N     N_R   0.651330 0.618395 0.184181 -0.351198
N44   N     N_R   0.618396 0.348670 0.815819 -0.351198
N45   N     N_R   0.348670 0.381604 0.184181 -0.351198
N46   N     N_R   0.820798 0.853480 0.853480 -0.383043
N47   N     N_R   0.381604 0.651330 0.815819 -0.351198
N48   N     N_R   0.348670 0.618396 0.815819 -0.351198
N49   N     N_R   0.381604 0.348670 0.184181 -0.351198
N50   N     N_R   0.651330 0.381604 0.815819 -0.351198
N51   N     N_R   0.618396 0.651330 0.184181 -0.351198
N52   N     N_R   0.348858 0.651142 0.848858 -0.382542
N53   N     N_R   0.151142 0.348858 0.348858 -0.382542
N54   N     N_R   0.651142 0.651142 0.151142 -0.382542
N55   N     N_R   0.848858 0.348858 0.651142 -0.382542
N56   N     N_R   0.348858 0.348858 0.151142 -0.382542
N57   N     N_R   0.146520 0.146520 0.820798 -0.383043
N58   N     N_R   0.151142 0.651142 0.651142 -0.382542
N59   N     N_R   0.651142 0.348858 0.848858 -0.382542
N60   N     N_R   0.848858 0.651142 0.348858 -0.382542
N61   N     N_R   0.348858 0.848858 0.651142 -0.382542
N62   N     N_R   0.348858 0.151142 0.348858 -0.382542
N63   N     N_R   0.651142 0.151142 0.651142 -0.382542
N64   N     N_R   0.651142 0.848858 0.348858 -0.382542
N65   N     N_R   0.848858 0.151142 0.848858 -0.382542
N66   N     N_R   0.151142 0.848858 0.848858 -0.382542
N67   N     N_R   0.151142 0.151142 0.151142 -0.382542
N68   N     N_R   0.179202 0.853480 0.146520 -0.383043
N69   N     N_R   0.848858 0.848858 0.151142 -0.382542
N70   N     N_R   0.853480 0.853480 0.820798 -0.383043
N71   N     N_R   0.820798 0.146520 0.146520 -0.383043
N72   N     N_R   0.146520 0.853480 0.179202 -0.383043
N73   N     N_R   0.820798 0.353480 0.353480 -0.383043
N74   N     N_R   0.179202 0.146520 0.853480 -0.383043
N75   N     N_R   0.853480 0.179202 0.146520 -0.383043
N76   N     N_R   0.853480 0.820798 0.853480 -0.383043
N77   N     N_R   0.146520 0.820798 0.146520 -0.383043
N78   N     N_R   0.146520 0.179202 0.853480 -0.383043
N79   N     N_R   0.853480 0.646520 0.679202 -0.383043
N80   N     N_R   0.320798 0.353480 0.853480 -0.383043
N81   N     N_R   0.146520 0.646520 0.320798 -0.383043
N82   N     N_R   0.679202 0.353480 0.146520 -0.383043
N83   N     N_R   0.853480 0.353480 0.320798 -0.383043
N84   N     N_R   0.646520 0.646520 0.820798 -0.383043
N85   N     N_R   0.320798 0.646520 0.146520 -0.383043
N86   N     N_R   0.146520 0.353480 0.679202 -0.383043
N87   N     N_R   0.679202 0.646520 0.853480 -0.383043
N88   N     N_R   0.353480 0.679202 0.146520 -0.383043
N89   N     N_R   0.646520 0.853480 0.679202 -0.383043
N90   N     N_R   0.353480 0.320798 0.853480 -0.383043
N91   N     N_R   0.646520 0.146520 0.320798 -0.383043
N92   N     N_R   0.646520 0.320798 0.146520 -0.383043
N93   N     N_R   0.353480 0.146520 0.679202 -0.383043
N94   N     N_R   0.646520 0.679202 0.853480 -0.383043
N95   N     N_R   0.179202 0.353480 0.646520 -0.383043
N96   N     N_R   0.353480 0.853480 0.320798 -0.383043
N97   N     N_R   0.320798 0.146520 0.646520 -0.383043
N98   N     N_R   0.146520 0.679202 0.353480 -0.383043
N99   N     N_R   0.679202 0.853480 0.646520 -0.383043
N100  N     N_R   0.853480 0.320798 0.353480 -0.383043
N101  N     N_R   0.679202 0.146520 0.353480 -0.383043
N102  N     N_R   0.853480 0.679202 0.646520 -0.383043
N103  N     N_R   0.320798 0.853480 0.353480 -0.383043
N104  N     N_R   0.146520 0.320798 0.646520 -0.383043
N105  N     N_R   0.381604 0.684181 0.848670 -0.351198
N106  N     N_R   0.353480 0.353480 0.820798 -0.383043
N107  N     N_R   0.151330 0.315819 0.381604 -0.351198
N108  N     N_R   0.618396 0.684181 0.151330 -0.351198
N109  N     N_R   0.848670 0.315819 0.618395 -0.351198
N110  N     N_R   0.381604 0.315819 0.151330 -0.351198
N111  N     N_R   0.151330 0.684181 0.618395 -0.351198
N112  N     N_R   0.618396 0.315819 0.848670 -0.351198
N113  N     N_R   0.848670 0.684181 0.381604 -0.351198
N114  N     N_R   0.315819 0.848670 0.618395 -0.351198
N115  N     N_R   0.684181 0.381604 0.848670 -0.351198
N116  N     N_R   0.315819 0.151330 0.381604 -0.351198
N117  N     N_R   0.820798 0.646520 0.646520 -0.383043
N118  N     N_R   0.684181 0.618395 0.151330 -0.351198
N119  N     N_R   0.684181 0.151330 0.618395 -0.351198
N120  N     N_R   0.315819 0.618396 0.848670 -0.351198
N121  N     N_R   0.684181 0.848670 0.381604 -0.351198
N122  N     N_R   0.315819 0.381604 0.151330 -0.351198
N123  N     N_R   0.151330 0.618396 0.684181 -0.351198
N124  N     N_R   0.618396 0.848670 0.315819 -0.351198
N125  N     N_R   0.848670 0.381604 0.684181 -0.351198
N126  N     N_R   0.381604 0.151330 0.315819 -0.351198
N127  N     N_R   0.848670 0.618395 0.315819 -0.351198
N128  N     N_R   0.646520 0.353480 0.179202 -0.383043
N129  N     N_R   0.381604 0.848670 0.684181 -0.351198
N130  N     N_R   0.151330 0.381604 0.315819 -0.351198
N131  N     N_R   0.618396 0.151330 0.684181 -0.351198
N132  N     N_R   0.881604 0.184181 0.848670 -0.351198
N133  N     N_R   0.151330 0.815819 0.881604 -0.351198
N134  N     N_R   0.118396 0.184181 0.151330 -0.351198
N135  N     N_R   0.848670 0.815819 0.118396 -0.351198
N136  N     N_R   0.881604 0.815819 0.151330 -0.351198
N137  N     N_R   0.151330 0.184181 0.118396 -0.351198
N138  N     N_R   0.118396 0.815819 0.848670 -0.351198
N139  N     N_R   0.179202 0.646520 0.353480 -0.383043
N140  N     N_R   0.848670 0.184181 0.881604 -0.351198
N141  N     N_R   0.815819 0.848670 0.118396 -0.351198
N142  N     N_R   0.184181 0.881604 0.848670 -0.351198
N143  N     N_R   0.815819 0.151330 0.881604 -0.351198
N144  N     N_R   0.184181 0.118396 0.151330 -0.351198
N145  N     N_R   0.184181 0.151330 0.118396 -0.351198
N146  N     N_R   0.815819 0.118396 0.848670 -0.351198
N147  N     N_R   0.184181 0.848670 0.881604 -0.351198
N148  N     N_R   0.815819 0.881604 0.151330 -0.351198
N149  N     N_R   0.151330 0.118396 0.184181 -0.351198
N150  N     N_R   0.353480 0.179202 0.646520 -0.383043
N151  N     N_R   0.118396 0.848670 0.815819 -0.351198
N152  N     N_R   0.848670 0.881604 0.184181 -0.351198
N153  N     N_R   0.881604 0.151330 0.815819 -0.351198
N154  N     N_R   0.848670 0.118396 0.815819 -0.351198
N155  N     N_R   0.881604 0.848670 0.184181 -0.351198
N156  N     N_R   0.151330 0.881604 0.815819 -0.351198
N157  N     N_R   0.118396 0.151330 0.184181 -0.351198
N158  N     N_R   0.881604 0.684181 0.348670 -0.351198
N159  N     N_R   0.651330 0.315819 0.881604 -0.351198
N160  N     N_R   0.118395 0.684181 0.651330 -0.351198
O1    O     O_R   0.253530 0.715260 0.045530 -0.510640
O2    O     O_R   0.715260 0.253530 0.045530 -0.510640
O3    O     O_R   0.991170 0.246450 0.784820 -0.509798
O4    O     O_R   0.215180 0.246450 0.008830 -0.509798
O5    O     O_R   0.008830 0.753550 0.784820 -0.509798
O6    O     O_R   0.784820 0.246450 0.991170 -0.509798
O7    O     O_R   0.991170 0.753550 0.215180 -0.509798
O8    O     O_R   0.246450 0.991170 0.784820 -0.509798
O9    O     O_R   0.753550 0.215180 0.991170 -0.509798
O10   O     O_R   0.246450 0.008830 0.215180 -0.509798
O11   O     O_R   0.753550 0.784820 0.008830 -0.509798
O12   O     O_R   0.753550 0.008830 0.784820 -0.509798
O13   O     O_R   0.284740 0.954470 0.253530 -0.510640
O14   O     O_R   0.246450 0.784820 0.991170 -0.509798
O15   O     O_R   0.753550 0.991170 0.215180 -0.509798
O16   O     O_R   0.246450 0.215180 0.008830 -0.509798
O17   O     O_R   0.008830 0.784820 0.753550 -0.509798
O18   O     O_R   0.784820 0.991170 0.246450 -0.509798
O19   O     O_R   0.991170 0.215180 0.753550 -0.509798
O20   O     O_R   0.215180 0.008830 0.246450 -0.509798
O21   O     O_R   0.991170 0.784820 0.246450 -0.509798
O22   O     O_R   0.215180 0.991170 0.753550 -0.509798
O23   O     O_R   0.008830 0.215180 0.246450 -0.509798
O24   O     O_R   0.715260 0.746470 0.954470 -0.510640
O25   O     O_R   0.784820 0.008830 0.753550 -0.509798
O26   O     O_R   0.715180 0.253550 0.991170 -0.509798
O27   O     O_R   0.008830 0.746450 0.715180 -0.509798
O28   O     O_R   0.284820 0.253550 0.008830 -0.509798
O29   O     O_R   0.991170 0.746450 0.284820 -0.509798
O30   O     O_R   0.715180 0.746450 0.008830 -0.509798
O31   O     O_R   0.008830 0.253550 0.284820 -0.509798
O32   O     O_R   0.284820 0.746450 0.991170 -0.509798
O33   O     O_R   0.991170 0.253550 0.715180 -0.509798
O34   O     O_R   0.746450 0.991170 0.284820 -0.509798
O35   O     O_R   0.715260 0.954470 0.746470 -0.510640
O36   O     O_R   0.253550 0.715180 0.991170 -0.509798
O37   O     O_R   0.746450 0.008830 0.715180 -0.509798
O38   O     O_R   0.253550 0.284820 0.008830 -0.509798
O39   O     O_R   0.253550 0.008830 0.284820 -0.509798
O40   O     O_R   0.746450 0.284820 0.991170 -0.509798
O41   O     O_R   0.253550 0.991170 0.715180 -0.509798
O42   O     O_R   0.746450 0.715180 0.008830 -0.509798
O43   O     O_R   0.008830 0.284820 0.253550 -0.509798
O44   O     O_R   0.284820 0.991170 0.746450 -0.509798
O45   O     O_R   0.991170 0.715180 0.253550 -0.509798
O46   O     O_R   0.284740 0.746470 0.045530 -0.510640
O47   O     O_R   0.715180 0.008830 0.746450 -0.509798
O48   O     O_R   0.991170 0.284820 0.746450 -0.509798
O49   O     O_R   0.715180 0.991170 0.253550 -0.509798
O50   O     O_R   0.008830 0.715180 0.746450 -0.509798
O51   O     O_R   0.284820 0.008830 0.253550 -0.509798
O52   O     O_R   0.715180 0.753550 0.491170 -0.509798
O53   O     O_R   0.508830 0.246450 0.715180 -0.509798
O54   O     O_R   0.284820 0.753550 0.508830 -0.509798
O55   O     O_R   0.491170 0.246450 0.284820 -0.509798
O56   O     O_R   0.715180 0.246450 0.508830 -0.509798
O57   O     O_R   0.715260 0.045530 0.253530 -0.510640
O58   O     O_R   0.508830 0.753550 0.284820 -0.509798
O59   O     O_R   0.284820 0.246450 0.491170 -0.509798
O60   O     O_R   0.491170 0.753550 0.715180 -0.509798
O61   O     O_R   0.246450 0.491170 0.284820 -0.509798
O62   O     O_R   0.753550 0.715180 0.491170 -0.509798
O63   O     O_R   0.246450 0.508830 0.715180 -0.509798
O64   O     O_R   0.753550 0.284820 0.508830 -0.509798
O65   O     O_R   0.753550 0.508830 0.284820 -0.509798
O66   O     O_R   0.246450 0.284820 0.491170 -0.509798
O67   O     O_R   0.753550 0.491170 0.715180 -0.509798
O68   O     O_R   0.284740 0.253530 0.954470 -0.510640
O69   O     O_R   0.246450 0.715180 0.508830 -0.509798
O70   O     O_R   0.508830 0.284820 0.753550 -0.509798
O71   O     O_R   0.284820 0.491170 0.246450 -0.509798
O72   O     O_R   0.491170 0.715180 0.753550 -0.509798
O73   O     O_R   0.715180 0.508830 0.246450 -0.509798
O74   O     O_R   0.491170 0.284820 0.246450 -0.509798
O75   O     O_R   0.715180 0.491170 0.753550 -0.509798
O76   O     O_R   0.508830 0.715180 0.246450 -0.509798
O77   O     O_R   0.284820 0.508830 0.753550 -0.509798
O78   O     O_R   0.215180 0.253550 0.491170 -0.509798
O79   O     O_R   0.954470 0.746470 0.715260 -0.510640
O80   O     O_R   0.508830 0.746450 0.215180 -0.509798
O81   O     O_R   0.784820 0.253550 0.508830 -0.509798
O82   O     O_R   0.491170 0.746450 0.784820 -0.509798
O83   O     O_R   0.215180 0.746450 0.508830 -0.509798
O84   O     O_R   0.508830 0.253550 0.784820 -0.509798
O85   O     O_R   0.784820 0.746450 0.491170 -0.509798
O86   O     O_R   0.491170 0.253550 0.215180 -0.509798
O87   O     O_R   0.746450 0.491170 0.784820 -0.509798
O88   O     O_R   0.253550 0.215180 0.491170 -0.509798
O89   O     O_R   0.746450 0.508830 0.215180 -0.509798
O90   O     O_R   0.746470 0.045530 0.284740 -0.510640
O91   O     O_R   0.253550 0.784820 0.508830 -0.509798
O92   O     O_R   0.253550 0.508830 0.784820 -0.509798
O93   O     O_R   0.746450 0.784820 0.491170 -0.509798
O94   O     O_R   0.253550 0.491170 0.215180 -0.509798
O95   O     O_R   0.746450 0.215180 0.508830 -0.509798
O96   O     O_R   0.508830 0.784820 0.253550 -0.509798
O97   O     O_R   0.784820 0.491170 0.746450 -0.509798
O98   O     O_R   0.491170 0.215180 0.253550 -0.509798
O99   O     O_R   0.215180 0.508830 0.746450 -0.509798
O100  O     O_R   0.491170 0.784820 0.746450 -0.509798
O101  O     O_R   0.045530 0.253530 0.715260 -0.510640
O102  O     O_R   0.215180 0.491170 0.253550 -0.509798
O103  O     O_R   0.508830 0.215180 0.746450 -0.509798
O104  O     O_R   0.784820 0.508830 0.253550 -0.509798
O105  O     O_R   0.954470 0.284740 0.253530 -0.510640
O106  O     O_R   0.253530 0.954470 0.284740 -0.510640
O107  O     O_R   0.045530 0.746470 0.284740 -0.510640
O108  O     O_R   0.253530 0.045530 0.715260 -0.510640
O109  O     O_R   0.954470 0.253530 0.284740 -0.510640
O110  O     O_R   0.746470 0.954470 0.715260 -0.510640
O111  O     O_R   0.753530 0.215260 0.045530 -0.510640
O112  O     O_R   0.954470 0.784740 0.753530 -0.510640
O113  O     O_R   0.246470 0.215260 0.954470 -0.510640
O114  O     O_R   0.045530 0.784740 0.246470 -0.510640
O115  O     O_R   0.753530 0.784740 0.954470 -0.510640
O116  O     O_R   0.746470 0.715260 0.954470 -0.510640
O117  O     O_R   0.954470 0.215260 0.246470 -0.510640
O118  O     O_R   0.246470 0.784740 0.045530 -0.510640
O119  O     O_R   0.045530 0.215260 0.753530 -0.510640
O120  O     O_R   0.784740 0.045530 0.246470 -0.510640
O121  O     O_R   0.215260 0.753530 0.045530 -0.510640
O122  O     O_R   0.784740 0.954470 0.753530 -0.510640
O123  O     O_R   0.215260 0.246470 0.954470 -0.510640
O124  O     O_R   0.215260 0.954470 0.246470 -0.510640
O125  O     O_R   0.784740 0.246470 0.045530 -0.510640
O126  O     O_R   0.215260 0.045530 0.753530 -0.510640
O127  O     O_R   0.045530 0.284740 0.746470 -0.510640
O128  O     O_R   0.784740 0.753530 0.954470 -0.510640
O129  O     O_R   0.954470 0.246470 0.215260 -0.510640
O130  O     O_R   0.246470 0.045530 0.784740 -0.510640
O131  O     O_R   0.045530 0.753530 0.215260 -0.510640
O132  O     O_R   0.753530 0.954470 0.784740 -0.510640
O133  O     O_R   0.045530 0.246470 0.784740 -0.510640
O134  O     O_R   0.753530 0.045530 0.215260 -0.510640
O135  O     O_R   0.954470 0.753530 0.784740 -0.510640
O136  O     O_R   0.246470 0.954470 0.215260 -0.510640
O137  O     O_R   0.753530 0.715260 0.545530 -0.510640
O138  O     O_R   0.253530 0.284740 0.954470 -0.510640
O139  O     O_R   0.454470 0.284740 0.753530 -0.510640
O140  O     O_R   0.246470 0.715260 0.454470 -0.510640
O141  O     O_R   0.545530 0.284740 0.246470 -0.510640
O142  O     O_R   0.753530 0.284740 0.454470 -0.510640
O143  O     O_R   0.454470 0.715260 0.246470 -0.510640
O144  O     O_R   0.246470 0.284740 0.545530 -0.510640
O145  O     O_R   0.545530 0.715260 0.753530 -0.510640
O146  O     O_R   0.284740 0.545530 0.246470 -0.510640
O147  O     O_R   0.715260 0.753530 0.545530 -0.510640
O148  O     O_R   0.284740 0.454470 0.753530 -0.510640
O149  O     O_R   0.954470 0.715260 0.746470 -0.510640
O150  O     O_R   0.715260 0.246470 0.454470 -0.510640
O151  O     O_R   0.715260 0.454470 0.246470 -0.510640
O152  O     O_R   0.284740 0.246470 0.545530 -0.510640
O153  O     O_R   0.715260 0.545530 0.753530 -0.510640
O154  O     O_R   0.284740 0.753530 0.454470 -0.510640
O155  O     O_R   0.454470 0.246470 0.715260 -0.510640
O156  O     O_R   0.246470 0.545530 0.284740 -0.510640
O157  O     O_R   0.545530 0.753530 0.715260 -0.510640
O158  O     O_R   0.753530 0.454470 0.284740 -0.510640
O159  O     O_R   0.545530 0.246470 0.284740 -0.510640
O160  O     O_R   0.746470 0.284740 0.045530 -0.510640
O161  O     O_R   0.753530 0.545530 0.715260 -0.510640
O162  O     O_R   0.454470 0.753530 0.284740 -0.510640
O163  O     O_R   0.246470 0.454470 0.715260 -0.510640
O164  O     O_R   0.253530 0.215260 0.545530 -0.510640
O165  O     O_R   0.454470 0.784740 0.253530 -0.510640
O166  O     O_R   0.746470 0.215260 0.454470 -0.510640
O167  O     O_R   0.545530 0.784740 0.746470 -0.510640
O168  O     O_R   0.253530 0.784740 0.454470 -0.510640
O169  O     O_R   0.454470 0.215260 0.746470 -0.510640
O170  O     O_R   0.746470 0.784740 0.545530 -0.510640
O171  O     O_R   0.045530 0.715260 0.253530 -0.510640
O172  O     O_R   0.545530 0.215260 0.253530 -0.510640
O173  O     O_R   0.784740 0.545530 0.746470 -0.510640
O174  O     O_R   0.215260 0.253530 0.545530 -0.510640
O175  O     O_R   0.784740 0.454470 0.253530 -0.510640
O176  O     O_R   0.215260 0.746470 0.454470 -0.510640
O177  O     O_R   0.215260 0.454470 0.746470 -0.510640
O178  O     O_R   0.784740 0.746470 0.545530 -0.510640
O179  O     O_R   0.215260 0.545530 0.253530 -0.510640
O180  O     O_R   0.784740 0.253530 0.454470 -0.510640
O181  O     O_R   0.454470 0.746470 0.215260 -0.510640
O182  O     O_R   0.284740 0.045530 0.746470 -0.510640
O183  O     O_R   0.746470 0.545530 0.784740 -0.510640
O184  O     O_R   0.545530 0.253530 0.215260 -0.510640
O185  O     O_R   0.253530 0.454470 0.784740 -0.510640
O186  O     O_R   0.545530 0.746470 0.784740 -0.510640
O187  O     O_R   0.253530 0.545530 0.215260 -0.510640
O188  O     O_R   0.454470 0.253530 0.784740 -0.510640
O189  O     O_R   0.746470 0.454470 0.215260 -0.510640
O190  O     O_R   0.215180 0.753550 0.991170 -0.509798
O191  O     O_R   0.008830 0.246450 0.215180 -0.509798
O192  O     O_R   0.784820 0.753550 0.008830 -0.509798

loop_
_geom_bond_atom_site_label_1
_geom_bond_atom_site_label_2
_ccdc_geom_bond_type
C751  H139  S    
C699  H193  S    
C66   N52   A    
C415  H320  S    
C33   C619  A    
C754  H142  S    
C365  C472  A    
C168  O170  A    
Cu2   O9    S    
C586  C693  A    
C286  H20   S    
Cu29  Cu41  S    
C404  C505  A    
C723  C743  A    
C266  H383  S    
Cu30  O161  S    
C311  H45   S    
C605  C711  A    
C644  C751  A    
C57   O138  A    
C411  C510  A    
C643  C750  A    
C184  C790  S    
Cu5   O12   S    
C653  C760  A    
C29   C615  A    
C340  C447  A    
C656  C786  A    
C418  H323  S    
C366  C473  A    
Cu2   O2    S    
C585  C692  A    
C322  C532  A    
C183  C798  S    
C206  O65   A    
C267  H384  S    
C77   N131  A    
C327  C546  A    
C5    C591  A    
C332  C439  A    
C391  H90   S    
Cu21  Cu39  S    
C307  C566  A    
C682  H308  S    
C384  C491  A    
C443  H348  S    
C466  C522  A    
C602  H229  S    
C49   C650  A    
C149  N8    A    
C721  H162  S    
C701  C739  A    
C102  N59   A    
C214  N84   A    
C269  C375  A    
C148  N160  A    
C276  H10   S    
C728  H169  S    
C641  C748  A    
C209  O58   A    
C387  H57   S    
C295  C562  A    
C368  O145  A    
C103  N49   A    
Cu19  O155  S    
C340  H73   S    
C611  H239  S    
C414  H318  S    
C456  C519  A    
C409  H279  S    
C115  N114  A    
Cu38  O170  S    
C404  H224  S    
C38   C628  A    
C632  H260  S    
C557  C704  A    
C640  H267  S    
Cu47  O7    S    
C243  N35   A    
C429  H334  S    
C179  O155  A    
C20   C127  S    
C726  C779  A    
Cu26  O72   S    
C626  H253  S    
C334  O133  A    
C245  C565  S    
Cu34  O127  S    
C434  C793  A    
C473  H377  S    
C205  O100  A    
C231  N101  A    
C50   C660  A    
C362  C469  A    
C309  C416  A    
C477  H381  S    
C40   C147  S    
C100  N54   A    
C9    C116  S    
C65   N11   A    
C343  C450  A    
C288  H22   S    
C672  H298  S    
Cu36  O168  S    
C275  C382  A    
C648  C754  A    
C338  C443  A    
C194  O94   A    
Cu6   O46   S    
C663  H291  S    
C18   C125  S    
Cu28  O63   S    
C630  H258  S    
C408  C510  A    
C363  C470  A    
C718  H159  S    
Cu16  O31   S    
C65   N119  A    
C396  H146  S    
C658  H285  S    
C272  C538  A    
C330  C547  A    
C512  C783  A    
Cu41  O175  S    
Cu44  O38   S    
C769  C810  A    
C760  H148  S    
C195  O93   A    
C328  C435  A    
C511  C556  S    
C595  H221  S    
C213  N73   A    
C736  C798  A    
C4    C109  S    
Cu35  O186  S    
C68   O107  A    
C48   C662  A    
Cu7   O134  S    
Cu11  Cu34  S    
C262  N87   A    
C762  H150  S    
Cu37  O188  S    
C306  C563  A    
Cu22  O64   S    
C455  C521  A    
C330  C437  A    
C152  N18   A    
Cu20  O54   S    
C128  N127  A    
C147  N159  A    
C187  O83   A    
C744  H132  S    
C380  C486  A    
C214  N87   A    
C633  H261  S    
C5    C110  S    
C130  N130  A    
C722  C745  A    
C262  C582  S    
Cu41  O189  S    
C138  N137  A    
C752  H140  S    
C729  C779  A    
C36   C624  A    
C700  H194  S    
C472  C529  A    
C436  H340  S    
C610  C717  A    
C61   N61   A    
Cu42  O92   S    
Cu27  Cu43  S    
C367  H100  S    
C685  C792  A    
C612  C709  A    
C305  H39   S    
Cu5   O132  S    
C399  H179  S    
C468  C781  A    
C604  C710  A    
C255  N89   A    
C374  C481  A    
C176  O192  A    
C313  H47   S    
C423  O185  A    
C228  N91   A    
C288  C395  A    
C167  O41   A    
C157  O182  A    
C208  O67   A    
C82   N136  A    
C224  O165  A    
C795  H129  S    
C303  C409  A    
C236  N97   A    
C401  C481  S    
C403  H212  S    
C146  O13   A    
C201  O172  A    
C358  C580  A    
C269  H3    S    
Cu30  O153  S    
C219  C539  S    
C696  H189  S    
C668  C775  A    
C233  N103  A    
C737  C767  A    
C354  C461  A    
C271  H5    S    
Cu43  O94   S    
C784  H118  S    
C457  C694  A    
C277  H11   S    
C43   C150  S    
C86   N145  A    
C463  H367  S    
C370  H103  S    
C621  H249  S    
Cu10  O34   S    
C171  O34   A    
C80   N138  A    
C282  C388  A    
C28   C637  A    
C433  C493  A    
C226  C544  S    
C270  C536  A    
C754  C810  A    
C312  C498  S    
Cu14  O107  S    
C587  H214  S    
C676  C783  A    
Cu12  O105  S    
C370  C476  A    
C443  C500  A    
C678  H305  S    
C3    C108  S    
C368  C491  S    
C7    C676  A    
C742  H183  S    
C344  C551  A    
C397  H157  S    
Cu29  O151  S    
C182  O25   A    
C190  C499  S    
C247  N78   A    
C10   C117  S    
C225  N94   A    
C183  O10   A    
Cu13  O124  S    
C470  C527  A    
C221  N128  A    
C627  C733  A    
C107  C816  S    
C735  C800  A    
C273  C539  A    
C461  C522  A    
C134  N157  A    
C211  N1    A    
C585  C814  A    
C590  C772  A    
C629  C736  A    
C11   C118  S    
Cu45  O135  S    
C674  C781  A    
Cu40  O87   S    
C112  O129  A    
C56   N56   A    
C332  H66   S    
C702  H195  S    
Cu19  O70   S    
C215  N86   A    
C441  H346  S    
C353  H86   S    
C6    C684  A    
C325  H59   S    
C7    C114  S    
Cu2   O111  S    
C450  H354  S    
C14   C599  A    
C180  C701  S    
C274  C381  A    
C191  O76   A    
C673  C780  A    
C585  H211  S    
C125  N124  A    
C457  C797  A    
C709  H203  S    
C622  C729  A    
Cu24  O162  S    
C166  O45   A    
C3    C674  A    
C425  H329  S    
C337  H70   S    
C686  C814  A    
C248  N75   A    
C218  C538  S    
C588  C695  A    
C107  N51   A    
C372  H1    S    
C54   N5    A    
Cu45  O149  S    
C43   C661  A    
Cu31  O164  S    
Cu1   O121  S    
C640  C747  A    
C54   N54   A    
C189  O81   A    
C40   C653  A    
C600  C707  A    
C193  O82   A    
C161  C807  S    
C788  H122  S    
C345  H78   S    
C258  N104  A    
C806  O130  A    
C171  C810  S    
Cu26  O60   S    
Cu25  O152  S    
C327  H61   S    
C256  N102  A    
C71   N124  A    
C321  C428  A    
Cu20  Cu36  S    
Cu42  O99   S    
Cu30  O75   S    
C276  C383  A    
C744  C801  A    
C135  C521  S    
Cu43  O102  S    
C436  C495  A    
Cu18  O52   S    
C27   C613  A    
C658  C764  A    
C108  N109  A    
Cu12  O129  S    
C120  N120  A    
C352  C459  A    
C313  C419  A    
C167  C813  S    
C765  H153  S    
Cu25  Cu31  S    
C277  C384  A    
C389  H79   S    
Cu31  O174  S    
C284  H18   S    
C438  C488  A    
C23   C609  A    
C426  H331  S    
C246  O167  A    
Cu5   O47   S    
C292  C559  A    
C402  H201  S    
C686  C793  A    
C430  H335  S    
C359  C577  A    
Cu12  O43   S    
C38   C144  S    
C111  N112  A    
C43   C642  A    
C749  H137  S    
C130  N36   A    
C194  C601  S    
C374  H223  S    
C51   C158  S    
C251  N76   A    
Cu22  O150  S    
Cu12  Cu16  S    
C356  H89   S    
C714  H207  S    
Cu4   Cu23  S    
Cu10  O90   S    
C740  C799  A    
C80   N66   A    
C341  C550  A    
C153  N10   A    
C42   C641  A    
C170  O47   A    
C746  C802  A    
Cu41  O104  S    
Cu47  O45   S    
C15   C665  A    
C24   O120  A    
C57   O68   A    
C118  N43   A    
C98   N40   A    
Cu38  O178  S    
C29   C136  S    
C84   N66   A    
C253  N103  A    
C52   N105  A    
C789  H123  S    
C39   C659  A    
C686  H313  S    
C592  C698  A    
C641  H269  S    
C337  C554  A    
C326  C432  A    
C190  O154  A    
C757  H144  S    
C357  C478  S    
C208  O97   A    
C76   N18   A    
C415  C511  A    
Cu26  Cu35  S    
C250  N68   A    
C257  O179  A    
C673  H299  S    
C8    C594  A    
C304  H38   S    
C254  N91   A    
C568  C776  A    
C165  O40   A    
C134  N134  A    
C50   C652  A    
C275  C541  A    
C619  H247  S    
C369  C581  A    
C720  H161  S    
C8    C115  S    
Cu36  O176  S    
C507  C806  S    
C73   N62   A    
C722  H163  S    
C310  H44   S    
C791  H125  S    
C189  C468  S    
C122  N45   A    
C135  O110  A    
C53   N6    A    
C303  C565  A    
C318  H52   S    
C69   N56   A    
C142  N144  A    
C71   N64   A    
C232  N104  A    
C344  C451  A    
C579  C794  A    
C160  O43   A    
C17   C123  S    
C144  N152  A    
Cu33  O95   S    
C203  O53   A    
C50   C156  S    
C288  C554  A    
C186  O70   A    
C22   C670  A    
C57   C530  S    
Cu1   O1    S    
C691  C797  A    
C344  H77   S    
C166  O29   A    
C402  C508  A    
C449  C496  A    
C322  H56   S    
C14   C687  A    
C401  O183  A    
C423  C483  S    
C746  H133  S    
C335  C500  S    
C490  C785  A    
C225  C543  S    
C85   N146  A    
C270  C376  A    
C55   N109  A    
C169  O39   A    
C200  O87   A    
Cu28  O77   S    
C78   N140  A    
C339  C558  A    
C471  H375  S    
Cu40  O183  S    
C591  C697  A    
C25   C666  A    
C759  H147  S    
C765  C801  A    
C381  C487  A    
C691  H317  S    
C82   N135  A    
C233  C552  S    
C228  N24   A    
C202  C523  S    
C329  H63   S    
C717  H210  S    
C760  C802  A    
C260  N81   A    
C637  H264  S    
C452  C518  A    
C232  N95   A    
C260  N98   A    
C53   N107  A    
C655  H283  S    
C295  C402  A    
C334  C513  S    
Cu7   O57   S    
C182  O12   A    
C684  C791  A    
Cu41  O89   S    
C179  O169  A    
C274  C540  A    
C4    C688  A    
C638  H265  S    
C126  N42   A    
C395  H135  S    
C89   N155  A    
C331  C438  A    
C636  C742  A    
C175  O21   A    
C375  C482  A    
C390  O184  A    
Cu43  O179  S    
C437  C494  A    
C386  C493  A    
C381  H374  S    
C286  C552  A    
C52   N52   A    
C293  C560  A    
C635  H262  S    
C78   N65   A    
C326  H60   S    
C161  O42   A    
C215  N95   A    
C349  C455  A    
C132  N153  A    
C449  H353  S    
C427  H332  S    
C109  N110  A    
C379  O151  A    
C387  C494  A    
C588  H215  S    
C605  H232  S    
C308  C565  A    
C298  C405  A    
Cu1   O36   S    
C174  O16   A    
Cu1   O190  S    
C287  C553  A    
C74   N127  A    
C175  C745  S    
C430  C478  A    
C268  O178  A    
C477  C529  A    
C360  C466  A    
C740  H181  S    
C163  C804  S    
C394  H124  S    
C362  C578  A    
Cu9   Cu45  S    
Cu25  O66   S    
C721  C734  A    
C61   N16   A    
C251  N46   A    
C49   C155  S    
C460  C520  A    
C145  N158  A    
C400  H190  S    
C448  H351  S    
C32   C139  S    
C433  H338  S    
C35   C529  S    
C209  O96   A    
C47   C153  S    
C156  N14   A    
C603  H230  S    
C23   C130  S    
C247  C566  S    
C212  O150  A    
C707  H200  S    
C106  C815  S    
C104  N48   A    
C58   N160  A    
C421  H326  S    
C227  C546  S    
C689  C796  A    
C173  O5    A    
C249  N78   A    
C379  C485  S    
C240  N70   A    
C39   C145  S    
Cu14  O29   S    
C599  H227  S    
C413  H312  S    
C342  C549  A    
C95   N30   A    
C183  O20   A    
Cu18  O137  S    
C155  N17   A    
C181  O18   A    
C13   O132  A    
C206  C656  S    
C250  C570  S    
C217  N79   A    
C609  C716  A    
C59   N159  A    
C51   C654  A    
C361  H94   S    
Cu13  O20   S    
C786  H120  S    
C164  O27   A    
C82   N69   A    
C465  H369  S    
C141  N142  A    
C664  H292  S    
C51   C658  A    
C545  C703  A    
C156  N21   A    
C127  N26   A    
C18   C604  A    
C327  C433  A    
C58   N111  A    
C650  C757  A    
C233  N2    A    
C89   N69   A    
C720  C723  A    
Cu27  O156  S    
C10   C596  A    
C475  C527  A    
Cu30  O67   S    
C128  N40   A    
C386  H46   S    
Cu20  O140  S    
C620  C727  A    
C731  H172  S    
C347  C453  A    
C221  N92   A    
C645  C771  A    
C670  C775  A    
C469  C525  A    
C306  H40   S    
Cu34  O3    S    
C109  N49   A    
C711  H205  S    
Cu28  Cu42  S    
C412  O181  A    
C68   C526  S    
C655  C762  A    
C236  C554  S    
C379  O189  A    
C207  O98   A    
C170  O37   A    
C616  C722  A    
C305  C564  A    
Cu4   O11   S    
C35   O2    A    
C782  H116  S    
C239  C559  S    
C11   C597  A    
C160  C808  S    
C671  H297  S    
C177  O23   A    
C589  C696  A    
C164  O50   A    
C154  N9    A    
C292  C398  A    
C659  H286  S    
Cu15  O108  S    
C140  N143  A    
Cu37  O169  S    
C197  O95   A    
C60   N60   A    
C321  C538  A    
C199  C545  S    
C407  C509  A    
C39   C638  A    
Cu14  Cu47  S    
C398  H168  S    
C219  N81   A    
C306  C413  A    
Cu4   O30   S    
C187  C490  S    
C545  C780  A    
C249  C569  S    
C204  C679  S    
C796  H130  S    
C123  N123  A    
Cu2   Cu46  S    
C751  C808  A    
C320  H54   S    
Cu15  O22   S    
C774  H108  S    
C12   C119  S    
C683  H309  S    
C470  H373  S    
C274  H8    S    
C21   C128  S    
C755  H143  S    
C277  C543  A    
C410  C513  A    
C307  H41   S    
C389  C496  A    
C44   C651  A    
C464  C526  A    
C47   C646  A    
C66   N120  A    
C353  C460  A    
C281  C387  A    
C282  H16   S    
C263  N92   A    
C129  N129  A    
C205  O60   A    
C67   N9    A    
C448  C497  A    
Cu47  O171  S    
C100  N43   A    
C250  N77   A    
C341  H74   S    
C330  H64   S    
C72   N55   A    
C262  N94   A    
C454  C520  A    
C173  C767  S    
C360  H93   S    
C252  N93   A    
C248  C567  S    
C280  C546  A    
C364  C471  A    
C602  C708  A    
C398  C505  A    
C299  C561  A    
C785  H119  S    
C294  H28   S    
C93   N27   A    
C631  C738  A    
C607  H234  S    
C192  O66   A    
C642  C749  A    
C2    O124  A    
Cu7   O49   S    
C441  C489  A    
Cu37  O103  S    
C71   N23   A    
C297  C559  A    
C501  C791  A    
C136  N141  A    
C220  N93   A    
C16   C602  A    
C298  C562  A    
C28   C134  S    
Cu44  O4    S    
Cu45  O5    S    
C406  H246  S    
C78   N132  A    
C462  C524  A    
C121  N27   A    
C198  O89   A    
C73   N21   A    
Cu17  O37   S    
C758  C807  A    
C223  C517  S    
C60   N113  A    
C713  H206  S    
C363  C581  A    
C272  C378  A    
C178  C712  S    
C264  N90   A    
C410  H290  S    
C787  H121  S    
C293  C399  A    
Cu24  O76   S    
C417  C515  A    
C99   N39   A    
C606  H233  S    
C303  H37   S    
C31   C617  A    
C333  C543  A    
C464  H368  S    
C645  C713  A    
Cu19  Cu37  S    
C450  C499  A    
C675  C782  A    
C62   N59   A    
C375  H319  S    
C729  H170  S    
C594  H220  S    
Cu43  O187  S    
C159  O36   A    
Cu46  O160  S    
Cu16  O23   S    
C442  H347  S    
C210  C612  S    
C601  C792  A    
C733  H174  S    
C490  C697  A    
C341  C448  A    
Cu33  O166  S    
C264  N80   A    
Cu23  O192  S    
C665  H293  S    
C115  N29   A    
C416  C514  A    
C650  H277  S    
C370  C584  A    
C133  N147  A    
C446  C693  A    
C763  H151  S    
C376  C483  A    
Cu24  O58   S    
C216  N80   A    
C315  H49   S    
C615  H242  S    
C97   N41   A    
C411  H301  S    
C742  C790  A    
C712  C719  A    
C14   C120  S    
C279  O177  A    
C797  H131  S    
C229  N90   A    
Cu3   O136  S    
C378  C485  A    
C304  C410  A    
C91   N65   A    
C106  N41   A    
C37   C143  S    
C609  H237  S    
C651  H278  S    
C265  C531  A    
C435  C492  A    
C94   N28   A    
C773  H107  S    
C93   N64   A    
C654  H282  S    
C412  C493  S    
C759  C812  A    
C19   C126  S    
C681  H307  S    
C45   C152  S    
C177  C723  S    
C346  O139  A    
C104  N47   A    
C101  O46   A    
C324  C531  A    
C73   N126  A    
C353  C574  A    
C669  H295  S    
C670  H296  S    
Cu6   O118  S    
Cu35  O82   S    
C281  H15   S    
Cu21  O141  S    
C33   C622  A    
C325  C431  A    
C665  C772  A    
C335  O176  A    
C724  H164  S    
C725  H165  S    
C16   C685  A    
Cu8   O113  S    
C403  C506  A    
C596  H222  S    
Cu14  O21   S    
C356  C578  A    
C284  C391  A    
C159  O32   A    
C681  C787  A    
C19   C682  A    
C775  H109  S    
C234  N98   A    
C221  C541  S    
C617  C724  A    
C240  C560  S    
C446  C787  A    
C302  H36   S    
C234  C553  S    
C690  C717  A    
C163  O28   A    
C296  C560  A    
C97   N53   A    
C319  H53   S    
Cu19  O53   S    
C90   O109  A    
C329  C436  A    
C166  C801  S    
Cu16  O117  S    
Cu24  O143  S    
C308  H42   S    
C634  C711  A    
C290  O180  A    
C405  C508  A    
C60   N158  A    
C672  C777  A    
C286  C393  A    
C203  O103  A    
Cu18  O147  S    
C316  H50   S    
C103  N56   A    
C152  N6    A    
C385  C492  A    
C188  C479  S    
C280  H14   S    
C203  C690  S    
C220  N150  A    
C225  N84   A    
C659  C765  A    
C255  C575  S    
C20   C664  A    
C594  C700  A    
C42   C647  A    
Cu13  O39   S    
C218  N82   A    
C678  C785  A    
C113  O127  A    
Cu4   O24   S    
C331  C541  A    
C185  C512  S    
C334  O119  A    
C287  C394  A    
C304  C566  A    
C13   O122  A    
C110  N39   A    
C278  C544  A    
C187  O69   A    
C211  C531  S    
C278  C385  A    
C207  C645  S    
C162  O48   A    
C197  O56   A    
C76   N130  A    
C439  C487  A    
C741  H182  S    
C290  C503  S    
C279  C482  S    
C26   C132  S    
C196  O77   A    
C59   N59   A    
Cu21  O159  S    
C708  H202  S    
C657  C763  A    
C290  O142  A    
Cu40  O173  S    
C423  O148  A    
C428  C485  A    
C83   N141  A    
C512  C699  A    
C371  H104  S    
C392  C498  A    
C142  N149  A    
C4    C589  A    
C724  C756  A    
C688  H315  S    
C590  C707  A    
C309  C567  A    
C367  C582  A    
C285  H19   S    
C169  C812  S    
C479  C696  A    
C113  C524  S    
C197  C568  S    
C568  C705  A    
C289  C555  A    
C154  N23   A    
C45   C644  A    
C243  N75   A    
C648  H275  S    
C668  C715  A    
C267  C533  A    
C165  C802  S    
C202  O91   A    
C333  H67   S    
Cu33  O81   S    
C212  C497  S    
Cu9   O17   S    
C604  H231  S    
C778  O114  A    
C213  N83   A    
C373  H112  S    
C359  C465  A    
C753  H141  S    
C377  C484  A    
C614  H241  S    
C44   C643  A    
C326  C533  A    
C76   N53   A    
C54   N108  A    
C688  C795  A    
C64   N12   A    
C324  H58   S    
C623  C710  A    
C123  N38   A    
C87   N157  A    
C421  C514  A    
C523  C774  A    
C181  C800  S    
Cu35  O167  S    
C229  C548  S    
C59   N112  A    
C462  H366  S    
C646  H273  S    
C687  C794  A    
C683  C789  A    
C80   N133  A    
C139  N151  A    
C697  H191  S    
C418  C516  A    
C698  H192  S    
Cu13  O106  S    
C667  O125  A    
C376  H330  S    
C770  H158  S    
C224  O162  A    
C228  C547  S    
C473  C530  A    
C178  O190  A    
C222  N96   A    
C355  C462  A    
C283  C389  A    
C161  O30   A    
C92   N62   A    
C24   O134  A    
C246  O157  A    
C176  O11   A    
C95   N61   A    
C705  H198  S    
C316  C422  A    
Cu29  O73   S    
C125  N32   A    
C382  C488  A    
C146  O106  A    
C704  H197  S    
C70   N123  A    
C701  C718  A    
C755  C809  A    
C586  C815  A    
C606  C713  A    
C679  C716  A    
C3    C588  A    
C81   N67   A    
C94   N63   A    
C743  H184  S    
C272  H6    S    
C806  O126  A    
C207  O55   A    
Cu27  O71   S    
C445  O113  A    
C451  H355  S    
C246  C492  S    
C336  H69   S    
C394  C500  A    
C217  N117  A    
Cu30  Cu40  S    
C592  H218  S    
C336  C542  A    
C119  N31   A    
C242  N72   A    
C792  H126  S    
C85   N65   A    
C1    C516  S    
C317  C424  A    
C424  C516  A    
Cu38  O85   S    
C247  N57   A    
C215  C535  S    
C347  C573  A    
C227  N1    A    
Cu2   O26   S    
C173  O17   A    
C350  C456  A    
C350  H83   S    
C132  N132  A    
C18   C672  A    
C649  C755  A    
C99   N58   A    
C314  H48   S    
Cu32  O165  S    
C30   C635  A    
C778  O131  A    
C122  N122  A    
C395  C502  A    
C101  O1    A    
C444  H349  S    
C105  N47   A    
C34   C141  S    
C660  C766  A    
C514  C667  S    
C255  N99   A    
C6    C111  S    
C405  H235  S    
C230  N117  A    
C231  N24   A    
Cu3   Cu13  S    
C88   N151  A    
C453  H357  S    
C110  N111  A    
C706  H199  S    
C281  C547  A    
Cu39  O172  S    
Cu23  O116  S    
C608  H236  S    
C200  C534  S    
C172  O6    A    
C422  H327  S    
C636  H263  S    
C675  H302  S    
C333  C440  A    
Cu29  O65   S    
C256  N79   A    
Cu17  O25   S    
C407  H257  S    
C357  O187  A    
C135  O35   A    
C29   C620  A    
C79   C528  S    
C63   N116  A    
C416  H321  S    
C308  C415  A    
C238  N13   A    
C257  C486  S    
C352  C575  A    
C300  C407  A    
C212  O166  A    
C469  H372  S    
C291  H25   S    
C589  H216  S    
C252  C572  S    
C324  C430  A    
Cu5   O35   S    
C649  H276  S    
C468  C695  A    
C256  C576  S    
Cu8   O16   S    
C55   N4    A    
C388  H68   S    
C408  H268  S    
C413  C509  A    
C301  C480  S    
C351  H84   S    
C331  H65   S    
C87   N67   A    
Cu39  O98   S    
C195  C590  S    
C116  N50   A    
C101  C527  S    
C291  C397  A    
C38   C631  A    
C275  H9    S    
Cu31  O88   S    
Cu32  O80   S    
C230  C549  S    
C149  N3    A    
Cu17  O110  S    
C424  H328  S    
C456  H360  S    
C236  N150  A    
C56   N110  A    
C131  N28   A    
C608  C715  A    
C737  H177  S    
Cu39  O184  S    
C140  N140  A    
C48   C154  S    
C24   C505  S    
C639  C746  A    
C261  N88   A    
C646  C752  A    
C223  O128  A    
C467  H371  S    
C599  C706  A    
C32   C630  A    
Cu25  O144  S    
C177  O191  A    
C210  O63   A    
C414  C513  A    
C323  O161  A    
C391  C497  A    
C320  C427  A    
C157  C518  S    
C143  N146  A    
C98   N37   A    
C619  C726  A    
C358  C464  A    
C323  C484  S    
C556  O112  A    
C444  C504  A    
C105  C814  S    
C251  C571  S    
C345  C572  A    
C75   N19   A    
C170  C811  S    
C206  O104  A    
C393  C499  A    
Cu3   O10   S    
C268  C496  S    
C163  O38   A    
C716  H209  S    
C209  C623  S    
C158  N16   A    
C384  H24   S    
C439  H344  S    
C735  H175  S    
C295  H29   S    
C652  C759  A    
C447  C503  A    
C625  H252  S    
C431  H336  S    
C17   C603  A    
C679  C782  A    
C719  H160  S    
C314  C420  A    
C615  C721  A    
Cu36  O83   S    
C661  C768  A    
C597  H225  S    
C66   N10   A    
C435  H339  S    
C239  N35   A    
C184  O8    A    
C351  C572  A    
C172  C779  S    
C598  C705  A    
Cu22  O142  S    
C731  C756  A    
C660  H287  S    
C72   N22   A    
C42   C149  S    
C20   C606  A    
C715  H208  S    
C237  N73   A    
C85   N143  A    
C328  C544  A    
C764  H152  S    
C113  O101  A    
C367  C474  A    
C461  H365  S    
C579  C706  A    
C689  H316  S    
C74   N20   A    
C669  C774  A    
C409  C511  A    
Cu21  O74   S    
C30   C137  S    
C32   C618  A    
C41   C640  A    
C112  C509  S    
C22   C608  A    
C283  C549  A    
Cu3   O51   S    
Cu25  O59   S    
C676  H303  S    
C185  O85   A    
C23   C675  A    
C368  O186  A    
C184  O22   A    
C299  H33   S    
C748  H136  S    
Cu4   O115  S    
C244  N72   A    
C191  C457  S    
C175  O7    A    
C180  O3    A    
C476  C530  A    
C79   O24   A    
C192  C446  S    
C458  H361  S    
C186  O84   A    
C355  C577  A    
C766  H154  S    
C350  C573  A    
C763  C808  A    
C102  N50   A    
C31   C138  S    
C70   N25   A    
C244  N77   A    
C283  H17   S    
Cu6   O14   S    
C87   N149  A    
C1    O118  A    
C22   C129  S    
C794  H128  S    
C339  C444  A    
C725  C767  A    
C124  C520  S    
Cu11  O101  S    
C219  N139  A    
C442  C502  A    
C440  H345  S    
C674  H300  S    
C254  C574  S    
C220  C540  S    
C168  O147  A    
Cu27  O61   S    
C265  C372  A    
C728  C790  A    
C265  H382  S    
C750  H138  S    
C626  C732  A    
C242  C562  S    
Cu18  Cu38  S    
C472  H376  S    
C445  O123  A    
C273  H7    S    
C118  N118  A    
C666  C773  A    
C208  C634  S    
C345  C452  A    
C278  H12   S    
C647  H274  S    
C238  C558  S    
C310  C417  A    
C193  C434  S    
Cu6   O32   S    
C199  O88   A    
Cu8   Cu44  S    
C30   C616  A    
C34   C621  A    
Cu11  O119  S    
C204  O61   A    
C651  C758  A    
C614  C720  A    
C84   N142  A    
C26   C611  A    
C15   C600  A    
C41   C148  S    
C189  O64   A    
C739  H180  S    
C11   C683  A    
C352  H85   S    
C46   C522  S    
C198  O73   A    
C730  H171  S    
Cu42  O177  S    
C146  C519  S    
C454  H358  S    
C79   O116  A    
C597  C704  A    
C138  N145  A    
C346  C495  S    
C77   N17   A    
C72   N125  A    
C84   N147  A    
Cu15  O41   S    
C259  C578  S    
C300  H34   S    
C328  H62   S    
Cu28  O148  S    
C237  N100  A    
C287  H21   S    
C293  H27   S    
C371  C583  A    
C64   N54   A    
C181  O15   A    
C167  O44   A    
Cu38  O93   S    
C193  O72   A    
Cu5   Cu17  S    
C104  N52   A    
C19   C605  A    
C680  C786  A    
C249  N74   A    
C693  H186  S    
C452  H356  S    
C75   N61   A    
C362  H95   S    
C114  N113  A    
C198  C557  S    
Cu14  O114  S    
Cu20  O154  S    
C191  O80   A    
C383  C489  A    
C523  C700  A    
C185  O62   A    
C623  C777  A    
C459  C521  A    
Cu46  O125  S    
C12   C598  A    
Cu26  O157  S    
C291  C558  A    
C165  O26   A    
C248  N71   A    
C455  H359  S    
C634  C788  A    
C361  C580  A    
Cu19  O139  S    
C210  O99   A    
C440  C491  A    
Cu40  O97   S    
C65   N63   A    
C296  H30   S    
Cu34  O133  S    
C355  H88   S    
C299  C406  A    
C656  C714  A    
C235  O152  A    
C420  H325  S    
C624  H251  S    
C348  C574  A    
C61   N114  A    
C230  N102  A    
C263  C583  S    
C271  C537  A    
C25   C131  S    
C46   O149  A    
C269  C535  A    
C86   N67   A    
C616  H243  S    
C593  H219  S    
C2    O136  A    
C223  O115  A    
C685  H311  S    
C690  C773  A    
C52   N7    A    
C41   C663  A    
C147  N15   A    
Cu31  O78   S    
C339  H72   S    
C600  H228  S    
C361  C467  A    
C63   N14   A    
C317  H51   S    
C780  H114  S    
C266  C373  A    
C317  C570  A    
C753  C804  A    
C151  N5    A    
C49   C655  A    
C196  O92   A    
C347  H80   S    
C1    O121  A    
C81   N134  A    
C741  C745  A    
C703  H196  S    
Cu9   O112  S    
C766  C812  A    
C53   N53   A    
C231  C550  S    
Cu7   Cu10  S    
C694  H187  S    
C476  H380  S    
C292  H26   S    
C153  N7    A    
C385  H35   S    
C652  H280  S    
C267  C374  A    
C625  C731  A    
C663  C770  A    
C27   C627  A    
C465  C524  A    
C302  C408  A    
Cu37  O84   S    
C218  N128  A    
C399  C506  A    
C2    C508  S    
C194  O71   A    
C213  C532  S    
C284  C550  A    
C611  C718  A    
C783  H117  S    
C621  C728  A    
C644  H272  S    
C406  C507  A    
C412  O143  A    
C598  H226  S    
C390  O141  A    
C55   N55   A    
C432  C481  A    
C148  N25   A    
C382  H2    S    
C21   C680  A    
C45   C657  A    
C103  N45   A    
C300  C563  A    
C662  C769  A    
C98   N60   A    
C319  C536  A    
Cu44  O123  S    
C736  H176  S    
C596  C703  A    
C377  H341  S    
C36   C142  S    
C510  C778  S    
Cu28  O163  S    
C613  C719  A    
C83   N148  A    
C726  H166  S    
C259  N100  A    
C312  O174  A    
C336  C441  A    
C322  C429  A    
C143  N154  A    
C534  C702  A    
C174  C756  S    
Cu44  O138  S    
C74   N60   A    
C188  O74   A    
C356  C463  A    
C196  C579  S    
C204  O102  A    
C342  H75   S    
C16   C122  S    
C311  C418  A    
C777  H111  S    
C35   O160  A    
C21   C607  A    
C145  N20   A    
C607  C714  A    
C310  C569  A    
C190  O168  A    
C62   N115  A    
C460  H364  S    
Cu36  O91   S    
C257  O156  A    
C750  C807  A    
C419  H324  S    
C349  H82   S    
C47   C649  A    
Cu23  O42   S    
C201  C494  S    
C294  C561  A    
C5    C678  A    
C776  H110  S    
C392  H101  S    
Cu12  O191  S    
C144  N148  A    
C7    C593  A    
C364  C582  A    
C771  H105  S    
C88   N66   A    
C313  C571  A    
C727  C734  A    
C612  C784  A    
C271  C377  A    
C56   N3    A    
C263  N82   A    
C266  C532  A    
C91   N154  A    
C252  N97   A    
C164  C803  S    
Cu45  O50   S    
Cu10  O18   S    
C738  H178  S    
C307  C414  A    
Cu24  Cu32  S    
C534  C796  A    
C96   N55   A    
C315  C567  A    
C463  C525  A    
C617  H244  S    
C343  H76   S    
Cu46  O6    S    
C116  N115  A    
C195  O52   A    
C301  O175  A    
C695  H188  S    
C474  C528  A    
C348  H81   S    
C28   C614  A    
Cu48  O130  S    
C420  C515  A    
C188  O86   A    
C764  C813  A    
C159  C809  S    
C127  N126  A    
C587  C816  A    
C369  C475  A    
C117  N116  A    
Cu33  O180  S    
C730  C798  A    
C781  H115  S    
C108  N34   A    
C89   N152  A    
C680  H306  S    
Cu29  O158  S    
Cu8   O28   S    
C682  C788  A    
C761  H149  S    
C338  C553  A    
C620  H248  S    
Cu47  O131  S    
C227  N88   A    
C633  C740  A    
C137  N136  A    
Cu11  O33   S    
C712  C733  A    
C432  H337  S    
C114  N37   A    
C738  C800  A    
C111  N44   A    
C279  O163  A    
C136  N135  A    
C768  H155  S    
C239  N71   A    
C222  N2    A    
C428  H333  S    
C240  N46   A    
C63   N62   A    
C99   N38   A    
C467  C526  A    
C434  C692  A    
C158  N19   A    
C427  C486  A    
C631  H259  S    
C654  C761  A    
C102  N44   A    
C232  C551  S    
C8    C669  A    
C335  O140  A    
Cu35  O100  S    
C205  C668  S    
Cu7   O15   S    
C234  N139  A    
C214  C533  S    
C48   C648  A    
C692  H185  S    
C601  C708  A    
C237  C555  S    
C321  H55   S    
C36   C629  A    
Cu42  O185  S    
C117  N33   A    
C757  C811  A    
C6    C592  A    
C635  C741  A    
C155  N11   A    
C88   N156  A    
C419  C517  A    
C556  O135  A    
C157  O108  A    
C13   C506  S    
C748  C804  A    
C346  O188  A    
C451  C498  A    
C9    C595  A    
C349  C575  A    
Cu27  O146  S    
C475  H379  S    
C133  N133  A    
C75   N129  A    
C747  H134  S    
C141  N156  A    
C95   N29   A    
C438  H343  S    
C629  H256  S    
C296  C403  A    
C305  C411  A    
C359  H92   S    
C178  O14   A    
C241  N57   A    
C119  N119  A    
C647  C753  A    
C201  O159  A    
C681  C815  A    
Cu32  O181  S    
C83   N69   A    
C320  C539  A    
C151  N12   A    
Cu18  O62   S    
Cu39  O86   S    
C253  N96   A    
C662  H289  S    
C112  O117  A    
C81   N137  A    
C603  C709  A    
C129  N30   A    
C222  C542  S    
C762  C811  A    
Cu48  O182  S    
C639  H266  S    
C90   O105  A    
Cu11  O19   S    
C770  C803  A    
C224  C489  S    
C687  H314  S    
C396  C503  A    
C758  H145  S    
C285  C551  A    
C769  H156  S    
C9    C689  A    
Cu48  O8    S    
C351  C458  A    
C431  C482  A    
C176  C734  S    
C289  C396  A    
C323  O173  A    
C732  C799  A    
C261  N85   A    
C168  C504  S    
C388  C495  A    
C26   C632  A    
C229  N106  A    
C342  C449  A    
C768  C805  A    
Cu15  O126  S    
Cu1   Cu6   S    
C458  C518  A    
C397  C504  A    
C422  C517  A    
C354  H87   S    
C618  C725  A    
C710  H204  S    
C595  C702  A    
C182  C799  S    
Cu8   O68   S    
C217  C537  S    
C761  C813  A    
C671  C776  A    
C363  H96   S    
C369  H102  S    
C613  H240  S    
C390  C488  S    
C653  H281  S    
C657  H284  S    
C126  N125  A    
C401  O153  A    
C586  H213  S    
C661  H288  S    
C96   N42   A    
C332  C540  A    
C316  C571  A    
C338  H71   S    
Cu3   O13   S    
C100  N51   A    
C27   C133  S    
C258  N86   A    
Cu46  O40   S    
C259  N83   A    
C319  C426  A    
C235  C502  S    
C637  C743  A    
C106  N107  A    
C70   N58   A    
C186  C501  S    
C62   N15   A    
C393  H113  S    
Cu20  O69   S    
C365  H98   S    
C202  O54   A    
Cu32  O96   S    
C447  H350  S    
C630  C737  A    
C258  C577  S    
Cu16  O109  S    
Cu21  O55   S    
C254  N101  A    
Cu22  O56   S    
C400  C507  A    
C226  N89   A    
C557  C789  A    
C244  C564  S    
C91   N153  A    
C69   N8    A    
C366  C584  A    
C337  C442  A    
C67   N121  A    
C211  N85   A    
C261  C581  S    
C459  H362  S    
C171  O49   A    
C747  C803  A    
C270  H4    S    
C241  N74   A    
C92   N26   A    
C58   N58   A    
C105  N105  A    
C358  H91   S    
C120  N48   A    
C162  O33   A    
C628  C735  A    
Cu10  O120  S    
C667  O111  A    
C216  C536  S    
C297  C404  A    
C64   N118  A    
C169  O51   A    
C383  H13   S    
C329  C548  A    
C372  C478  A    
C68   O171  A    
C264  C584  S    
C380  H363  S    
C90   C525  S    
C25   C610  A    
C624  C730  A    
C429  C480  A    
C121  N121  A    
C31   C625  A    
C643  H271  S    
C86   N144  A    
C677  C784  A    
C297  H31   S    
C638  C744  A    
C664  C771  A    
C318  C537  A    
C160  O31   A    
C628  H255  S    
C92   N33   A    
C93   N32   A    
C732  H173  S    
Cu9   O27   S    
C216  N106  A    
C311  C570  A    
C282  C548  A    
C137  N155  A    
C33   C140  S    
C179  C487  S    
C69   N122  A    
C325  C535  A    
C131  N131  A    
C354  C576  A    
Cu22  Cu33  S    
C268  O137  A    
C610  H238  S    
C192  O78   A    
C752  C809  A    
C378  H352  S    
C677  H304  S    
C471  C528  A    
C162  C805  S    
C627  H254  S    
C315  C421  A    
C298  H32   S    
C340  C555  A    
C226  N13   A    
C426  C483  A    
C691  C816  A    
C77   N63   A    
C200  O75   A    
C348  C454  A    
C180  O19   A    
Cu23  O128  S    
C425  C484  A    
C44   C151  S    
C150  N4    A    
C445  C515  S    
C360  C576  A    
C618  H245  S    
C642  H270  S    
C253  C573  S    
C37   C626  A    
C591  H217  S    
C40   C639  A    
Cu15  Cu48  S    
C301  O158  A    
C199  O59   A    
C241  C561  S    
C67   N64   A    
C280  C386  A    
C273  C380  A    
C242  N68   A    
C632  C739  A    
C245  N70   A    
C417  H322  S    
C107  N108  A    
C276  C542  A    
C437  H342  S    
C314  C569  A    
C749  C805  A    
C37   C633  A    
C96   N34   A    
Cu34  O48   S    
C10   C673  A    
C124  O57   A    
C622  H250  S    
C474  H378  S    
C302  C564  A    
C238  N99   A    
C150  N22   A    
C318  C425  A    
C34   C636  A    
C15   C121  S    
C309  H43   S    
C294  C400  A    
C371  C477  A    
C684  H310  S    
C466  H370  S    
C289  H23   S    
C172  O9    A    
C666  H294  S    
Cu9   O79   S    
Cu26  O145  S    
C343  C552  A    
C139  N138  A    
C453  C519  A    
C17   C677  A    
C94   N31   A    
C245  N76   A    
C793  H127  S    
C479  C795  A    
C12   C671  A    
C174  O4    A    
C46   O79   A    
C357  O146  A    
C124  O90   A    
C501  C698  A    
C365  C583  A    
C727  H167  S    
C772  H106  S    
C285  C392  A    
C235  O164  A    
Cu48  O44   S    
C366  H99   S    
C260  C580  S    
C373  C480  A    
C364  H97   S    
Cu17  O122  S    
C587  C694  A    
C593  C699  A    
C243  C563  S    
C97   N36   A    
C312  O144  A    
