data_mof_unit_29086.cif
_audit_creation_date              2013-03-05T16:16:53-0500
_audit_creation_method            fapswitch 2.2
_symmetry_space_group_name_H-M    P1
_symmetry_Int_Tables_number       1
_space_group_crystal_system       triclinic
_cell_length_a                    8.370122
_cell_length_b                    18.784361
_cell_length_c                    19.193856
_cell_angle_alpha                 101.89815
_cell_angle_beta                  95.57011
_cell_angle_gamma                 90.357561
_cell_volume                      2937.95307227

loop_
_atom_site_label
_atom_site_type_symbol
_atom_site_description
_atom_site_fract_x
_atom_site_fract_y
_atom_site_fract_z
_atom_type_partial_charge
P1    P     P_3+3 0.945300 0.665790 0.568510 0.500954
O1    O     O_2   0.117290 0.676350 0.548250 -0.365662
O2    O     O_3   0.869060 0.586940 0.542720 -0.362880
O3    O     O_3   0.356990 0.628630 0.417250 -0.317825
O4    O     O_2   0.233993 0.754228 0.472810 -0.373140
O5    O     O_3   0.982061 0.683114 0.662072 -0.616819
O6    O     O_3   0.312951 0.751703 0.345250 -0.566255
C1    C     C_3   0.403415 0.758561 0.228685 -0.681569
H1    H     H_    0.289164 0.756960 0.193431 0.204800
P2    P     P_3+3 0.360080 0.438780 0.334620 0.535596
P3    P     P_3+3 0.894056 0.587409 0.285657 0.578098
O7    O     O_2   0.186600 0.460070 0.325400 -0.302088
O8    O     O_3   0.942970 0.591450 0.378940 -0.320352
O9    O     O_2   0.996682 0.528420 0.243433 -0.330208
O10   O     O_3   0.350744 0.343165 0.315313 -0.556083
O11   O     O_3   0.943667 0.668955 0.258513 -0.578275
C2    C     C_3   0.946617 0.731801 0.314363 0.289627
H2    H     H_    0.036090 0.724880 0.358551 0.182253
C3    C     C_3   0.993944 0.800409 0.286454 -0.619619
C4    C     C_3   0.879468 0.254937 0.299325 0.234718
H3    H     H_    0.956839 0.225468 0.333591 0.030708
C5    C     C_3   0.737420 0.205099 0.259671 -0.633071
H4    H     H_    0.636623 0.209491 0.293277 0.192495
Ba1   Ba    Ba6+2 0.153490 0.533960 0.468530 1.637117
C6    C     C_3   0.000804 0.617613 0.685899 0.237904
H5    H     H_    0.888896 0.584259 0.672820 0.181371
C7    C     C_3   0.042636 0.632899 0.767252 -0.780267
H6    H     H_    0.168608 0.652899 0.780565 0.230771
H7    H     H_    0.032990 0.581473 0.786542 0.210512
C8    C     C_3   0.297431 0.315826 0.372077 0.305755
H8    H     H_    0.167781 0.325002 0.373915 0.032427
H9    H     H_    0.361035 0.342440 0.424520 0.151818
C9    C     C_3   0.330113 0.234084 0.362038 -0.795701
H10   H     H_    0.259381 0.209369 0.397126 0.201185
H11   H     H_    0.457829 0.227393 0.378968 0.205193
P4    P     P_3+3 0.865000 0.334200 0.431430 0.462692
O12   O     O_2   0.693010 0.323600 0.451730 -0.356621
O13   O     O_3   0.941240 0.413050 0.457220 -0.389217
O14   O     O_3   0.453310 0.371360 0.582690 -0.357468
O15   O     O_3   0.817008 0.319049 0.338111 -0.553995
P5    P     P_3+3 0.898676 0.407288 0.711862 0.457861
O16   O     O_3   0.371310 0.539060 0.587050 -0.360860
O17   O     O_3   0.867330 0.408540 0.621000 -0.372210
O18   O     O_2   0.775660 0.458563 0.749486 -0.396819
O19   O     O_3   0.844545 0.321042 0.723953 -0.510863
Ba2   Ba    Ba6+2 0.656680 0.466030 0.531410 1.605285
P6    P     P_3+3 0.369897 0.724167 0.426896 0.507384
C10   C     C_3   0.384209 0.711557 0.285784 0.143279
H12   H     H_    0.501103 0.692232 0.302274 0.105452
O20   O     O_3   0.438990 0.460930 0.412890 -0.417502
C11   C     C_3   0.440566 0.700086 0.682241 0.303205
H13   H     H_    0.340661 0.689394 0.639041 0.122801
C12   C     C_3   0.426807 0.777706 0.728782 -0.534219
H14   H     H_    0.531928 0.787657 0.770196 0.189510
P7    P     P_3+3 0.439956 0.556467 0.679339 0.522511
O21   O     O_2   0.623700 0.539890 0.674570 -0.311602
O22   O     O_3   0.435333 0.648510 0.725625 -0.562255
C13   C     C_3   0.913036 0.268671 0.672787 0.361005
H15   H     H_    0.844554 0.264982 0.619543 0.154432
H16   H     H_    0.041027 0.282079 0.668681 -0.034430
C14   C     C_3   0.903079 0.194500 0.693151 -0.658445
H17   H     H_    0.937119 0.151766 0.648352 0.191798
P8    P     P_3+3 0.441189 0.278100 0.576090 0.431596
C15   C     C_3   0.393248 0.278668 0.705925 0.398704
O23   O     O_2   0.570876 0.248103 0.526961 -0.419660
O24   O     O_3   0.515795 0.264211 0.660388 -0.477108
H18   H     H_    0.337288 0.331543 0.703244 0.055645
H19   H     H_    0.366582 0.292454 0.818868 0.205475
C16   C     C_3   0.463514 0.282454 0.782676 -0.819486
H20   H     H_    0.554480 0.327640 0.798949 0.258040
C17   C     C_R   0.987220 0.955158 0.546912 0.043157
C18   C     C_R   0.071979 0.908146 0.585411 -0.146685
C19   C     C_R   0.213093 0.044144 0.565566 -0.128715
C20   C     C_R   0.052617 0.024081 0.541579 0.031514
C21   C     C_R   0.280687 0.111133 0.561841 -0.087661
C22   C     C_R   0.185095 0.164288 0.535117 -0.101810
C23   C     C_R   0.024881 0.142657 0.504580 0.039386
C24   C     C_R   0.959902 0.071975 0.507079 0.044999
C25   C     C_R   0.237930 0.237953 0.538392 0.099077
C26   C     C_R   0.132456 0.286393 0.511586 -0.455311
C27   C     C_R   0.983070 0.264093 0.473890 0.157460
C28   C     C_R   0.929233 0.190889 0.470429 -0.039743
C29   C     C_R   0.831303 0.932528 0.514088 0.043850
C30   C     C_R   0.771562 0.860806 0.514004 0.011539
C31   C     C_R   0.870632 0.811353 0.544358 -0.089373
C32   C     C_R   0.016224 0.837760 0.583107 -0.056665
H21   H     H_    0.171706 0.342300 0.516381 0.165247
H22   H     H_    0.088973 0.804549 0.612588 0.163487
C33   C     C_R   0.782064 0.164060 0.433516 -0.056226
C34   C     C_R   0.720226 0.095599 0.435142 -0.147945
C35   C     C_R   0.802817 0.049380 0.474660 0.029018
C36   C     C_R   0.736146 0.980396 0.480130 0.042120
C37   C     C_R   0.576138 0.957661 0.453756 -0.194094
C38   C     C_R   0.614378 0.838098 0.482293 -0.016362
C39   C     C_R   0.516998 0.888423 0.455311 -0.138136
C40   C     C_R   0.561992 0.764963 0.476596 0.261169
C41   C     C_R   0.667469 0.716244 0.501280 -0.275475
C42   C     C_R   0.820592 0.737298 0.535131 0.227134
H23   H     H_    0.294077 0.005702 0.583470 0.153896
H24   H     H_    0.182155 0.924384 0.618955 0.148052
H25   H     H_    0.605933 0.080450 0.404464 0.153316
N1    N     N_R   0.415039 0.545423 0.969910 -0.040610
N2    N     N_R   0.460557 0.552667 0.039544 -0.027961
C43   C     C_2   0.613512 0.501691 0.291973 -0.400526
C44   C     C_3   0.673877 0.562564 0.259671 0.248818
C45   C     C_2   0.624522 0.549134 0.180166 -0.268524
C46   C     C_2   0.495944 0.504989 0.150989 -0.041405
C47   C     C_2   0.412763 0.464745 0.198649 -0.179492
C48   C     C_1   0.469679 0.472007 0.267832 0.267944
N3    N     N_R   0.376185 0.432713 0.033348 -0.073936
N4    N     N_R   0.330637 0.425398 0.963543 -0.068374
C49   C     C_R   0.350532 0.481511 0.930189 0.117166
C50   C     C_R   0.442490 0.496457 0.072903 0.130219
C51   C     C_R   0.403282 0.503930 0.808037 -0.235465
C52   C     C_R   0.350074 0.499558 0.734445 0.290718
C53   C     C_R   0.104640 0.437272 0.749327 0.218355
C54   C     C_R   0.156462 0.440195 0.821461 -0.237440
C55   C     C_R   0.305660 0.473227 0.851674 -0.027014
C56   C     C_R   0.204442 0.463807 0.705833 -0.499429
H26   H     H_    0.687667 0.578730 0.147712 0.167186
H27   H     H_    0.077245 0.419902 0.854775 0.151424
H28   H     H_    0.162357 0.461911 0.650330 0.152323
C57   C     C_2   0.283944 0.645130 0.251155 0.570799
H29   H     H_    0.219815 0.639815 0.198298 0.027908
O25   O     O_2   0.273495 0.595654 0.282373 -0.532259
H30   H     H_    0.690187 0.223138 0.210128 0.198613
C58   C     C_2   0.783852 0.126849 0.240440 0.658799
H31   H     H_    0.878945 0.111272 0.206195 0.124636
O26   O     O_2   0.713994 0.080053 0.262551 -0.542485
H32   H     H_    0.098448 0.586431 0.659855 0.095068
C59   C     C_2   0.936233 0.688112 0.806514 0.860558
H33   H     H_    0.906222 0.737248 0.787252 -0.012962
O27   O     O_2   0.887417 0.679500 0.862136 -0.520489
C60   C     C_2   0.293665 0.192633 0.286418 0.717701
H34   H     H_    0.347542 0.209711 0.243133 0.095446
O28   O     O_2   0.205568 0.138497 0.273151 -0.558021
C61   C     C_2   0.528621 0.727827 0.180660 0.530546
H35   H     H_    0.642376 0.711448 0.203284 -0.014653
O29   O     O_2   0.502176 0.719708 0.115786 -0.508342
C62   C     C_2   0.597041 0.695902 0.651535 0.553418
H36   H     H_    0.691607 0.737038 0.670832 -0.033298
O30   O     O_2   0.620135 0.643566 0.605382 -0.572743
C63   C     C_2   0.429816 0.837697 0.687120 0.323198
H37   H     H_    0.437974 0.893980 0.715863 0.104701
O31   O     O_2   0.422646 0.824560 0.621884 -0.601480
C64   C     C_2   0.277053 0.784774 0.766408 0.624552
H38   H     H_    0.160779 0.784069 0.736157 0.011126
O32   O     O_2   0.285144 0.793118 0.831457 -0.532130
C65   C     C_2   0.443074 0.837519 0.261071 0.869119
H39   H     H_    0.546035 0.853675 0.299543 -0.029143
O33   O     O_2   0.358274 0.884946 0.243842 -0.507604
C66   C     C_2   0.010665 0.868208 0.345337 0.748644
H40   H     H_    0.907370 0.889336 0.371923 -0.022892
O34   O     O_2   0.139346 0.901035 0.362322 -0.566941
C67   C     C_2   0.011605 0.192829 0.759690 0.622045
H41   H     H_    0.994837 0.230635 0.809261 0.048684
O35   O     O_2   0.118763 0.148952 0.758638 -0.561870
H42   H     H_    0.777833 0.182603 0.702511 0.252391
H43   H     H_    0.300522 0.234177 0.691430 0.088449
H44   H     H_    0.521022 0.230360 0.787623 0.272275
C68   C     C_2   0.455856 0.117112 0.580660 0.579165
H45   H     H_    0.533381 0.129133 0.542901 0.044688
O36   O     O_2   0.515415 0.103395 0.636896 -0.577021
H46   H     H_    0.710810 0.196211 0.403314 0.146784
H47   H     H_    0.394204 0.874400 0.434226 0.212195
H48   H     H_    0.633305 0.659105 0.488602 0.196108
C69   C     C_2   0.789858 0.743188 0.344583 0.283144
H49   H     H_    0.725738 0.792727 0.345862 -0.003736
O37   O     O_2   0.735191 0.696383 0.370746 -0.646673
H50   H     H_    0.492029 0.992666 0.432174 0.154149
C70   C     C_2   0.268980 0.418301 0.167701 0.649201
H51   H     H_    0.175826 0.438577 0.134082 0.016200
O38   O     O_2   0.257459 0.356031 0.176354 -0.562453
C71   C     C_2   0.560279 0.538539 0.840384 0.726980
H52   H     H_    0.635117 0.513334 0.877431 -0.014429
O39   O     O_2   0.605004 0.596468 0.828934 -0.502961
C72   C     C_2   0.729230 0.459620 0.327571 0.668955
H53   H     H_    0.710842 0.449735 0.379492 0.084373
O40   O     O_2   0.846137 0.435713 0.298425 -0.550105
H54   H     H_    0.110744 0.791248 0.265958 0.220984
C73   C     C_2   0.883441 0.811728 0.222931 0.548245
H55   H     H_    0.874947 0.770439 0.173903 0.086582
O41   O     O_2   0.806353 0.866977 0.224647 -0.548045
C74   C     C_2   0.980040 0.276929 0.245703 0.534140
H56   H     H_    0.034342 0.331007 0.256579 0.133080
O42   O     O_2   0.005373 0.234470 0.190763 -0.572517

loop_
_geom_bond_atom_site_label_1
_geom_bond_atom_site_label_2
_geom_bond_distance
_ccdc_geom_bond_type
C49   C55   1.492984 S    
C70   H51   1.084794 S    
P8    O23   1.540211 D    
C7    H7    1.108650 S    
Ba1   O16   2.758795 S    
C19   C20   1.400098 A    
C44   C45   1.510158 S    
N1    C49   1.359664 A    
N4    C49   1.358435 A    
C22   C25   1.437134 A    
P7    O21   1.578676 D    
C3    C73   1.509198 S    
C10   C57   1.496573 S    
C58   O26   1.220771 D    
C41   C42   1.395447 A    
C5    C58   1.503027 S    
C57   H29   1.085904 S    
C69   O37   1.206731 D    
P8    C25   1.872620 S    
C23   C24   1.443351 A    
C74   H56   1.081870 S    
C29   C36   1.420397 A    
C61   O29   1.220867 D    
C28   C33   1.396046 A    
C36   C37   1.415779 A    
P4    O12   1.549564 D    
N2    C50   1.357672 A    
C62   O30   1.210418 D    
C26   H21   1.081325 S    
P2    O10   1.757117 S    
C65   O33   1.220912 D    
C31   C32   1.395925 A    
C43   C48   1.323546 D    
C4    O15   1.411238 S    
P3    O9    1.548944 D    
C32   H22   1.078704 S    
C63   H37   1.085393 S    
C5    H30   1.112186 S    
O5    C6    1.402905 S    
C67   O35   1.220685 D    
C45   C46   1.356409 D    
C13   H16   1.112900 S    
C41   H48   1.080709 S    
C14   C67   1.499631 S    
C16   H44   1.110661 S    
C7    C59   1.502088 S    
C47   C48   1.345572 D    
P2    C48   1.850802 S    
C19   H23   1.078072 S    
P1    O1    1.549151 D    
O16   Ba2   2.942740 S    
C54   H27   1.083286 S    
N3    N4    1.335535 A    
C46   C50   1.497347 S    
C31   C42   1.420783 A    
C2    C3    1.557006 S    
C71   H52   1.085453 S    
C9    C60   1.500346 S    
C29   C30   1.433769 A    
C1    H1    1.113052 S    
C72   O40   1.216679 D    
P3    C44   1.891505 S    
Ba1   O13   2.834286 S    
P6    C40   1.862229 S    
P4    Ba2   3.405753 S    
C11   O22   1.404702 S    
C33   H46   1.066861 S    
C64   O32   1.220963 D    
C14   H17   1.109377 S    
O12   Ba2   2.828909 S    
C4    C74   1.509213 S    
C11   C62   1.483544 S    
C13   C14   1.526530 S    
P8    O24   1.748116 S    
C37   C39   1.395809 A    
P5    O17   1.743288 S    
O2    Ba1   2.964675 S    
N1    N2    1.332490 A    
C6    H32   1.107009 S    
C39   H47   1.077703 S    
C43   C44   1.514305 S    
C68   O36   1.221401 D    
C2    H2    1.104751 S    
C17   C29   1.415554 A    
C73   O41   1.221842 D    
Ba1   O20   2.943667 S    
O19   C13   1.406725 S    
C37   H50   1.077527 S    
C11   H13   1.105332 S    
C15   H18   1.109399 S    
P4    O15   1.760472 S    
C22   C23   1.431551 A    
C2    C69   1.484548 S    
C51   C52   1.424720 A    
C35   C36   1.435286 A    
H19   C16   1.110677 S    
C60   O28   1.220706 D    
P2    Ba1   3.435017 S    
C13   H15   1.111004 S    
C73   H55   1.085128 S    
C27   C28   1.430776 A    
P1    O5    1.753868 S    
O8    Ba1   2.725681 S    
C1    C61   1.502289 S    
P1    O2    1.571815 S    
C15   O24   1.403379 S    
C21   C22   1.428899 A    
C1    C10   1.561406 S    
C34   H25   1.077512 S    
O16   P7    1.770895 S    
O4    P6    1.544961 D    
P3    O11   1.775775 S    
C43   C72   1.460560 S    
P4    C27   1.917696 S    
C46   C47   1.515022 S    
C40   C41   1.396113 A    
C4    H3    1.109177 S    
C9    H10   1.105669 S    
C38   C39   1.398498 A    
C30   C38   1.419096 A    
C15   C16   1.519613 S    
C30   C31   1.424422 A    
C38   C40   1.418705 A    
N3    C50   1.361325 A    
C51   C55   1.424067 A    
P2    O7    1.512033 D    
O14   Ba2   2.835131 S    
C10   H12   1.086713 S    
C4    C5    1.544660 S    
C52   C56   1.395061 A    
P7    O22   1.776018 S    
O1    Ba1   2.828371 S    
P5    O18   1.542506 D    
C19   C21   1.394531 A    
P5    C53   1.840250 S    
C59   H33   1.085020 S    
P2    O20   1.553213 S    
C69   H49   1.074209 S    
O10   C8    1.404328 S    
C64   H38   1.082336 S    
C18   H24   1.076217 S    
C56   H28   1.082405 S    
C63   O31   1.220707 D    
Ba2   O20   2.758165 S    
C8    C9    1.537245 S    
C45   H26   1.086042 S    
C66   O34   1.219530 D    
C26   C27   1.398319 A    
C59   O27   1.219831 D    
P1    C42   1.883308 S    
C17   C20   1.429324 A    
C18   C32   1.389959 A    
C12   H14   1.114400 S    
C60   H34   1.085048 S    
C24   C35   1.421759 A    
C6    C7    1.533287 S    
O14   P8    1.731775 S    
C61   H35   1.080871 S    
O7    Ba1   2.851453 S    
O2    Ba2   2.834955 S    
C54   C55   1.407906 A    
C53   C56   1.394621 A    
C21   C68   1.473497 S    
Ba1   Ba2   4.681869 S    
O6    C10   1.417761 S    
P4    O13   1.571817 S    
C1    C65   1.506669 S    
C6    H5    1.102316 S    
C17   C18   1.415754 A    
C68   H45   1.074366 S    
C65   H39   1.077436 S    
C8    H9    1.109827 S    
P3    O8    1.783374 S    
C34   C35   1.408622 A    
C8    H8    1.102651 S    
P7    C52   1.854237 S    
C23   C28   1.429513 A    
O3    Ba1   2.835818 S    
C62   H36   1.085470 S    
C15   H43   1.110108 S    
C12   C64   1.499538 S    
C9    H11   1.102371 S    
C74   O42   1.221383 D    
C53   C54   1.399940 A    
C16   H20   1.110935 S    
O17   Ba2   2.726319 S    
C71   O39   1.217389 D    
O13   Ba2   2.965603 S    
C57   O25   1.212090 D    
C11   C12   1.556321 S    
C25   C26   1.409590 A    
C70   O38   1.219384 D    
C51   C71   1.483054 S    
C66   H40   1.082513 S    
P1    Ba1   3.405131 S    
C72   H53   1.075655 S    
C20   C24   1.415872 A    
C47   C70   1.482147 S    
Ba2   O21   2.851579 S    
C67   H41   1.085296 S    
P5    O19   1.746438 S    
C5    H4    1.104190 S    
C12   C63   1.511657 S    
C33   C34   1.390695 A    
C14   H42   1.109678 S    
C3    H54   1.090400 S    
C58   H31   1.084575 S    
O11   C2    1.419871 S    
O6    P6    1.772799 S    
C7    H6    1.105151 S    
O3    P6    1.767272 S    
C3    C66   1.514082 S    
