data_mof_unit_13574.cif
_audit_creation_date              2012-12-10T17:22:11-0500
_audit_creation_method            fapswitch 2.2
_symmetry_space_group_name_H-M    P1
_symmetry_Int_Tables_number       1
_space_group_crystal_system       triclinic
_cell_length_a                    15.882096
_cell_length_b                    10.866947
_cell_length_c                    9.579542
_cell_angle_alpha                 90.315003
_cell_angle_beta                  90.011893
_cell_angle_gamma                 92.519618
_cell_volume                      1651.70862717

loop_
_atom_site_label
_atom_site_type_symbol
_atom_type_description
_atom_site_fract_x
_atom_site_fract_y
_atom_site_fract_z
_atom_type_partial_charge
C1    C     C_R   0.506534 0.263016 0.500447 0.799573
C2    C     C_3   0.954087 0.568735 0.627707 -0.363481
C3    C     C_3   0.917170 0.501635 0.496878 0.228797
C4    C     C_3   0.951720 0.568523 0.365047 -0.412079
C5    C     C_3   0.049797 0.568618 0.361634 0.347776
C6    C     C_1   0.824990 0.501390 0.498915 -0.077991
C7    C     C_1   0.175075 0.500432 0.496871 -0.005131
C8    C     C_1   0.250619 0.500035 0.499375 -0.112326
C9    C     C_R   0.552479 0.121676 0.756115 -0.158328
C10   C     C_R   0.541663 0.063486 0.884453 -0.158364
C11   C     C_R   0.499926 0.948783 0.890693 -0.135608
C12   C     C_R   0.340276 0.499657 0.499994 0.828886
C13   C     C_R   0.476911 0.887027 0.767660 -0.156056
C14   C     C_R   0.496231 0.939243 0.635268 0.091466
C15   C     C_R   0.521567 0.065016 0.631389 0.095561
C16   C     C_R   0.513846 0.129146 0.503440 -0.119310
C17   C     C_R   0.501642 0.063083 0.378748 -0.208608
C18   C     C_R   0.494489 0.935918 0.380024 -0.208824
C19   C     C_R   0.491699 0.872209 0.506782 -0.111464
C20   C     C_R   0.611480 0.664839 0.145101 -0.150443
C21   C     C_R   0.665463 0.745873 0.073202 -0.215799
C22   C     C_R   0.665565 0.745613 0.929426 -0.189256
C23   C     C_R   0.495261 0.737572 0.501462 0.777163
C24   C     C_R   0.611561 0.664490 0.856699 -0.139122
C25   C     C_R   0.554730 0.581052 0.925608 0.193041
C26   C     C_R   0.554700 0.581103 0.075308 0.207671
C27   C     C_R   0.448130 0.422620 0.073453 -0.054779
C28   C     C_R   0.448164 0.422633 0.925436 -0.064123
C29   C     C_R   0.659734 0.500459 0.499962 0.800305
C30   C     C_3   0.051654 0.570005 0.624737 -0.453410
C31   C     C_3   0.044475 0.367260 0.499527 -0.346122
C32   C     C_3   0.947013 0.367724 0.494966 -0.365625
C33   C     C_1   0.749423 0.501000 0.499807 -0.170944
C34   C     C_3   0.082873 0.500822 0.493521 0.160993
Cu1   Cu    Cu3+1 0.499990 0.499990 0.640660 0.923748
Cu2   Cu    Cu3+1 0.500010 0.500010 0.359340 0.947144
H1    H     H_    0.930619 0.521600 0.723918 0.200415
H2    H     H_    0.077323 0.666998 0.624869 0.173899
H3    H     H_    0.933003 0.665032 0.631776 0.170417
H4    H     H_    0.923627 0.523184 0.270455 0.219004
H5    H     H_    0.497657 0.109621 0.279379 0.162611
H6    H     H_    0.586859 0.209690 0.756097 0.164516
H7    H     H_    0.563523 0.109021 0.979389 0.137154
H8    H     H_    0.486985 0.906230 0.990814 0.140521
H9    H     H_    0.441443 0.800805 0.779392 0.172224
H10   H     H_    0.489782 0.887553 0.280931 0.166363
H11   H     H_    0.405644 0.359224 0.128397 0.145359
H12   H     H_    0.074905 0.526176 0.721366 0.220019
H13   H     H_    0.617527 0.672077 0.255090 0.199506
H14   H     H_    0.707814 0.809056 0.129802 0.154423
H15   H     H_    0.707827 0.808797 0.873470 0.154263
H16   H     H_    0.617116 0.671991 0.746763 0.200497
H17   H     H_    0.405756 0.359164 0.869627 0.147776
H18   H     H_    0.068302 0.310345 0.412769 0.221401
H19   H     H_    0.064340 0.322678 0.597849 0.166401
H20   H     H_    0.920473 0.316080 0.586079 0.169368
H21   H     H_    0.923679 0.319202 0.398941 0.192805
H22   H     H_    0.074245 0.666145 0.366932 0.081133
H23   H     H_    0.931413 0.665287 0.364773 0.138132
N1    N     N_R   0.500800 0.501210 0.147910 -0.198460
N2    N     N_R   0.500820 0.501290 0.852040 -0.203616
O1    O     O_R   0.499990 0.319640 0.618810 -0.588997
O2    O     O_R   0.500000 0.319660 0.381240 -0.582509
O3    O     O_R   0.379430 0.499990 0.618840 -0.583246
O4    O     O_R   0.379440 0.500020 0.381260 -0.545204
O5    O     O_R   0.500000 0.680340 0.618760 -0.615061
O6    O     O_R   0.500010 0.680360 0.381190 -0.598772
O7    O     O_R   0.620560 0.499980 0.618740 -0.596657
O8    O     O_R   0.620570 0.500010 0.381160 -0.590474
S1    S     S_3+6 0.085778 0.509649 0.196104 -0.032484
O9    O     O_2   0.048425 0.382210 0.169396 -0.318557
O10   O     O_2   0.057809 0.593465 0.082398 -0.302825
O11   O     O_3   0.191518 0.506624 0.192629 -0.536330
H24   H     H_    0.205215 0.474732 0.098647 0.370056

loop_
_geom_bond_atom_site_label_1
_geom_bond_atom_site_label_2
_ccdc_geom_bond_type
C24   H16   S    
O11   H24   S    
Cu1   Cu2   S    
C3    C6    S    
C1    O1    A    
Cu2   O6    S    
C7    C8    T    
C9    H6    S    
C20   H13   S    
C5    H22   S    
C23   O5    A    
C30   H12   S    
C27   N1    A    
C12   O3    A    
C15   C16   A    
C29   C33   S    
C30   H2    S    
C18   C19   A    
C23   O6    A    
C2    H3    S    
C4    H4    S    
C16   C17   A    
Cu1   O3    S    
Cu2   O2    S    
C9    C10   A    
C28   N2    A    
C13   C14   A    
C32   H21   S    
C18   H10   S    
C21   H14   S    
C29   O8    A    
C30   C34   S    
C24   C25   A    
Cu2   O4    S    
Cu1   O5    S    
C25   C26   A    
C19   C23   S    
C5    S1    S    
C29   O7    A    
C31   C32   S    
C8    C12   S    
C5    C34   S    
S1    O11   S    
C17   C18   A    
C31   C34   S    
C11   H8    S    
Cu1   N2    S    
C1    C16   S    
C25   N2    A    
S1    O9    D    
C7    C34   S    
C22   C24   A    
C3    C4    S    
Cu2   O8    S    
C27   H11   S    
C1    O2    A    
C10   H7    S    
C14   C19   A    
C4    C5    S    
Cu2   N1    S    
C28   H17   S    
C12   O4    A    
C6    C33   T    
C2    C30   S    
C2    C3    S    
C9    C15   A    
C13   H9    S    
C11   C13   A    
C2    H1    S    
C20   C26   A    
Cu1   O7    S    
C4    H23   S    
Cu1   O1    S    
C31   H18   S    
C3    C32   S    
C17   H5    S    
C10   C11   A    
C20   C21   A    
C27   C28   A    
C14   C15   A    
S1    O10   D    
C31   H19   S    
C21   C22   A    
C26   N1    A    
C32   H20   S    
C22   H15   S    
