data_mof_unit_62713.cif
_audit_creation_date              2012-12-10T16:39:52-0500
_audit_creation_method            fapswitch 2.2
_symmetry_space_group_name_H-M    P1
_symmetry_Int_Tables_number       1
_space_group_crystal_system       triclinic
_cell_length_a                    10.864495
_cell_length_b                    10.875835
_cell_length_c                    16.055338
_cell_angle_alpha                 91.359705
_cell_angle_beta                  97.562166
_cell_angle_gamma                 98.842999
_cell_volume                      1856.37971708

loop_
_atom_site_label
_atom_site_type_symbol
_atom_type_description
_atom_site_fract_x
_atom_site_fract_y
_atom_site_fract_z
_atom_type_partial_charge
C1    C     C_R   0.838655 0.526001 0.519071 0.538590
C2    C     C_R   0.529155 0.835995 0.519595 0.525587
C3    C     C_R   0.472253 0.162716 0.481446 0.507473
C4    C     C_R   0.483939 0.515451 0.275812 0.513392
C5    C     C_R   0.515677 0.484348 0.723870 0.499099
C6    C     C_1   0.476326 0.521824 0.186281 0.002801
C7    C     C_2   0.461741 0.534493 0.020822 0.100633
C8    C     C_2   0.531088 0.469659 0.978621 -0.063257
C9    C     C_3   0.945270 0.251674 0.455748 0.014913
C10   C     C_3   0.841241 0.159847 0.403822 -0.254914
C11   C     C_3   0.837130 0.028370 0.435627 -0.466784
C12   C     C_1   0.526376 0.474023 0.888581 0.000286
C13   C     C_1   0.469763 0.527457 0.111021 -0.048270
C14   C     C_1   0.521807 0.478379 0.813354 0.025910
C15   C     C_2   0.023550 0.458263 0.477784 0.238406
C16   C     C_2   0.973009 0.535619 0.524353 -0.074374
C17   C     C_2   0.459672 0.026740 0.473669 0.080499
C18   C     C_2   0.538173 0.969495 0.524776 -0.062611
C19   C     C_R   0.160276 0.473968 0.482214 0.506737
H1    H     H_    0.592925 0.412080 0.011978 0.099501
H2    H     H_    0.927355 0.994506 0.430522 0.156136
H3    H     H_    0.759953 0.964549 0.397040 0.175752
H4    H     H_    0.819714 0.026970 0.502251 0.148242
H5    H     H_    0.302055 0.011211 0.385020 0.249022
H6    H     H_    0.409676 0.923410 0.364750 0.226643
H7    H     H_    0.030487 0.609527 0.565259 0.079302
H8    H     H_    0.611280 0.020908 0.570845 0.085395
H9    H     H_    0.288690 0.579816 0.990500 0.235777
H10   H     H_    0.406746 0.701917 0.002797 0.234667
H11   H     H_    0.925640 0.252924 0.522274 0.133110
H12   H     H_    0.037025 0.219225 0.453005 0.151553
H13   H     H_    0.748947 0.190477 0.407402 0.175050
H14   H     H_    0.857648 0.158665 0.336931 0.180391
N1    N     N_3   0.379807 0.610833 0.977442 -0.603669
N2    N     N_3   0.364491 0.955152 0.412762 -0.621265
O1    O     O_3   0.500000 0.500000 0.500000 -0.441476
O2    O     O_R   0.566290 0.591070 0.323460 -0.531693
O3    O     O_R   0.580640 0.419420 0.684420 -0.542115
O4    O     O_R   0.407770 0.434760 0.307690 -0.533514
O5    O     O_R   0.445300 0.554750 0.684430 -0.533190
O6    O     O_3   0.947050 0.370533 0.421903 -0.560895
O7    O     O_R   0.452040 0.769470 0.559450 -0.513984
O8    O     O_R   0.554760 0.223750 0.537250 -0.554628
O9    O     O_R   0.782610 0.596300 0.470630 -0.527939
O10   O     O_R   0.210590 0.410470 0.432660 -0.524021
O11   O     O_R   0.777820 0.443700 0.559450 -0.541190
O12   O     O_R   0.228980 0.549520 0.537250 -0.563659
O13   O     O_R   0.592170 0.786730 0.470640 -0.556392
O14   O     O_R   0.401030 0.220040 0.432660 -0.548648
Zn1   Zn    Zn3+2 0.408180 0.591840 0.569080 0.951927
Zn2   Zn    Zn3+2 0.608390 0.616500 0.442190 0.948264
Zn3   Zn    Zn3+2 0.381900 0.393170 0.419650 0.949723
Zn4   Zn    Zn3+2 0.601540 0.398480 0.569080 0.933706

loop_
_geom_bond_atom_site_label_1
_geom_bond_atom_site_label_2
_ccdc_geom_bond_type
C19   O10   A    
C2    C18   S    
C9    C10   S    
C1    O9    A    
C9    O6    S    
O1    Zn3   S    
C4    O4    A    
C8    C12   S    
O14   Zn3   S    
O11   Zn4   S    
O4    Zn3   S    
C3    O14   A    
H9    N1    S    
C7    C8    D    
C1    C16   S    
C5    O3    A    
C6    C13   T    
C15   C19   S    
O3    Zn4   S    
C3    O8    A    
C5    C14   S    
C8    H1    S    
O1    Zn2   S    
C9    H11   S    
C2    O7    A    
O5    Zn1   S    
O9    Zn2   S    
C11   H4    S    
O7    Zn1   S    
C3    C17   S    
O12   Zn1   S    
C16   H7    S    
O2    Zn2   S    
C7    N1    S    
C19   O12   A    
C1    O11   A    
H5    N2    S    
C10   C11   S    
C9    H12   S    
C4    C6    S    
C15   C16   D    
C10   H13   S    
C7    C13   S    
O1    Zn1   S    
C4    O2    A    
C15   O6    S    
C11   H3    S    
C17   C18   D    
C10   H14   S    
C5    O5    A    
H6    N2    S    
O1    Zn4   S    
C17   N2    S    
O10   Zn3   S    
C2    O13   A    
O8    Zn4   S    
H10   N1    S    
C11   H2    S    
O13   Zn2   S    
C18   H8    S    
C12   C14   T    
