data_mof_unit_12110.cif
_audit_creation_date              2012-12-11T15:07:05-0500
_audit_creation_method            fapswitch 2.2
_symmetry_space_group_name_H-M    P1
_symmetry_Int_Tables_number       1
_space_group_crystal_system       triclinic
_cell_length_a                    19.689513
_cell_length_b                    11.34119
_cell_length_c                    18.702354
_cell_angle_alpha                 90.000212
_cell_angle_beta                  89.888712
_cell_angle_gamma                 89.999985
_cell_volume                      4176.27467465

loop_
_atom_site_label
_atom_site_type_symbol
_atom_type_description
_atom_site_fract_x
_atom_site_fract_y
_atom_site_fract_z
_atom_type_partial_charge
C1    C     C_R   0.761386 0.523561 0.639214 0.543542
C2    C     C_3   0.253012 0.056726 0.563261 0.065443
C3    C     C_R   0.740017 0.035199 0.151990 0.553315
C4    C     C_R   0.775020 0.135055 0.859671 0.594739
C5    C     C_R   0.224981 0.135050 0.140330 0.594735
C6    C     C_R   0.275020 0.635055 0.859671 0.594739
C7    C     C_R   0.724981 0.635050 0.140330 0.594733
C8    C     C_R   0.965686 0.353482 0.855171 0.617351
C9    C     C_R   0.034313 0.353482 0.144829 0.617352
C10   C     C_R   0.465686 0.853482 0.855171 0.617351
C11   C     C_R   0.534313 0.853482 0.144829 0.617352
C12   C     C_3   0.687377 0.131973 0.465534 -0.235709
C13   C     C_3   0.246988 0.556726 0.436739 0.065442
C14   C     C_3   0.312622 0.131974 0.534467 -0.235708
C15   C     C_3   0.187378 0.631974 0.465533 -0.235708
C16   C     C_3   0.812622 0.631974 0.534467 -0.235708
C17   C     C_3   0.692827 0.145213 0.546716 -0.231549
C18   C     C_3   0.307172 0.145217 0.453285 -0.231549
C19   C     C_3   0.192828 0.645217 0.546716 -0.231549
C20   C     C_3   0.807172 0.645215 0.453284 -0.231548
C21   C     C_3   0.756433 0.939456 0.480612 -0.221347
C22   C     C_3   0.243566 0.939458 0.519388 -0.221347
C23   C     C_3   0.256432 0.439457 0.480612 -0.221347
C24   C     C_3   0.753012 0.556725 0.563260 0.065441
C25   C     C_3   0.743568 0.439456 0.519387 -0.221349
C26   C     C_3   0.760279 0.090593 0.574196 0.063848
C27   C     C_3   0.239720 0.090595 0.425805 0.063847
C28   C     C_3   0.260279 0.590594 0.574196 0.063846
C29   C     C_3   0.739721 0.590592 0.425803 0.063849
C30   C     C_3   0.753652 0.958383 0.561968 -0.259438
C31   C     C_3   0.246350 0.958385 0.438032 -0.259435
C32   C     C_3   0.253651 0.458384 0.561967 -0.259437
C33   C     C_R   0.238614 0.523562 0.360785 0.543542
C34   C     C_3   0.746350 0.458382 0.438032 -0.259439
C35   C     C_3   0.823068 0.133524 0.529693 -0.220823
C36   C     C_3   0.176931 0.133525 0.470309 -0.220827
C37   C     C_3   0.323069 0.633524 0.529693 -0.220826
C38   C     C_3   0.676932 0.633522 0.470306 -0.220822
C39   C     C_3   0.003908 0.205081 0.458982 -0.233766
C40   C     C_3   0.996093 0.205081 0.541018 -0.233767
C41   C     C_3   0.503908 0.705081 0.458982 -0.233766
C42   C     C_3   0.496092 0.705081 0.541018 -0.233767
C43   C     C_3   0.064490 0.405801 0.474118 -0.218290
C44   C     C_R   0.261385 0.023562 0.639214 0.543542
C45   C     C_3   0.935510 0.405800 0.525882 -0.218288
C46   C     C_3   0.564489 0.905801 0.474118 -0.218290
C47   C     C_3   0.435509 0.905800 0.525882 -0.218289
C48   C     C_3   0.941604 0.390260 0.444766 -0.259314
C49   C     C_3   0.058395 0.390262 0.555234 -0.259314
C50   C     C_3   0.441604 0.890260 0.444766 -0.259314
C51   C     C_3   0.558394 0.890262 0.555234 -0.259314
C52   C     C_3   0.010442 0.333181 0.430904 0.062405
C53   C     C_3   0.989558 0.333181 0.569096 0.062405
C54   C     C_3   0.510442 0.833181 0.430904 0.062405
C55   C     C_R   0.738614 0.023562 0.360786 0.543542
C56   C     C_3   0.489557 0.833180 0.569096 0.062406
C57   C     C_3   0.819215 0.028511 0.046926 -0.257385
C58   C     C_3   0.180785 0.028510 0.953074 -0.257382
C59   C     C_3   0.319215 0.528511 0.046926 -0.257385
C60   C     C_3   0.680785 0.528510 0.953074 -0.257382
C61   C     C_R   0.774246 0.121160 0.649483 0.550644
C62   C     C_R   0.225752 0.121163 0.350518 0.550644
C63   C     C_R   0.274247 0.621160 0.649483 0.550643
C64   C     C_R   0.725755 0.621157 0.350516 0.550637
C65   C     C_3   0.818222 0.024535 0.966402 -0.242052
C66   C     C_3   0.810685 0.130628 0.448747 -0.257593
C67   C     C_3   0.181778 0.024532 0.033599 -0.242050
C68   C     C_3   0.318223 0.524535 0.966402 -0.242052
C69   C     C_3   0.681778 0.524532 0.033599 -0.242049
C70   C     C_3   0.690936 0.018171 0.032018 -0.191865
C71   C     C_3   0.309064 0.018172 0.967979 -0.191855
C72   C     C_3   0.190936 0.518171 0.032018 -0.191865
C73   C     C_3   0.809064 0.518172 0.967979 -0.191855
C74   C     C_3   0.743659 0.203663 0.062353 -0.243301
C75   C     C_3   0.256339 0.203665 0.937650 -0.243311
C76   C     C_3   0.243659 0.703663 0.062353 -0.243301
C77   C     C_3   0.189315 0.130629 0.551255 -0.257592
C78   C     C_3   0.756339 0.703665 0.937650 -0.243311
C79   C     C_3   0.748875 0.072616 0.075986 0.006123
C80   C     C_3   0.251124 0.072617 0.924014 0.006129
C81   C     C_3   0.248875 0.572616 0.075986 0.006123
C82   C     C_3   0.751124 0.572617 0.924014 0.006129
C83   C     C_3   0.761095 0.107521 0.937004 0.067925
C84   C     C_3   0.238906 0.107515 0.062997 0.067932
C85   C     C_3   0.261095 0.607521 0.937004 0.067925
C86   C     C_3   0.738906 0.607515 0.062997 0.067932
C87   C     C_3   0.693318 0.049042 0.951162 0.245845
C88   C     C_3   0.310685 0.630628 0.448746 -0.257593
C89   C     C_3   0.306682 0.049035 0.048837 0.245842
C90   C     C_3   0.193318 0.549042 0.951162 0.245845
C91   C     C_3   0.806682 0.549035 0.048837 0.245842
C92   C     C_3   0.758519 0.222507 0.981662 -0.291245
C93   C     C_3   0.241483 0.222503 0.018342 -0.291244
C94   C     C_3   0.258519 0.722507 0.981662 -0.291245
C95   C     C_3   0.741483 0.722503 0.018342 -0.291244
C96   C     C_3   0.998583 0.478302 0.040642 -0.267991
C97   C     C_3   0.001418 0.478303 0.959358 -0.267989
C98   C     C_3   0.498583 0.978302 0.040642 -0.267991
C99   C     C_3   0.689314 0.630626 0.551253 -0.257593
C100  C     C_3   0.501418 0.978303 0.959358 -0.267989
C101  C     C_3   0.069570 0.294171 0.022728 -0.275141
C102  C     C_3   0.930430 0.294172 0.977271 -0.275148
C103  C     C_3   0.569570 0.794171 0.022728 -0.275141
C104  C     C_3   0.430430 0.794172 0.977271 -0.275148
C105  C     C_3   0.951563 0.272500 0.055629 0.233009
C106  C     C_3   0.048438 0.272501 0.944370 0.233011
C107  C     C_3   0.451563 0.772500 0.055629 0.233009
C108  C     C_3   0.548438 0.772501 0.944370 0.233011
C109  C     C_R   0.969170 0.342185 0.645087 0.550764
C110  C     C_3   0.746988 0.056725 0.436739 0.065442
C111  C     C_R   0.030830 0.342185 0.354913 0.550765
C112  C     C_R   0.469170 0.842185 0.645086 0.550765
C113  C     C_R   0.530830 0.842186 0.354913 0.550765
C114  C     C_3   0.012906 0.350484 0.068820 0.044318
C115  C     C_3   0.987094 0.350485 0.931180 0.044317
C116  C     C_3   0.512906 0.850484 0.068820 0.044318
C117  C     C_3   0.487094 0.850485 0.931180 0.044317
C118  C     C_R   0.759983 0.535201 0.848009 0.553315
C119  C     C_R   0.240016 0.535199 0.151990 0.553315
C120  C     C_R   0.259983 0.035201 0.848009 0.553314
Cr1   Cr    Cr6+3 0.885690 0.492860 0.745310 1.006130
Cr2   Cr    Cr6+3 0.111880 0.178590 0.246990 1.011302
Cr3   Cr    Cr6+3 0.388120 0.678590 0.753010 1.011302
Cr4   Cr    Cr6+3 0.611880 0.678590 0.246990 1.011302
Cr5   Cr    Cr6+3 0.114310 0.492860 0.254690 1.006130
Cr6   Cr    Cr6+3 0.385690 0.992860 0.745310 1.006130
Cr7   Cr    Cr6+3 0.614310 0.992860 0.254690 1.006130
Cr8   Cr    Cr6+3 0.729880 0.332270 0.748190 1.010066
Cr9   Cr    Cr6+3 0.270120 0.332270 0.251810 1.010064
Cr10  Cr    Cr6+3 0.229880 0.832270 0.748190 1.010066
Cr11  Cr    Cr6+3 0.770120 0.832270 0.251810 1.010064
Cr12  Cr    Cr6+3 0.888120 0.178590 0.753010 1.011301
F1    F     F_    0.686853 0.950477 0.909058 -0.618476
F2    F     F_    0.313147 0.950467 0.090937 -0.618485
F3    F     F_    0.186853 0.450477 0.909058 -0.618476
F4    F     F_    0.813147 0.450467 0.090937 -0.618485
F5    F     F_    0.599737 0.798011 0.896617 -0.603285
F6    F     F_    0.400264 0.798007 0.103383 -0.603284
F7    F     F_    0.099737 0.298011 0.896617 -0.603285
F8    F     F_    0.900264 0.298007 0.103383 -0.603285
H1    H     H_    0.638499 0.095190 0.450944 0.130779
H2    H     H_    0.191239 0.909032 0.530660 0.126339
H3    H     H_    0.552208 0.006956 0.940720 0.199039
H4    H     H_    0.607944 0.859733 0.020580 0.167463
H5    H     H_    0.392057 0.859737 0.979423 0.167472
H6    H     H_    0.107944 0.359733 0.020580 0.167463
H7    H     H_    0.892057 0.359737 0.979423 0.167472
H8    H     H_    0.965278 0.178015 0.063066 0.103439
H9    H     H_    0.034723 0.178016 0.936931 0.103439
H10   H     H_    0.465278 0.678015 0.063066 0.103439
H11   H     H_    0.534723 0.678016 0.936931 0.103439
H12   H     H_    0.912830 0.211907 0.952755 0.084386
H13   H     H_    0.308758 0.409029 0.469337 0.126341
H14   H     H_    0.087168 0.211904 0.047244 0.084384
H15   H     H_    0.412830 0.711907 0.952755 0.084386
H16   H     H_    0.587168 0.711904 0.047244 0.084384
H17   H     H_    0.648944 0.101725 0.572828 0.111447
H18   H     H_    0.351056 0.101731 0.427173 0.111447
H19   H     H_    0.148944 0.601732 0.572828 0.111448
H20   H     H_    0.851057 0.601729 0.427173 0.111445
H21   H     H_    0.721919 0.869500 0.463979 0.107555
H22   H     H_    0.278077 0.869498 0.536022 0.107555
H23   H     H_    0.221919 0.369501 0.463979 0.107555
H24   H     H_    0.691244 0.409024 0.530661 0.126341
H25   H     H_    0.778082 0.369502 0.536020 0.107555
H26   H     H_    0.705483 0.924464 0.584778 0.112365
H27   H     H_    0.294522 0.924470 0.415225 0.112366
H28   H     H_    0.205480 0.424467 0.584777 0.112365
H29   H     H_    0.794522 0.424466 0.415224 0.112364
H30   H     H_    0.854922 0.090548 0.420996 0.127180
H31   H     H_    0.145077 0.090551 0.579006 0.127180
H32   H     H_    0.354922 0.590548 0.420995 0.127180
H33   H     H_    0.645077 0.590545 0.579003 0.127180
H34   H     H_    0.804114 0.220816 0.427171 0.109331
H35   H     H_    0.795829 0.910448 0.588595 0.124121
H36   H     H_    0.195887 0.220819 0.572830 0.109331
H37   H     H_    0.304114 0.720817 0.427171 0.109331
H38   H     H_    0.695885 0.720815 0.572828 0.109330
H39   H     H_    0.841648 0.219537 0.547279 0.110348
H40   H     H_    0.158350 0.219536 0.452723 0.110347
H41   H     H_    0.341649 0.719536 0.547279 0.110349
H42   H     H_    0.658352 0.719534 0.452720 0.110350
H43   H     H_    0.204175 0.910447 0.411402 0.124121
H44   H     H_    0.295827 0.410448 0.588595 0.124120
H45   H     H_    0.704175 0.410444 0.411403 0.124119
H46   H     H_    0.046553 0.151129 0.442167 0.130720
H47   H     H_    0.953448 0.151128 0.557832 0.130720
H48   H     H_    0.546553 0.651129 0.442168 0.130720
H49   H     H_    0.361501 0.095192 0.549056 0.130778
H50   H     H_    0.453448 0.651128 0.557832 0.130720
H51   H     H_    0.959475 0.161347 0.434392 0.110593
H52   H     H_    0.040526 0.161348 0.565608 0.110592
H53   H     H_    0.459475 0.661346 0.434392 0.110593
H54   H     H_    0.540526 0.661348 0.565608 0.110592
H55   H     H_    0.616284 0.890720 0.455317 0.110349
H56   H     H_    0.383714 0.890722 0.544684 0.110349
H57   H     H_    0.116284 0.390722 0.455316 0.110349
H58   H     H_    0.883716 0.390722 0.544685 0.110350
H59   H     H_    0.600135 0.834912 0.576249 0.111048
H60   H     H_    0.138499 0.595191 0.450945 0.130778
H61   H     H_    0.399865 0.834909 0.423752 0.111048
H62   H     H_    0.100135 0.334912 0.576248 0.111048
H63   H     H_    0.899865 0.334909 0.423752 0.111048
H64   H     H_    0.938274 0.477269 0.417779 0.126574
H65   H     H_    0.061724 0.477270 0.582221 0.126575
H66   H     H_    0.438274 0.977269 0.417779 0.126574
H67   H     H_    0.561723 0.977271 0.582221 0.126576
H68   H     H_    0.947639 0.499603 0.536182 0.130396
H69   H     H_    0.052360 0.499603 0.463818 0.130396
H70   H     H_    0.447638 0.999602 0.536182 0.130396
H71   H     H_    0.861501 0.595193 0.549056 0.130778
H72   H     H_    0.552361 0.999603 0.463818 0.130396
H73   H     H_    0.835160 0.939974 0.065093 0.137251
H74   H     H_    0.164840 0.939973 0.934906 0.137252
H75   H     H_    0.335160 0.439973 0.065093 0.137251
H76   H     H_    0.664840 0.439973 0.934906 0.137252
H77   H     H_    0.687661 0.220162 0.440130 0.109408
H78   H     H_    0.312339 0.220163 0.559872 0.109409
H79   H     H_    0.187661 0.720163 0.440128 0.109408
H80   H     H_    0.812337 0.720163 0.559871 0.109409
H81   H     H_    0.859631 0.088790 0.065687 0.175927
H82   H     H_    0.863735 0.068250 0.539879 0.126455
H83   H     H_    0.140369 0.088789 0.934314 0.175920
H84   H     H_    0.359631 0.588790 0.065687 0.175927
H85   H     H_    0.640369 0.588789 0.934314 0.175920
H86   H     H_    0.870287 0.043730 0.947809 0.123381
H87   H     H_    0.129714 0.043728 0.052192 0.123382
H88   H     H_    0.370287 0.543730 0.947809 0.123381
H89   H     H_    0.629714 0.543728 0.052192 0.123382
H90   H     H_    0.808587 0.933270 0.948055 0.171125
H91   H     H_    0.191413 0.933267 0.051944 0.171124
H92   H     H_    0.308586 0.433270 0.948055 0.171125
H93   H     H_    0.136265 0.068248 0.460122 0.126455
H94   H     H_    0.691413 0.433267 0.051944 0.171124
H95   H     H_    0.699614 0.926625 0.040010 0.129692
H96   H     H_    0.300389 0.926625 0.959981 0.129680
H97   H     H_    0.199614 0.426625 0.040010 0.129692
H98   H     H_    0.800389 0.426625 0.959981 0.129680
H99   H     H_    0.691901 0.235918 0.076125 0.112133
H100  H     H_    0.308097 0.235921 0.923876 0.112134
H101  H     H_    0.191901 0.735918 0.076125 0.112133
H102  H     H_    0.808097 0.735921 0.923876 0.112134
H103  H     H_    0.780215 0.251017 0.096601 0.272284
H104  H     H_    0.363735 0.568248 0.539879 0.126456
H105  H     H_    0.219782 0.251020 0.903404 0.272285
H106  H     H_    0.280215 0.751017 0.096601 0.272284
H107  H     H_    0.719782 0.751020 0.903404 0.272285
H108  H     H_    0.808769 0.254823 0.978712 0.152905
H109  H     H_    0.191233 0.254819 0.021297 0.152887
H110  H     H_    0.308769 0.754823 0.978712 0.152905
H111  H     H_    0.691233 0.754819 0.021297 0.152887
H112  H     H_    0.721602 0.284588 0.958638 0.110732
H113  H     H_    0.278400 0.284583 0.041367 0.110735
H114  H     H_    0.221602 0.784588 0.958638 0.110732
H115  H     H_    0.636265 0.568246 0.460119 0.126458
H116  H     H_    0.778400 0.784583 0.041367 0.110735
H117  H     H_    0.641357 0.044143 0.054325 0.089818
H118  H     H_    0.358643 0.044149 0.945673 0.089818
H119  H     H_    0.141357 0.544143 0.054325 0.089818
H120  H     H_    0.858643 0.544149 0.945673 0.089818
H121  H     H_    0.687812 0.237359 0.562081 0.137736
H122  H     H_    0.312186 0.237363 0.437921 0.137734
H123  H     H_    0.187815 0.737364 0.562079 0.137736
H124  H     H_    0.812186 0.737361 0.437920 0.137736
H125  H     H_    0.651350 0.110719 0.937548 0.114987
H126  H     H_    0.808758 0.909028 0.469336 0.126341
H127  H     H_    0.348651 0.110711 0.062453 0.114986
H128  H     H_    0.151350 0.610719 0.937548 0.114987
H129  H     H_    0.848651 0.610711 0.062453 0.114986
H130  H     H_    0.034119 0.546466 0.059965 0.122981
H131  H     H_    0.965882 0.546466 0.940036 0.122980
H132  H     H_    0.534119 0.046466 0.059965 0.122981
H133  H     H_    0.465882 0.046466 0.940036 0.122980
H134  H     H_    0.947793 0.506956 0.059281 0.199033
H135  H     H_    0.052208 0.506956 0.940720 0.199039
H136  H     H_    0.447793 0.006956 0.059281 0.199033
O1    O     O_R   0.957210 0.449410 0.665480 -0.528051
O2    O     O_R   0.167480 0.095300 0.164000 -0.528583
O3    O     O_R   0.332520 0.595300 0.836000 -0.528582
O4    O     O_R   0.667480 0.595300 0.164000 -0.528584
O5    O     O_R   0.946380 0.253940 0.826940 -0.512693
O6    O     O_R   0.053620 0.253940 0.173060 -0.512690
O7    O     O_R   0.446380 0.753940 0.826940 -0.512693
O8    O     O_R   0.553620 0.753940 0.173060 -0.512690
O9    O     O_3   0.834560 0.334570 0.748840 -0.294553
O10   O     O_3   0.165440 0.334570 0.251160 -0.294552
O11   O     O_3   0.334560 0.834570 0.748840 -0.294553
O12   O     O_R   0.042790 0.449410 0.334520 -0.528051
O13   O     O_3   0.665440 0.834570 0.251160 -0.294550
O14   O     O_R   0.820730 0.541240 0.668250 -0.514661
O15   O     O_R   0.179270 0.541240 0.331750 -0.514661
O16   O     O_R   0.320730 0.041240 0.668250 -0.514661
O17   O     O_R   0.679270 0.041240 0.331750 -0.514661
O18   O     O_R   0.714240 0.455060 0.663710 -0.529781
O19   O     O_R   0.285760 0.455060 0.336290 -0.529781
O20   O     O_R   0.214240 0.955060 0.663710 -0.529781
O21   O     O_R   0.785760 0.955060 0.336290 -0.529780
O22   O     O_R   0.736780 0.204870 0.675910 -0.511025
O23   O     O_R   0.457210 0.949410 0.665480 -0.528051
O24   O     O_R   0.263220 0.204870 0.324090 -0.511026
O25   O     O_R   0.236780 0.704870 0.675910 -0.511024
O26   O     O_R   0.763220 0.704870 0.324090 -0.511024
O27   O     O_R   0.833070 0.087590 0.673490 -0.526847
O28   O     O_R   0.166930 0.087590 0.326510 -0.526848
O29   O     O_R   0.333070 0.587590 0.673490 -0.526846
O30   O     O_R   0.666930 0.587590 0.326510 -0.526847
O31   O     O_R   0.946890 0.246800 0.676300 -0.508781
O32   O     O_R   0.053110 0.246800 0.323700 -0.508782
O33   O     O_R   0.446890 0.746800 0.676300 -0.508781
O34   O     O_R   0.542790 0.949410 0.334520 -0.528051
O35   O     O_R   0.553110 0.746800 0.323700 -0.508781
O36   O     O_R   0.956650 0.457120 0.827980 -0.518777
O37   O     O_R   0.043350 0.457120 0.172020 -0.518779
O38   O     O_R   0.456650 0.957120 0.827980 -0.518777
O39   O     O_R   0.543350 0.957120 0.172020 -0.518779
O40   O     O_R   0.820220 0.548390 0.818890 -0.513507
O41   O     O_R   0.179780 0.548390 0.181110 -0.513507
O42   O     O_R   0.320220 0.048390 0.818890 -0.513507
O43   O     O_R   0.679780 0.048390 0.181110 -0.513507
O44   O     O_R   0.713680 0.462770 0.826210 -0.522612
O45   O     O_R   0.736260 0.212010 0.826560 -0.508594
O46   O     O_R   0.286320 0.462770 0.173790 -0.522610
O47   O     O_R   0.213680 0.962770 0.826210 -0.522612
O48   O     O_R   0.786320 0.962770 0.173790 -0.522610
O49   O     O_R   0.263740 0.212010 0.173440 -0.508598
O50   O     O_R   0.236260 0.712010 0.826560 -0.508594
O51   O     O_R   0.763740 0.712010 0.173440 -0.508599
O52   O     O_R   0.832520 0.095300 0.836000 -0.528582

loop_
_geom_bond_atom_site_label_1
_geom_bond_atom_site_label_2
_ccdc_geom_bond_type
C73   C82   S    
Cr11  O26   S    
C3    C79   S    
C21   C110  S    
C88   H37   S    
Cr7   O13   S    
C40   H47   S    
C57   H81   S    
C71   H118  S    
Cr8   O18   S    
C48   H63   S    
C6    C85   S    
C1    O18   A    
Cr2   O28   S    
C9    C114  S    
Cr1   O1    S    
C18   H122  S    
C94   H114  S    
Cr3   O3    S    
C45   C48   S    
C25   H24   S    
Cr10  O20   S    
C74   C92   S    
C41   H53   S    
C76   C94   S    
C14   H49   S    
C2    C22   S    
C3    O43   A    
C97   C115  S    
C64   O30   A    
C25   C34   S    
Cr4   O8    S    
Cr12  O5    S    
C29   C64   S    
C67   H91   S    
C37   H104  S    
C96   C114  S    
C75   H100  S    
C11   O8    A    
C85   C90   S    
C84   C93   S    
C112  O23   A    
C27   C31   S    
C28   C32   S    
C38   C99   S    
C35   C66   S    
C118  O44   A    
C119  O41   A    
C13   C33   S    
C94   H110  S    
C108  H11   S    
C39   H51   S    
C78   C82   S    
C40   H52   S    
C77   H31   S    
C119  O46   A    
C37   H41   S    
C43   H57   S    
C66   C110  S    
C97   H135  S    
C30   H26   S    
C33   O19   A    
C98   H136  S    
C65   H90   S    
C31   H27   S    
C74   C79   S    
C23   H13   S    
Cr10  O25   S    
C82   C118  S    
Cr12  O31   S    
Cr6   O38   S    
C75   C93   S    
C104  C117  S    
C53   C109  S    
C5    O49   A    
C70   C79   S    
C58   H83   S    
C68   H88   S    
C81   C119  S    
C61   O27   A    
C106  C115  S    
C86   C91   S    
C107  F6    S    
C103  C116  S    
C36   H93   S    
C19   H19   S    
C20   H124  S    
C105  F8    S    
C106  F7    S    
Cr1   O36   S    
C49   C53   S    
C76   H101  S    
C59   H75   S    
C70   H95   S    
C2    C14   S    
C86   C95   S    
C28   C63   S    
C58   C67   S    
C48   C52   S    
C20   H20   S    
C72   H97   S    
C66   H34   S    
C100  C117  S    
C104  C107  S    
Cr7   O39   S    
C112  O33   A    
C96   H134  S    
Cr4   O30   S    
C12   C110  S    
C92   H108  S    
C113  O35   A    
C108  F5    S    
C51   H67   S    
C43   C52   S    
C7    C86   S    
Cr9   O19   S    
C4    O52   A    
C12   H1    S    
C13   C23   S    
Cr4   O35   S    
C6    O50   A    
C70   H117  S    
C91   F4    S    
C2    C44   S    
Cr12  O27   S    
C29   C38   S    
C1    O14   A    
C111  O12   A    
C17   H17   S    
Cr11  O48   S    
Cr7   O17   S    
C45   C53   S    
Cr2   O32   S    
C68   C85   S    
C107  H10   S    
C22   H2    S    
C43   H69   S    
C70   C87   S    
Cr2   O2    S    
C47   C50   S    
C9    O37   A    
C92   H112  S    
C35   H39   S    
Cr11  O13   S    
C99   H38   S    
C59   H84   S    
C39   C40   S    
C5    C84   S    
Cr6   O23   S    
C105  H8    S    
C46   C51   S    
C27   C62   S    
C69   H89   S    
C102  H7    S    
C72   C90   S    
C103  H16   S    
Cr12  O9    S    
C67   H87   S    
C8    O36   A    
C19   C28   S    
Cr5   O15   S    
C34   H29   S    
C21   H126  S    
C46   H72   S    
Cr6   O16   S    
C50   H66   S    
C57   H73   S    
C26   C30   S    
C77   H36   S    
C7    O51   A    
C4    O45   A    
C15   H79   S    
C101  C106  S    
C118  O40   A    
C108  C117  S    
C16   H71   S    
C14   H78   S    
C5    O2    A    
C12   H77   S    
Cr11  O51   S    
C45   H68   S    
C48   H64   S    
C38   H42   S    
C62   O28   A    
C60   H76   S    
C73   H98   S    
C10   C117  S    
C15   H60   S    
C60   C69   S    
C9    O6    A    
C16   H80   S    
C104  H15   S    
C107  C116  S    
C55   O17   A    
Cr12  O52   S    
C1    C24   S    
C95   H116  S    
C68   H92   S    
C102  H12   S    
C47   C56   S    
C83   C87   S    
C41   C42   S    
C37   C88   S    
C36   H40   S    
Cr1   O40   S    
C15   C19   S    
C50   C54   S    
Cr1   O14   S    
C26   C61   S    
Cr8   O9    S    
C36   C77   S    
C22   H22   S    
C93   H113  S    
Cr8   O45   S    
C102  C105  S    
C87   F1    S    
Cr5   O41   S    
C102  C115  S    
C42   C56   S    
Cr10  O50   S    
C39   H46   S    
C55   O21   A    
Cr7   O43   S    
Cr8   O44   S    
C12   C17   S    
C61   O22   A    
C72   C81   S    
C58   C80   S    
C38   H115  S    
C101  C114  S    
C6    O3    A    
C66   H30   S    
Cr4   O4    S    
C64   O26   A    
C47   H56   S    
Cr4   O13   S    
C35   H82   S    
C95   H111  S    
C97   H131  S    
C98   H132  S    
C29   C34   S    
C41   H48   S    
C89   H127  S    
C10   O7    A    
C34   H45   S    
C90   H128  S    
C18   H18   S    
C109  O1    A    
C99   H33   S    
C78   C95   S    
C46   C54   S    
Cr3   O33   S    
Cr1   O9    S    
C11   C116  S    
Cr2   O6    S    
Cr3   O11   S    
C87   H125  S    
C74   H103  S    
C10   O38   A    
C49   H65   S    
C98   C100  S    
C7    O4    A    
C30   H35   S    
Cr10  O47   S    
C50   H61   S    
Cr7   O34   S    
C109  O31   A    
Cr5   O10   S    
Cr9   O49   S    
C59   C81   S    
C57   C65   S    
Cr10  O11   S    
C100  H3    S    
C27   C36   S    
C21   C30   S    
C113  O34   A    
C25   H25   S    
C23   C32   S    
C2    C77   S    
C4    C83   S    
C65   H86   S    
C17   H121  S    
C19   H123  S    
Cr11  O21   S    
C80   C120  S    
C88   H32   S    
C24   C99   S    
C62   O24   A    
C14   C18   S    
C63   O29   A    
C103  H4    S    
C73   H120  S    
C46   H55   S    
C83   C92   S    
C78   H102  S    
C17   C26   S    
C28   C37   S    
Cr9   O10   S    
C51   C56   S    
C90   F3    S    
C65   C83   S    
C120  O47   A    
C96   H130  S    
C54   C113  S    
C60   H85   S    
C74   H99   S    
C42   H54   S    
C42   H50   S    
C8    C115  S    
C60   C82   S    
C103  C108  S    
C120  O42   A    
C75   C80   S    
C75   H105  S    
C16   C20   S    
C39   C52   S    
Cr5   O12   S    
C67   C84   S    
C16   C24   S    
C106  H9    S    
Cr6   O11   S    
C57   C79   S    
C71   C80   S    
C33   O15   A    
C93   H109  S    
C23   H23   S    
C20   C29   S    
C111  O32   A    
C101  H6    S    
C21   H21   S    
C22   C31   S    
C105  C114  S    
C24   C25   S    
C73   C91   S    
Cr5   O37   S    
Cr6   O42   S    
C43   C49   S    
C52   C111  S    
C45   H58   S    
C69   H94   S    
C59   C68   S    
C85   C94   S    
C98   C116  S    
C3    O48   A    
C71   C89   S    
C96   C97   S    
C78   H107  S    
C71   H96   S    
C51   H59   S    
C72   H119  S    
C63   O25   A    
C13   C15   S    
C55   C110  S    
C84   C89   S    
C58   H74   S    
C49   H62   S    
C89   F2    S    
C44   O16   A    
C31   H43   S    
C44   O20   A    
C104  H5    S    
C32   H44   S    
C76   H106  S    
C18   C27   S    
C101  H14   S    
C91   H129  S    
C76   C81   S    
Cr8   O22   S    
Cr9   O24   S    
C100  H133  S    
Cr3   O29   S    
C32   H28   S    
Cr9   O46   S    
Cr2   O10   S    
Cr3   O7    S    
C8    O5    A    
C11   O39   A    
C13   C88   S    
C26   C35   S    
C41   C54   S    
C40   C53   S    
C47   H70   S    
C56   C112  S    
C69   C86   S    
