data_mof_unit_21130.cif
_audit_creation_date              2012-12-10T17:00:45-0500
_audit_creation_method            fapswitch 2.2
_symmetry_space_group_name_H-M    P1
_symmetry_Int_Tables_number       1
_space_group_crystal_system       triclinic
_cell_length_a                    10.337138
_cell_length_b                    10.641818
_cell_length_c                    10.040952
_cell_angle_alpha                 88.925611
_cell_angle_beta                  101.169663
_cell_angle_gamma                 90.468431
_cell_volume                      1083.43943032

loop_
_atom_site_label
_atom_site_type_symbol
_atom_type_description
_atom_site_fract_x
_atom_site_fract_y
_atom_site_fract_z
_atom_type_partial_charge
C1    C     C_R   0.489737 0.262534 0.499121 0.996680
C2    C     C_2   0.115366 0.476274 0.423617 -0.388397
C3    C     C_2   0.068074 0.378288 0.486276 0.605607
C4    C     C_2   0.886057 0.469552 0.575174 0.315935
C5    C     C_2   0.927147 0.382396 0.495499 -0.116703
C6    C     C_2   0.407233 0.930090 0.397596 0.442563
C7    C     C_3   0.366743 0.337490 0.851644 -0.112877
C8    C     C_3   0.095754 0.190879 0.614443 -0.392561
C9    C     C_3   0.940460 0.654667 0.693291 -0.303030
C10   C     C_3   0.188453 0.919660 0.293880 -0.296104
C11   C     C_3   0.471035 0.066031 0.168359 -0.299590
C12   C     C_2   0.496376 0.870607 0.492049 -0.515242
C13   C     C_2   0.423327 0.066773 0.383008 0.461592
C14   C     C_2   0.456449 0.131829 0.497778 -0.487137
C15   C     C_2   0.570127 0.577020 0.938484 0.045285
C16   C     C_2   0.552250 0.589236 0.083373 -0.089532
C17   C     C_R   0.256696 0.496892 0.445995 0.979502
C18   C     C_R   0.499459 0.737641 0.498504 1.000232
C19   C     C_R   0.743513 0.494883 0.553858 0.789961
H1    H     H_    0.588913 0.673730 0.137063 0.129067
H2    H     H_    0.321187 0.328538 0.743679 0.240822
H3    H     H_    0.296946 0.296038 0.911594 0.139225
H4    H     H_    0.014964 0.136951 0.550981 0.166496
H5    H     H_    0.061210 0.237462 0.699445 0.191907
H6    H     H_    0.172756 0.122368 0.660087 0.182887
H7    H     H_    0.864861 0.653521 0.758305 0.172051
H8    H     H_    0.904516 0.706917 0.596125 0.120705
H9    H     H_    0.027463 0.706425 0.748602 0.203281
H10   H     H_    0.182326 0.003214 0.225064 0.204301
H11   H     H_    0.164546 0.945562 0.393391 0.148969
H12   H     H_    0.488564 0.414556 0.104316 0.221223
H13   H     H_    0.112138 0.851752 0.246290 0.175490
H14   H     H_    0.419764 0.978227 0.129301 0.200802
H15   H     H_    0.575189 0.046355 0.217746 0.140594
H16   H     H_    0.473575 0.129006 0.079680 0.162870
H17   H     H_    0.050668 0.549674 0.372416 0.096638
H18   H     H_    0.572697 0.919428 0.562178 0.090853
H19   H     H_    0.457746 0.087103 0.596357 0.111070
H20   H     H_    0.644481 0.635520 0.904932 0.070700
H21   H     H_    0.884594 0.249260 0.348560 0.184181
H22   H     H_    0.795096 0.239455 0.471379 0.158536
H23   H     H_    0.459669 0.282202 0.876571 0.099721
N1    N     N_2   0.501330 0.501330 0.852460 0.083144
N2    N     N_2   0.501370 0.501360 0.148130 -0.156228
N3    N     N_3   0.834823 0.302648 0.408941 -0.450850
O1    O     O_R   0.499980 0.319060 0.613030 -0.651102
O2    O     O_3   0.152105 0.278158 0.534585 -0.627160
O3    O     O_3   0.979811 0.531389 0.671060 -0.596916
O4    O     O_3   0.312936 0.861803 0.309337 -0.590230
O5    O     O_3   0.401864 0.127154 0.256451 -0.578826
O6    O     O_R   0.500020 0.319100 0.386910 -0.551914
O7    O     O_R   0.317800 0.500000 0.570840 -0.561780
O8    O     O_R   0.317840 0.500040 0.344720 -0.582646
O9    O     O_R   0.499980 0.680900 0.613090 -0.625214
O10   O     O_R   0.500020 0.680940 0.386970 -0.578194
O11   O     O_R   0.682160 0.499960 0.655280 -0.625402
O12   O     O_R   0.682200 0.500000 0.429160 -0.611219
O13   O     O_3   0.385999 0.464746 0.885079 -0.524230
Zn1   Zn    Zn3+2 0.499970 0.499970 0.650990 0.981719
Zn2   Zn    Zn3+2 0.500030 0.500030 0.349010 0.998472

loop_
_geom_bond_atom_site_label_1
_geom_bond_atom_site_label_2
_ccdc_geom_bond_type
C19   O11   A    
C1    C14   S    
O7    Zn1   S    
C17   O8    A    
O1    Zn1   S    
C14   H19   S    
C7    H3    S    
C16   N2    D    
C7    O13   S    
O11   Zn1   S    
N1    Zn1   S    
C16   H1    S    
C11   H16   S    
C2    C3    D    
C8    O2    S    
C15   N1    D    
C11   O5    S    
C7    H2    S    
O10   Zn2   S    
C19   O12   A    
C2    C17   S    
C8    H6    S    
C1    O6    A    
C10   H10   S    
C15   H20   S    
C10   O4    S    
C18   O10   A    
N2    Zn2   S    
C17   O7    A    
C3    O2    S    
C8    H5    S    
O8    Zn2   S    
C9    H7    S    
O9    Zn1   S    
C6    O4    S    
C6    C12   D    
H21   N3    S    
C1    O1    A    
H12   N2    S    
C18   O9    A    
C12   C18   S    
C15   C16   S    
C10   H13   S    
C11   H14   S    
C8    H4    S    
C9    H8    S    
C9    O3    S    
C4    O3    S    
C7    H23   S    
C2    H17   S    
C12   H18   S    
C10   H11   S    
O12   Zn2   S    
H22   N3    S    
O6    Zn2   S    
N1    O13   S    
C3    C5    S    
C13   C14   D    
C4    C19   S    
C5    N3    S    
C11   H15   S    
C13   O5    S    
C9    H9    S    
C4    C5    D    
C6    C13   S    
