data_mof_unit_28657.cif
_audit_creation_date              2012-12-11T14:07:37-0500
_audit_creation_method            fapswitch 2.2
_symmetry_space_group_name_H-M    P1
_symmetry_Int_Tables_number       1
_space_group_crystal_system       triclinic
_cell_length_a                    19.861701
_cell_length_b                    17.059299
_cell_length_c                    15.410523
_cell_angle_alpha                 89.55066
_cell_angle_beta                  53.388746
_cell_angle_gamma                 89.805536
_cell_volume                      4191.1628949

loop_
_atom_site_label
_atom_site_type_symbol
_atom_type_description
_atom_site_fract_x
_atom_site_fract_y
_atom_site_fract_z
_atom_type_partial_charge
Br1   Br    Br    0.182333 0.152900 0.441949 -0.437550
Br2   Br    Br    0.122581 0.931806 0.486806 -0.412760
Br3   Br    Br    0.682333 0.652900 0.441948 -0.437551
Br4   Br    Br    0.622580 0.431806 0.486806 -0.412760
Br5   Br    Br    0.490808 0.297321 0.340098 -0.466942
Br6   Br    Br    0.393333 0.701060 0.337570 -0.497097
Br7   Br    Br    0.990808 0.797321 0.340098 -0.466942
Br8   Br    Br    0.893333 0.201061 0.337571 -0.497097
C1    C     C_R   0.343239 0.177933 0.043456 -0.082172
C2    C     C_R   0.645780 0.814457 0.077841 0.099431
C3    C     C_R   0.192471 0.660213 0.014246 0.099124
C4    C     C_R   0.145780 0.314457 0.077841 0.099431
C5    C     C_R   0.684654 0.858165 0.676720 0.049829
C6    C     C_R   0.607091 0.183965 0.696982 0.089139
C7    C     C_R   0.184654 0.358165 0.676720 0.049828
C8    C     C_R   0.107091 0.683965 0.696983 0.089140
C9    C     C_3   0.250447 0.184445 0.489328 0.215632
C10   C     C_3   0.189221 0.868930 0.516633 0.221803
C11   C     C_3   0.750447 0.684445 0.489328 0.215633
C12   C     C_R   0.376052 0.802686 0.996397 -0.125088
C13   C     C_3   0.689221 0.368930 0.516632 0.221803
C14   C     C_3   0.198699 0.231278 0.593764 -0.423225
C15   C     C_3   0.132045 0.820855 0.622117 -0.448290
C16   C     C_3   0.698699 0.731278 0.593764 -0.423225
C17   C     C_3   0.632045 0.320855 0.622117 -0.448289
C18   C     C_3   0.380671 0.250808 0.447810 0.201842
C19   C     C_3   0.305311 0.769416 0.451038 0.183465
C20   C     C_3   0.880671 0.750808 0.447810 0.201843
C21   C     C_3   0.805311 0.269417 0.451038 0.183465
C22   C     C_3   0.805960 0.809771 0.375595 -0.393445
C23   C     C_R   0.843239 0.677933 0.043456 -0.082172
C24   C     C_3   0.701259 0.252556 0.407075 -0.383803
C25   C     C_3   0.305960 0.309771 0.375595 -0.393446
C26   C     C_3   0.201259 0.752557 0.407076 -0.383802
C27   C     C_3   0.330996 0.231630 0.401807 0.041393
C28   C     C_3   0.252283 0.813210 0.421250 0.044562
C29   C     C_3   0.830996 0.731630 0.401807 0.041393
C30   C     C_3   0.752283 0.313210 0.421250 0.044562
C31   C     C_3   0.737772 0.813954 0.575837 0.150439
C32   C     C_3   0.654839 0.232653 0.598821 0.162304
C33   C     C_3   0.237772 0.313954 0.575837 0.150440
C34   C     C_R   0.876052 0.302685 0.996397 -0.125088
C35   C     C_3   0.154839 0.732653 0.598821 0.162304
C36   C     C_3   0.827020 0.805146 0.546481 -0.478819
C37   C     C_3   0.747734 0.221749 0.554363 -0.498779
C38   C     C_3   0.327020 0.305146 0.546481 -0.478818
C39   C     C_3   0.247734 0.721749 0.554363 -0.498779
C40   C     C_R   0.351099 0.827663 0.218339 0.009631
C41   C     C_R   0.394937 0.198064 0.208368 -0.032674
C42   C     C_R   0.851099 0.327663 0.218339 0.009631
C43   C     C_R   0.894937 0.698064 0.208368 -0.032674
C44   C     C_3   0.744697 0.855017 0.478927 0.081340
C45   C     C_R   0.632533 0.893697 0.105847 -0.164003
C46   C     C_3   0.643571 0.205043 0.511668 0.098182
C47   C     C_3   0.244697 0.355017 0.478927 0.081339
C48   C     C_3   0.143571 0.705044 0.511668 0.098182
C49   C     C_2   0.260397 0.700313 0.001834 -0.143599
C50   C     C_2   0.190821 0.257842 0.095898 -0.108890
C51   C     C_2   0.760397 0.200313 0.001834 -0.143599
C52   C     C_2   0.690821 0.757842 0.095898 -0.108891
C53   C     C_2   0.803653 0.253448 0.922777 -0.149396
C54   C     C_2   0.727667 0.697932 0.026734 -0.138200
C55   C     C_2   0.303653 0.753448 0.922777 -0.149396
C56   C     C_R   0.659489 0.089361 0.068429 -0.141477
C57   C     C_2   0.227667 0.197932 0.026734 -0.138201
C58   C     C_R   0.365100 0.888557 0.897950 -0.081911
C59   C     C_R   0.333614 0.090557 0.944710 -0.095534
C60   C     C_R   0.865100 0.388557 0.897950 -0.081911
C61   C     C_R   0.833614 0.590557 0.944710 -0.095534
C62   C     C_R   0.402606 0.106572 0.306000 -0.109183
C63   C     C_R   0.360122 0.918664 0.315256 -0.093393
C64   C     C_R   0.902606 0.606572 0.306000 -0.109183
C65   C     C_R   0.860122 0.418664 0.315256 -0.093393
C66   C     C_R   0.293999 0.153343 0.013834 0.140706
C67   C     C_R   0.132533 0.393697 0.105847 -0.164003
C68   C     C_R   0.346799 0.812799 0.936876 0.156973
C69   C     C_R   0.793999 0.653343 0.013834 0.140705
C70   C     C_R   0.846799 0.312799 0.936876 0.156973
C71   C     C_R   0.311435 0.857823 0.321278 0.089308
C72   C     C_R   0.379607 0.182542 0.306192 0.113704
C73   C     C_R   0.811435 0.357823 0.321278 0.089308
C74   C     C_R   0.879607 0.682542 0.306192 0.113704
C75   C     C_R   0.644720 0.190494 0.983337 0.188192
C76   C     C_R   0.615212 0.798466 0.019933 0.171642
C77   C     C_R   0.144719 0.690494 0.983337 0.188193
C78   C     C_R   0.159489 0.589361 0.068429 -0.141477
C79   C     C_R   0.115212 0.298466 0.019933 0.171643
C80   C     C_R   0.647504 0.826430 0.779424 -0.116504
C81   C     C_R   0.599980 0.198665 0.790029 -0.123687
C82   C     C_R   0.147504 0.326430 0.779424 -0.116503
C83   C     C_R   0.099980 0.698665 0.790029 -0.123687
C84   C     C_R   0.590455 0.106008 0.697510 -0.149609
C85   C     C_R   0.640452 0.923683 0.686222 -0.078978
C86   C     C_R   0.090455 0.606008 0.697510 -0.149609
C87   C     C_R   0.140452 0.423683 0.686222 -0.078977
C88   C     C_R   0.692471 0.160213 0.014246 0.099125
H1    H     H_    0.335563 0.229431 0.088692 0.095411
H2    H     H_    0.141380 0.842464 0.682117 0.152893
H3    H     H_    0.698218 0.698522 0.656860 0.145969
H4    H     H_    0.641379 0.342465 0.682117 0.152893
H5    H     H_    0.392817 0.195468 0.475037 0.109719
H6    H     H_    0.338551 0.813360 0.466100 0.104355
H7    H     H_    0.892816 0.695468 0.475037 0.109719
H8    H     H_    0.838551 0.313361 0.466100 0.104355
H9    H     H_    0.823551 0.780007 0.615937 0.186124
H10   H     H_    0.757613 0.240925 0.614985 0.177364
H11   H     H_    0.323551 0.280007 0.615937 0.186124
H12   H     H_    0.385649 0.747639 0.022805 0.121283
H13   H     H_    0.257613 0.740924 0.614985 0.177364
H14   H     H_    0.862493 0.846391 0.319354 0.201326
H15   H     H_    0.743486 0.210441 0.341776 0.173453
H16   H     H_    0.362493 0.346391 0.319354 0.201327
H17   H     H_    0.243485 0.710441 0.341776 0.173453
H18   H     H_    0.776966 0.798438 0.333714 0.209153
H19   H     H_    0.664887 0.282500 0.383068 0.243449
H20   H     H_    0.276966 0.298438 0.333714 0.209153
H21   H     H_    0.164886 0.782501 0.383069 0.243449
H22   H     H_    0.770126 0.915354 0.467268 0.117329
H23   H     H_    0.835563 0.729431 0.088692 0.095411
H24   H     H_    0.663144 0.142756 0.490947 0.114755
H25   H     H_    0.270126 0.415354 0.467268 0.117329
H26   H     H_    0.163143 0.642756 0.490947 0.114755
H27   H     H_    0.333333 0.777329 0.194584 0.102252
H28   H     H_    0.394687 0.254147 0.175509 0.101086
H29   H     H_    0.833333 0.277329 0.194584 0.102252
H30   H     H_    0.894687 0.754147 0.175509 0.101086
H31   H     H_    0.856528 0.864047 0.529016 0.232516
H32   H     H_    0.764363 0.158408 0.539521 0.220657
H33   H     H_    0.356528 0.364047 0.529016 0.232516
H34   H     H_    0.885649 0.247639 0.022805 0.121282
H35   H     H_    0.264363 0.658408 0.539521 0.220657
H36   H     H_    0.267894 0.691806 0.065520 0.137147
H37   H     H_    0.203261 0.270734 0.153989 0.146512
H38   H     H_    0.767894 0.191806 0.065520 0.137147
H39   H     H_    0.703261 0.770734 0.153989 0.146512
H40   H     H_    0.796113 0.260491 0.858909 0.156106
H41   H     H_    0.719766 0.688074 0.964102 0.149782
H42   H     H_    0.296113 0.760491 0.858909 0.156106
H43   H     H_    0.219766 0.188074 0.964102 0.149782
H44   H     H_    0.358904 0.914353 0.838689 0.115458
H45   H     H_    0.632232 0.735747 0.623663 0.238358
H46   H     H_    0.314922 0.059103 0.901529 0.120337
H47   H     H_    0.858904 0.414353 0.838689 0.115458
H48   H     H_    0.814922 0.559103 0.901529 0.120337
H49   H     H_    0.406461 0.077783 0.365671 0.089009
H50   H     H_    0.350962 0.952122 0.380663 0.091674
H51   H     H_    0.906461 0.577783 0.365671 0.089009
H52   H     H_    0.850962 0.452122 0.380663 0.091674
H53   H     H_    0.666231 0.774775 0.800970 0.126196
H54   H     H_    0.603077 0.255163 0.817637 0.139314
H55   H     H_    0.166231 0.274775 0.800970 0.126196
H56   H     H_    0.564758 0.329892 0.658171 0.235863
H57   H     H_    0.103077 0.755163 0.817637 0.139314
H58   H     H_    0.581964 0.075927 0.643283 0.130420
H59   H     H_    0.652858 0.963734 0.624012 0.116177
H60   H     H_    0.081964 0.575927 0.643283 0.130420
H61   H     H_    0.152858 0.463734 0.624012 0.116177
H62   H     H_    0.640112 0.921120 0.162553 0.127069
H63   H     H_    0.677802 0.055964 0.111127 0.120901
H64   H     H_    0.140112 0.421120 0.162553 0.127069
H65   H     H_    0.177802 0.555964 0.111127 0.120901
H66   H     H_    0.268516 0.128540 0.508138 0.076262
H67   H     H_    0.132232 0.235747 0.623664 0.238358
H68   H     H_    0.224206 0.911693 0.530053 0.075015
H69   H     H_    0.768516 0.628540 0.508138 0.076262
H70   H     H_    0.724205 0.411693 0.530053 0.075016
H71   H     H_    0.064758 0.829892 0.658171 0.235863
H72   H     H_    0.198218 0.198522 0.656860 0.145969
I1    I     I_    0.627066 0.866455 0.496531 -0.405698
I2    I     I_    0.514988 0.209274 0.565765 -0.413782
I3    I     I_    0.127066 0.366455 0.496531 -0.405698
I4    I     I_    0.014988 0.709274 0.565766 -0.413782
I5    I     I_    0.621374 0.310967 0.974384 -0.416440
I6    I     I_    0.559387 0.691922 0.019743 -0.373855
I7    I     I_    0.121374 0.810967 0.974384 -0.416440
I8    I     I_    0.059387 0.191922 0.019743 -0.373855
N1    N     N_R   0.408680 0.130160 0.995800 -0.050826
N2    N     N_R   0.403730 0.078230 0.935950 -0.050385
N3    N     N_R   0.903730 0.421770 0.935950 -0.051181
N4    N     N_R   0.903730 0.578230 0.935950 -0.050386
N5    N     N_R   0.426630 0.075970 0.212960 -0.038294
N6    N     N_R   0.426630 0.924030 0.212960 -0.044516
N7    N     N_R   0.926630 0.575970 0.212960 -0.038294
N8    N     N_R   0.926630 0.424030 0.212960 -0.044516
N9    N     N_R   0.591320 0.134600 0.004200 -0.072670
N10   N     N_R   0.591320 0.865400 0.004200 -0.072023
N11   N     N_R   0.091320 0.634600 0.004200 -0.072670
N12   N     N_R   0.408680 0.869840 0.995800 -0.048941
N13   N     N_R   0.091320 0.365400 0.004200 -0.072023
N14   N     N_R   0.578320 0.867660 0.846880 -0.041056
N15   N     N_R   0.578320 0.132340 0.846880 -0.044658
N16   N     N_R   0.078320 0.367660 0.846880 -0.041056
N17   N     N_R   0.078320 0.632340 0.846880 -0.044658
N18   N     N_R   0.573370 0.074390 0.787040 -0.046771
N19   N     N_R   0.573370 0.925610 0.787040 -0.045161
N20   N     N_R   0.073370 0.574390 0.787040 -0.046771
N21   N     N_R   0.073370 0.425610 0.787040 -0.045161
N22   N     N_R   0.596270 0.927870 0.064040 -0.056463
N23   N     N_R   0.908680 0.630160 0.995800 -0.050826
N24   N     N_R   0.596270 0.072130 0.064040 -0.057723
N25   N     N_R   0.096270 0.427870 0.064040 -0.056463
N26   N     N_R   0.096270 0.572130 0.064040 -0.057723
N27   N     N_R   0.908680 0.369840 0.995800 -0.048941
N28   N     N_R   0.421680 0.867580 0.153120 -0.042926
N29   N     N_R   0.421680 0.132420 0.153120 -0.046386
N30   N     N_R   0.921680 0.367580 0.153120 -0.042926
N31   N     N_R   0.921680 0.632420 0.153120 -0.046386
N32   N     N_R   0.403730 0.921770 0.935950 -0.051181
Ni1   Ni    Ni4+2 0.500000 0.131190 0.000000 0.245551
Ni2   Ni    Ni4+2 0.500000 0.868810 0.000000 0.260876
Ni3   Ni    Ni4+2 1.000000 0.631190 0.000000 0.245551
Ni4   Ni    Ni4+2 1.000000 0.368810 0.000000 0.260876
Ni5   Ni    Ni4+2 0.488650 0.000000 0.862740 0.238498
Ni6   Ni    Ni4+2 0.988650 0.500000 0.862740 0.238498
Ni7   Ni    Ni4+2 0.511350 0.000000 0.137260 0.240501
Ni8   Ni    Ni4+2 0.011350 0.500000 0.137260 0.240501

loop_
_geom_bond_atom_site_label_1
_geom_bond_atom_site_label_2
_ccdc_geom_bond_type
C67   H64   S    
C25   C47   S    
C47   H25   S    
C36   H31   S    
C77   N11   A    
N32   Ni5   S    
Br4   C13   S    
C24   H15   S    
C46   H24   S    
C8    C86   A    
Br2   C10   S    
C16   H3    S    
N7    N31   A    
C80   H53   S    
C46   I2    S    
C49   H36   S    
C61   C69   A    
N5    N29   A    
N24   Ni7   S    
N18   Ni5   S    
C23   N23   A    
C67   N25   A    
C15   C35   S    
C6    C81   A    
C82   N16   A    
C36   H9    S    
C61   H48   S    
C26   C48   S    
C79   I8    S    
N11   N26   A    
C45   H62   S    
C22   H14   S    
C17   H56   S    
N6    N28   A    
Br8   C21   S    
C40   C71   A    
C83   H57   S    
C84   N18   A    
C59   N2    A    
C18   H5    S    
C7    C87   A    
C83   N17   A    
C43   N31   A    
N17   Ni3   S    
C14   C33   S    
C55   C68   S    
C3    C78   A    
C27   C72   S    
C16   C31   S    
N8    N30   A    
C12   C68   A    
C60   H47   S    
C52   C54   D    
N1    Ni1   S    
C2    C45   A    
N16   Ni4   S    
C13   C17   S    
C11   C29   S    
C77   I7    S    
C76   N10   A    
C33   C47   S    
C13   C30   S    
C21   C30   S    
C33   C38   S    
C49   C55   D    
C24   C30   S    
C78   H65   S    
C5    C80   A    
C78   N26   A    
N23   Ni3   S    
N2    Ni5   S    
C79   N13   A    
N9    Ni1   S    
C14   H72   S    
C26   H21   S    
C31   C44   S    
C43   C74   A    
N9    N24   A    
C48   I4    S    
N31   Ni3   S    
C63   N6    A    
C34   N27   A    
C85   N19   A    
N12   Ni2   S    
C40   H27   S    
C76   I6    S    
N22   Ni7   S    
C63   C71   A    
C23   C69   A    
C50   H37   S    
C60   C70   A    
C32   C37   S    
C38   H33   S    
C51   C53   D    
C5    C31   S    
C65   H52   S    
C62   C72   A    
C10   C15   S    
C47   I3    S    
C75   I5    S    
C85   H59   S    
C56   C88   A    
N5    Ni7   S    
C54   C69   S    
C57   C66   S    
C42   H29   S    
C65   N8    A    
C13   H70   S    
N13   N25   A    
C39   H13   S    
C41   H28   S    
C28   C71   S    
Br7   C20   S    
C21   H8    S    
C5    C85   A    
C26   H17   S    
C48   H26   S    
C80   N14   A    
N25   Ni8   S    
C12   N12   A    
N20   Ni6   S    
C18   C27   S    
C50   C57   D    
Br6   C19   S    
C8    C35   S    
N29   Ni1   S    
C53   C70   S    
C87   N21   A    
N17   N20   A    
C58   C68   A    
C38   H11   S    
C63   H50   S    
C81   N15   A    
C10   H68   S    
C34   H34   S    
C59   C66   A    
N16   N21   A    
Br3   C11   S    
C52   H39   S    
C23   H23   S    
C62   H49   S    
N14   N19   A    
C65   C73   A    
C15   H71   S    
C42   N30   A    
C81   H54   S    
C6    C84   A    
N3    N27   A    
C32   C46   S    
C56   N24   A    
C30   C73   S    
N6    Ni7   S    
C55   H42   S    
C86   N20   A    
N27   Ni4   S    
C1    C66   A    
C45   N22   A    
N28   Ni2   S    
N15   Ni1   S    
C1    N1    A    
C37   H10   S    
C22   H18   S    
N11   Ni3   S    
C19   C39   S    
N7    Ni8   S    
C22   C44   S    
C2    C52   S    
N12   N32   A    
C25   H20   S    
C1    H1    S    
C19   H6    S    
C4    C79   A    
C87   H61   S    
C43   H30   S    
Br1   C9    S    
C75   N9    A    
C64   N7    A    
C41   N29   A    
C82   H55   S    
N13   Ni4   S    
C44   I1    S    
N4    Ni6   S    
C16   H45   S    
C34   C70   A    
C31   C36   S    
C19   C28   S    
C64   H51   S    
C9    C27   S    
C40   N28   A    
C60   N3    A    
C17   H4    S    
C9    C14   S    
C24   C46   S    
C41   C72   A    
C58   N32   A    
C17   C32   S    
N10   Ni2   S    
C11   C16   S    
N14   Ni2   S    
N15   N18   A    
C4    C50   S    
C61   N4    A    
N4    N23   A    
C62   N5    A    
C14   H67   S    
C20   H7    S    
C11   H69   S    
C10   C28   S    
C20   C29   S    
C3    C77   A    
C75   C88   A    
N3    Ni6   S    
C2    C76   A    
C25   C27   S    
C20   C36   S    
C26   C28   S    
C56   H63   S    
C24   H19   S    
C54   H41   S    
C29   C74   S    
C64   C74   A    
N19   Ni5   S    
N8    Ni8   S    
C9    H66   S    
C18   C38   S    
C7    C33   S    
C6    C32   S    
Br5   C18   S    
C57   H43   S    
N30   Ni4   S    
C35   C48   S    
C15   H2    S    
C58   H44   S    
C22   C29   S    
C8    C83   A    
C86   H60   S    
N1    N2    A    
C51   C88   S    
C4    C67   A    
C39   H35   S    
N10   N22   A    
C84   H58   S    
C37   H32   S    
N26   Ni8   S    
C3    C49   S    
C59   H46   S    
C35   C39   S    
C25   H16   S    
C42   C73   A    
C21   C37   S    
N21   Ni6   S    
C53   H40   S    
C12   H12   S    
C7    C82   A    
C51   H38   S    
C44   H22   S    
