data_mof_unit_64792.cif
_audit_creation_date              2012-12-10T21:02:05-0500
_audit_creation_method            fapswitch 2.2
_symmetry_space_group_name_H-M    P1
_symmetry_Int_Tables_number       1
_space_group_crystal_system       triclinic
_cell_length_a                    22.21338
_cell_length_b                    22.218991
_cell_length_c                    22.194378
_cell_angle_alpha                 108.440531
_cell_angle_beta                  110.015625
_cell_angle_gamma                 110.036823
_cell_volume                      8422.70176667

loop_
_atom_site_label
_atom_site_type_symbol
_atom_type_description
_atom_site_fract_x
_atom_site_fract_y
_atom_site_fract_z
_atom_type_partial_charge
Br1   Br    Br    0.360186 0.536274 0.861184 -0.518096
Br2   Br    Br    0.639813 0.463725 0.138816 -0.518096
C1    C     C_R   0.699679 0.849984 0.349970 0.821783
C2    C     C_3   0.024623 0.553843 0.984136 -0.155606
C3    C     C_3   0.024657 0.453926 0.980282 -0.171246
C4    C     C_3   0.975343 0.546074 0.019718 -0.171246
C5    C     C_1   0.220930 0.610438 0.110290 -0.142253
C6    C     C_1   0.779070 0.389562 0.889710 -0.142252
C7    C     C_3   0.024971 0.529389 0.072597 -0.155262
C8    C     C_3   0.975029 0.470610 0.927403 -0.155262
C9    C     C_3   0.072953 0.536505 0.036368 0.195403
C10   C     C_3   0.927047 0.463494 0.963632 0.195403
C11   C     C_1   0.154122 0.577069 0.076880 -0.096871
C12   C     C_R   0.300320 0.150016 0.650030 0.821783
C13   C     C_1   0.845877 0.422931 0.923120 -0.096871
C14   C     C_R   0.260913 0.467098 0.001291 -0.129998
C15   C     C_R   0.739087 0.532902 0.998709 -0.129997
C16   C     C_R   0.300384 0.650145 0.150114 0.824595
C17   C     C_R   0.699616 0.349855 0.849886 0.824595
C18   C     C_R   0.328571 0.471666 0.012621 -0.194802
C19   C     C_R   0.671429 0.528334 0.987379 -0.194802
C20   C     C_R   0.359156 0.491331 0.971193 0.062925
C21   C     C_R   0.640844 0.508669 0.028807 0.062925
C22   C     C_R   0.320653 0.506119 0.917744 0.307664
C23   C     C_3   0.538146 0.490540 0.465701 -0.151301
C24   C     C_R   0.679347 0.493881 0.082255 0.307664
C25   C     C_R   0.252800 0.501238 0.906745 -0.144449
C26   C     C_R   0.747200 0.498762 0.093255 -0.144449
C27   C     C_R   0.223065 0.481859 0.948416 -0.145137
C28   C     C_R   0.776935 0.518141 0.051584 -0.145136
C29   C     C_R   0.434742 0.446413 0.932942 -0.186910
C30   C     C_R   0.565257 0.553587 0.067058 -0.186910
C31   C     C_R   0.501690 0.447798 0.946485 -0.055016
C32   C     C_R   0.498310 0.552202 0.053515 -0.055016
C33   C     C_R   0.567843 0.502036 0.014032 0.040608
C34   C     C_3   0.461854 0.509460 0.534299 -0.151301
C35   C     C_R   0.432157 0.497964 0.985968 0.040608
C36   C     C_3   0.024800 0.996834 0.562618 -0.162956
C37   C     C_3   0.975200 0.003165 0.437382 -0.162956
C38   C     C_3   0.975463 0.030295 0.541572 -0.158341
C39   C     C_3   0.024537 0.969705 0.458428 -0.158341
C40   C     C_R   0.499414 0.890278 0.389700 0.793107
C41   C     C_R   0.500586 0.109722 0.610300 0.793107
C42   C     C_1   0.779123 0.889765 0.389695 -0.135020
C43   C     C_1   0.220876 0.110235 0.610305 -0.135020
C44   C     C_3   0.975105 0.929525 0.483987 -0.152593
C45   C     C_3   0.499972 0.536476 0.463551 0.191271
C46   C     C_3   0.024894 0.070475 0.516013 -0.152594
C47   C     C_3   0.927065 0.963633 0.463589 0.192201
C48   C     C_3   0.072935 0.036367 0.536411 0.192201
C49   C     C_1   0.845923 0.923147 0.423071 -0.073182
C50   C     C_1   0.154076 0.076853 0.576929 -0.073182
C51   C     C_3   0.491941 0.056763 0.032118 -0.155107
C52   C     C_3   0.508059 0.943237 0.967882 -0.155107
C53   C     C_3   0.435408 0.974660 0.999389 -0.164343
C54   C     C_3   0.564592 0.025340 0.000611 -0.164343
C55   C     C_1   0.499965 0.889538 0.110412 -0.132503
C56   C     C_3   0.500028 0.463524 0.536449 0.191271
C57   C     C_1   0.500035 0.110462 0.889588 -0.132502
C58   C     C_3   0.556500 0.044970 0.069804 -0.154812
C59   C     C_3   0.443500 0.955030 0.930196 -0.154812
C60   C     C_3   0.499967 0.963510 0.036432 0.192229
C61   C     C_3   0.500033 0.036490 0.963568 0.192229
C62   C     C_1   0.499949 0.922917 0.076995 -0.071945
C63   C     C_1   0.500051 0.077083 0.923004 -0.071946
C64   C     C_R   0.499458 0.609226 0.109786 0.801807
C65   C     C_R   0.500542 0.390774 0.890214 0.801807
C66   C     C_R   0.267920 0.799385 0.248551 -0.170597
C67   C     C_1   0.499954 0.577071 0.422983 -0.070680
C68   C     C_R   0.732080 0.200614 0.751449 -0.170599
C69   C     C_R   0.336360 0.859931 0.307368 -0.137120
C70   C     C_R   0.663639 0.140069 0.692632 -0.137119
C71   C     C_R   0.357551 0.873710 0.379916 0.097732
C72   C     C_R   0.642449 0.126290 0.620084 0.097731
C73   C     C_R   0.308498 0.826798 0.392682 -0.165642
C74   C     C_R   0.691502 0.173202 0.607318 -0.165641
C75   C     C_R   0.239997 0.766198 0.333606 0.212371
C76   C     C_R   0.760003 0.233802 0.666395 0.212371
C77   C     C_R   0.219866 0.752444 0.261596 -0.124577
C78   C     C_1   0.500046 0.422929 0.577017 -0.070679
C79   C     C_R   0.780134 0.247556 0.738404 -0.124576
C80   C     C_R   0.433925 0.990329 0.498732 -0.245870
C81   C     C_R   0.566075 0.009671 0.501268 -0.245871
C82   C     C_R   0.501768 0.053513 0.555601 -0.047463
C83   C     C_R   0.498232 0.946487 0.444399 -0.047463
C84   C     C_R   0.568859 0.063172 0.557772 0.016252
C85   C     C_R   0.431141 0.936828 0.442228 0.016252
C86   C     C_R   0.500026 0.849876 0.150206 0.821737
C87   C     C_R   0.499974 0.150124 0.849794 0.821737
C88   C     C_R   0.500006 0.650227 0.349877 0.820334
C89   C     C_3   0.975377 0.446156 0.015863 -0.155606
C90   C     C_R   0.499994 0.349773 0.650123 0.820334
C91   C     C_3   0.467873 0.428166 0.452799 -0.162364
C92   C     C_3   0.532127 0.571834 0.547201 -0.162364
C93   C     C_3   0.429700 0.474745 0.450007 -0.159427
C94   C     C_3   0.570300 0.525255 0.549993 -0.159427
C95   C     C_1   0.499963 0.610483 0.389596 -0.130702
C96   C     C_1   0.500037 0.389517 0.610404 -0.130702
H1    H     H_    0.371912 0.454476 0.408423 0.142258
H2    H     H_    0.953801 0.005262 0.385414 0.139692
H3    H     H_    0.046372 0.128903 0.529684 0.146123
H4    H     H_    0.953627 0.871097 0.470316 0.146123
H5    H     H_    0.382312 0.953336 0.999376 0.138689
H6    H     H_    0.617688 0.046664 0.000624 0.138689
H7    H     H_    0.485321 0.103917 0.058030 0.145100
H8    H     H_    0.514679 0.896083 0.941970 0.145100
H9    H     H_    0.397057 0.918556 0.872323 0.144309
H10   H     H_    0.602943 0.081444 0.127677 0.144309
H11   H     H_    0.167070 0.705470 0.215799 0.143796
H12   H     H_    0.628088 0.545523 0.591577 0.142258
H13   H     H_    0.832930 0.294529 0.784201 0.143795
H14   H     H_    0.441468 0.368628 0.414489 0.140103
H15   H     H_    0.558532 0.631372 0.585511 0.140103
H16   H     H_    0.252221 0.788705 0.192790 0.132229
H17   H     H_    0.747779 0.211295 0.807210 0.132230
H18   H     H_    0.373028 0.895857 0.296397 0.112437
H19   H     H_    0.626972 0.104143 0.703603 0.112436
H20   H     H_    0.323926 0.836651 0.448209 0.155467
H21   H     H_    0.676074 0.163349 0.551791 0.155467
H22   H     H_    0.382594 0.984070 0.496881 0.160493
H23   H     H_    0.223281 0.513030 0.866190 0.164628
H24   H     H_    0.617406 0.015930 0.503119 0.160493
H25   H     H_    0.430499 0.516747 0.562986 0.148304
H26   H     H_    0.569501 0.483253 0.437014 0.148304
H27   H     H_    0.045995 0.416626 0.964573 0.132771
H28   H     H_    0.954005 0.583374 0.035427 0.132771
H29   H     H_    0.954106 0.401390 0.028376 0.137764
H30   H     H_    0.045894 0.598610 0.971624 0.137764
H31   H     H_    0.953442 0.445866 0.867218 0.154193
H32   H     H_    0.046558 0.554133 0.132782 0.154193
H33   H     H_    0.170793 0.478557 0.939918 0.142938
H34   H     H_    0.776718 0.486970 0.133810 0.164628
H35   H     H_    0.829206 0.521442 0.060082 0.142938
H36   H     H_    0.237933 0.452372 0.033717 0.132154
H37   H     H_    0.762068 0.547628 0.966283 0.132153
H38   H     H_    0.357495 0.460372 0.054056 0.133284
H39   H     H_    0.642505 0.539628 0.945944 0.133285
H40   H     H_    0.383816 0.403773 0.881559 0.170858
H41   H     H_    0.616183 0.596227 0.118441 0.170858
H42   H     H_    0.954281 0.054690 0.575228 0.142725
H43   H     H_    0.045719 0.945310 0.424772 0.142725
H44   H     H_    0.046199 0.994738 0.614586 0.139692
I1    I     I_    0.167267 0.694988 0.352869 -0.399163
I2    I     I_    0.832733 0.305012 0.647131 -0.399163
O1    O     O_3   0.500050 0.750060 0.250070 -0.489929
O2    O     O_R   0.664320 0.341000 0.884100 -0.631412
O3    O     O_R   0.664480 0.780430 0.323540 -0.633097
O4    O     O_R   0.335520 0.219570 0.676460 -0.633097
O5    O     O_R   0.335610 0.676590 0.219700 -0.625552
O6    O     O_R   0.664390 0.323410 0.780300 -0.625552
O7    O     O_R   0.543050 0.908950 0.365840 -0.645416
O8    O     O_R   0.456950 0.091050 0.634160 -0.645416
O9    O     O_R   0.457060 0.634290 0.091200 -0.622387
O10   O     O_R   0.542940 0.365710 0.908800 -0.622387
O11   O     O_R   0.543140 0.884190 0.219790 -0.637514
O12   O     O_3   0.499950 0.249940 0.749930 -0.489929
O13   O     O_R   0.456860 0.115810 0.780210 -0.637514
O14   O     O_R   0.543170 0.659080 0.323490 -0.630116
O15   O     O_R   0.456830 0.340920 0.676510 -0.630116
O16   O     O_R   0.456990 0.780350 0.115960 -0.627983
O17   O     O_R   0.543010 0.219650 0.884040 -0.627983
O18   O     O_R   0.456900 0.676640 0.341050 -0.633942
O19   O     O_R   0.543100 0.323360 0.658950 -0.633942
O20   O     O_R   0.456830 0.822700 0.365800 -0.626371
O21   O     O_R   0.543170 0.177300 0.634200 -0.626370
O22   O     O_R   0.543260 0.634320 0.177440 -0.635943
O23   O     O_R   0.456740 0.365680 0.822560 -0.635943
O24   O     O_R   0.664430 0.884240 0.341140 -0.635982
O25   O     O_R   0.335570 0.115760 0.658860 -0.635981
O26   O     O_R   0.335680 0.659000 0.115900 -0.631412
Zn1   Zn    Zn3+2 0.438420 0.731820 0.293400 0.988472
Zn2   Zn    Zn3+2 0.561580 0.268180 0.706600 0.988472
Zn3   Zn    Zn3+2 0.561600 0.855040 0.293450 0.973173
Zn4   Zn    Zn3+2 0.438400 0.144960 0.706550 0.973173
Zn5   Zn    Zn3+2 0.438510 0.706680 0.145100 0.994150
Zn6   Zn    Zn3+2 0.561490 0.293320 0.854900 0.994150
Zn7   Zn    Zn3+2 0.561670 0.706730 0.268320 0.988866
Zn8   Zn    Zn3+2 0.438330 0.293270 0.731680 0.988866

loop_
_geom_bond_atom_site_label_1
_geom_bond_atom_site_label_2
_ccdc_geom_bond_type
C61   C63   S    
C23   C91   S    
O7    Zn3   S    
C77   H11   S    
C12   O4    A    
C34   C92   S    
C25   C27   A    
C32   C35   A    
C9    C11   S    
C10   C89   S    
C34   C93   S    
C22   C25   A    
C19   H39   S    
C14   H36   S    
C32   C64   S    
C4    C7    S    
O1    Zn1   S    
C25   H23   S    
C90   C96   S    
C37   C39   S    
C7    H32   S    
C1    O3    A    
C44   H4    S    
C44   C47   S    
O12   Zn4   S    
C89   H29   S    
C88   O18   A    
C65   O10   A    
C14   C18   A    
O14   Zn7   S    
C74   C76   A    
C3    C9    S    
C34   C56   S    
C4    C10   S    
C40   O20   A    
C80   C85   A    
C53   C60   S    
C53   H5    S    
C17   O6    A    
C58   C60   S    
C57   C87   S    
C21   C24   A    
C59   C61   S    
C68   C79   A    
C56   C94   S    
C45   C67   S    
C60   C62   S    
C31   C33   A    
O12   Zn8   S    
C51   C58   S    
O6    Zn2   S    
O18   Zn1   S    
C79   H13   S    
C47   C49   S    
O2    Zn6   S    
C70   H19   S    
C15   H37   S    
C48   C50   S    
C39   C44   S    
C29   C31   A    
C71   C73   A    
C80   H22   S    
C16   O5    A    
C23   C45   S    
C88   C95   S    
C58   H10   S    
C56   C78   S    
O13   Zn4   S    
O8    Zn4   S    
O11   Zn3   S    
C66   C77   A    
C83   C85   A    
C91   C93   S    
C15   C28   A    
C36   H44   S    
C7    C89   S    
C73   H20   S    
C12   O25   A    
C87   O17   A    
C92   H15   S    
C1    O24   A    
C12   C43   S    
O26   Zn5   S    
C41   O21   A    
O24   Zn3   S    
C52   C54   S    
C1    C42   S    
C54   C61   S    
C17   O2    A    
C52   H8    S    
C6    C17   S    
C30   C33   A    
O1    Zn5   S    
C34   H25   S    
C4    H28   S    
C30   H41   S    
C2    C4    S    
C74   H21   S    
C41   C82   S    
C40   C83   S    
O17   Zn6   S    
C64   O22   A    
C52   C60   S    
C43   C50   T    
C14   C27   A    
C20   C35   S    
C94   H12   S    
C75   I1    S    
O12   Zn2   S    
C15   C19   A    
C54   C58   S    
C29   C35   A    
C2    C9    S    
C30   C32   A    
C88   O14   A    
C86   O11   A    
C39   H43   S    
O19   Zn2   S    
C76   I2    S    
C73   C75   A    
O3    Zn7   S    
C10   C13   S    
O25   Zn4   S    
C5    C16   S    
O23   Zn8   S    
C75   C77   A    
Br2   C24   S    
O22   Zn7   S    
C18   H38   S    
C29   H40   S    
C92   C94   S    
C40   O7    A    
C7    C9    S    
C54   H6    S    
C3    C89   S    
C8    C10   S    
Br1   C22   S    
C90   O19   A    
C70   C72   A    
C37   C47   S    
O1    Zn3   S    
C6    C13   T    
C80   C82   A    
C19   C21   A    
C28   H35   S    
C20   C22   A    
C72   C74   A    
O15   Zn8   S    
C3    H27   S    
C71   C85   S    
C39   C48   S    
C42   C49   T    
C55   C62   T    
C69   C71   A    
C65   O23   A    
C38   C46   S    
O12   Zn6   S    
C2    H30   S    
O4    Zn8   S    
C78   C96   T    
O5    Zn1   S    
C51   C53   S    
C24   C26   A    
C56   C91   S    
C18   C20   A    
C64   O9    A    
C87   O13   A    
C36   C48   S    
C52   C59   S    
C68   H17   S    
C72   C84   S    
O9    Zn5   S    
C21   C33   S    
C55   C86   S    
O10   Zn6   S    
C26   C28   A    
C8    H31   S    
C3    C8    S    
C31   C65   S    
C57   C63   T    
C36   C38   S    
C51   C61   S    
C76   C79   A    
C37   H2    S    
C27   H33   S    
O21   Zn2   S    
C66   C69   A    
C46   H3    S    
C53   C59   S    
C46   C48   S    
C90   O15   A    
O16   Zn5   S    
C45   C92   S    
C69   H18   S    
C38   H42   S    
C93   H1    S    
C86   O16   A    
C81   H24   S    
C81   C83   A    
C59   H9    S    
C23   H26   S    
C36   C44   S    
C91   H14   S    
C51   H7    S    
C5    C11   T    
C81   C84   A    
C23   C94   S    
C16   O26   A    
O1    Zn7   S    
C45   C93   S    
C82   C84   A    
O20   Zn1   S    
C68   C70   A    
C26   H34   S    
C2    C8    S    
C41   O8    A    
C38   C47   S    
C66   H16   S    
C37   C46   S    
C67   C95   T    
