data_mof_unit_58801.cif
_audit_creation_date              2013-03-05T15:40:10-0500
_audit_creation_method            fapswitch 2.2
_symmetry_space_group_name_H-M    P1
_symmetry_Int_Tables_number       1
_space_group_crystal_system       triclinic
_cell_length_a                    7.454778
_cell_length_b                    8.770359
_cell_length_c                    12.967179
_cell_angle_alpha                 87.871134
_cell_angle_beta                  79.244515
_cell_angle_gamma                 102.681735
_cell_volume                      809.891696771

loop_
_atom_site_label
_atom_site_type_symbol
_atom_site_description
_atom_site_fract_x
_atom_site_fract_y
_atom_site_fract_z
_atom_type_partial_charge
O1    O     O_R   0.621060 0.286250 0.492350 -0.571546
O2    O     O_R   0.378940 0.713750 0.507650 -0.571547
O3    O     O_R   0.306310 0.256580 0.512240 -0.517049
O4    O     O_R   0.693690 0.743420 0.487760 -0.517049
C1    C     C_R   0.453568 0.200458 0.502695 0.817654
C2    C     C_R   0.546432 0.799542 0.497305 0.817654
O5    O     O_R   0.631800 0.512400 0.642670 -0.591519
O6    O     O_R   0.368200 0.487600 0.357330 -0.591519
O7    O     O_R   0.317060 0.482730 0.662570 -0.595773
O8    O     O_R   0.682940 0.517270 0.337430 -0.595773
C3    C     C_R   0.466437 0.495777 0.701403 0.802211
C4    C     C_R   0.533563 0.504223 0.298597 0.802210
Cu1   Cu    Cu3+1 0.686350 0.517570 0.488220 1.055464
Cu2   Cu    Cu3+1 0.313650 0.482430 0.511780 1.055464
N1    N     N_2   0.033570 0.455950 0.529530 -0.185065
N2    N     N_2   0.966430 0.544050 0.470470 -0.185065
C5    C     C_R   0.553119 0.508277 0.184959 -0.038167
C6    C     C_R   0.446881 0.491723 0.815041 -0.038167
C7    C     C_R   0.249304 0.452603 0.988930 -0.204023
C8    C     C_R   0.750695 0.547396 0.011069 -0.204023
C9    C     C_R   0.267716 0.457442 0.880361 -0.178994
C10   C     C_R   0.732284 0.542558 0.119639 -0.178994
C11   C     C_R   0.607602 0.521482 0.858724 -0.230970
C12   C     C_R   0.392398 0.478518 0.141276 -0.230970
C13   C     C_R   0.590271 0.517355 0.967205 0.169631
C14   C     C_R   0.409728 0.482645 0.032795 0.169631
H1    H     H_    0.253808 0.451776 0.191428 0.165047
H2    H     H_    0.746192 0.548224 0.808572 0.165047
H3    H     H_    0.858248 0.566486 0.152274 0.164429
H4    H     H_    0.141752 0.433514 0.847726 0.164429
H5    H     H_    0.110325 0.425172 0.038430 0.143732
H6    H     H_    0.889675 0.574828 0.961570 0.143732
H7    H     H_    0.934058 0.379977 0.584881 0.259027
H8    H     H_    0.065942 0.620023 0.415119 0.259027
C15   C     C_2   0.428987 0.034945 0.496533 0.023874
C16   C     C_2   0.571013 0.965055 0.503467 0.023874
N3    N     N_R   0.252093 0.950934 0.476589 0.145445
O9    O     O_R   0.109037 0.905938 0.554289 -0.278170
O10   O     O_R   0.228377 0.938554 0.380091 -0.355236
N4    N     N_R   0.747907 0.049065 0.523411 0.145445
O11   O     O_R   0.890962 0.094062 0.445711 -0.278170
O12   O     O_R   0.771623 0.061446 0.619909 -0.355235

loop_
_geom_bond_atom_site_label_1
_geom_bond_atom_site_label_2
_geom_bond_distance
_ccdc_geom_bond_type
C4    C5    1.451743 S    
O7    Cu2   1.960317 S    
C3    C6    1.451743 S    
N3    O9    1.301090 A    
C10   H3    1.083185 S    
C6    C9    1.405081 A    
C9    H4    1.083185 S    
C5    C10   1.405081 A    
C12   H1    1.084823 S    
O5    Cu1   1.964622 S    
O6    C4    1.297452 A    
N2    H8    1.028670 S    
C7    H5    1.083599 S    
N4    O12   1.301175 A    
N3    O10   1.301176 A    
Cu1   Cu2   2.684777 S    
O5    C3    1.297452 A    
O7    C3    1.290087 A    
C12   C14   1.386774 A    
O2    C2    1.288667 A    
O3    Cu2   1.969253 S    
O8    C4    1.290088 A    
O1    C1    1.288667 A    
N1    N2    1.304970 D    
C1    C15   1.429833 S    
N4    O11   1.301089 A    
C7    C9    1.386921 A    
C2    C16   1.429833 S    
C11   C13   1.386774 A    
O2    Cu2   1.975924 S    
C5    C12   1.396963 A    
O1    Cu1   1.975923 S    
C8    C13   1.396373 A    
C6    C11   1.396963 A    
C16   N4    1.436517 S    
O4    C2    1.285985 A    
C8    H6    1.083599 S    
Cu1   N2    2.017458 S    
O4    Cu1   1.969252 S    
C7    C14   1.396373 A    
Cu2   N1    2.017459 S    
O6    Cu2   1.964621 S    
C15   N3    1.436516 S    
C13   C14   1.414611 A    
C11   H2    1.084823 S    
N1    H7    1.028669 S    
C15   C16   1.349518 D    
C8    C10   1.386921 A    
O3    C1    1.285984 A    
O8    Cu1   1.960314 S    
