data_mof_unit_16229.cif
_audit_creation_date              2013-03-05T15:53:31-0500
_audit_creation_method            fapswitch 2.2
_symmetry_space_group_name_H-M    P1
_symmetry_Int_Tables_number       1
_space_group_crystal_system       triclinic
_cell_length_a                    30.166076
_cell_length_b                    7.276889
_cell_length_c                    26.359965
_cell_angle_alpha                 90.000467
_cell_angle_beta                  112.232082
_cell_angle_gamma                 90.000267
_cell_volume                      5356.24419813

loop_
_atom_site_label
_atom_site_type_symbol
_atom_site_description
_atom_site_fract_x
_atom_site_fract_y
_atom_site_fract_z
_atom_type_partial_charge
O1    O     O_R   0.295360 0.592990 0.320420 -0.563478
O2    O     O_R   0.704640 0.407010 0.679580 -0.596026
O3    O     O_R   0.204640 0.092990 0.179580 -0.563417
O4    O     O_R   0.795360 0.907010 0.820420 -0.596032
O5    O     O_R   0.294060 0.265620 0.213230 -0.595013
O6    O     O_R   0.705940 0.734380 0.786770 -0.551562
O7    O     O_R   0.205940 0.765620 0.286770 -0.594994
O8    O     O_R   0.794060 0.234380 0.713230 -0.551585
C1    C     C_R   0.304214 0.431804 0.199568 1.044810
C2    C     C_R   0.695662 0.567666 0.800459 1.043280
C3    C     C_R   0.195784 0.931805 0.300429 1.044699
C4    C     C_R   0.804336 0.067666 0.699539 1.043293
O9    O     O_R   0.300850 0.263360 0.322080 -0.613216
O10   O     O_R   0.699150 0.736640 0.677920 -0.598154
O11   O     O_R   0.199150 0.763360 0.177920 -0.613208
O12   O     O_R   0.800850 0.236640 0.822080 -0.598176
O13   O     O_R   0.211480 0.091820 0.289210 -0.547918
O14   O     O_R   0.788520 0.908180 0.710790 -0.592795
O15   O     O_R   0.288520 0.591820 0.210790 -0.547951
O16   O     O_R   0.711480 0.408180 0.789210 -0.592792
C5    C     C_R   0.312792 0.431691 0.343520 1.101894
C6    C     C_R   0.686864 0.568159 0.656702 1.110518
C7    C     C_R   0.187206 0.931687 0.156481 1.101773
C8    C     C_R   0.813135 0.068162 0.843298 1.110524
O17   O     O_3   0.220670 0.426670 0.239090 -0.302578
O18   O     O_3   0.779330 0.573330 0.760910 -0.302205
O19   O     O_3   0.279330 0.926670 0.260910 -0.302636
O20   O     O_3   0.720670 0.073330 0.739090 -0.302190
V1    V     V_3+5 0.255440 0.152290 0.252020 1.256742
V2    V     V_3+5 0.744560 0.847710 0.747980 1.249711
V3    V     V_3+5 0.244560 0.652290 0.247980 1.256745
V4    V     V_3+5 0.755440 0.347710 0.752020 1.249694
C9    C     C_R   0.849319 0.056001 0.900275 -0.454276
C10   C     C_R   0.151393 0.937660 0.099232 -0.438851
C11   C     C_R   0.650680 0.555985 0.599725 -0.454271
C12   C     C_R   0.348600 0.437697 0.400770 -0.438897
C13   C     C_R   0.870713 0.961433 0.995400 0.258514
C14   C     C_R   0.126260 0.843772 0.003456 0.259603
C15   C     C_R   0.629282 0.461320 0.504607 0.258515
C16   C     C_R   0.373710 0.344042 0.496562 0.259597
C17   C     C_R   0.836264 0.980090 0.941735 0.182037
C18   C     C_R   0.160429 0.841969 0.057688 0.167796
C19   C     C_R   0.663732 0.480024 0.558269 0.182058
C20   C     C_R   0.339548 0.342150 0.442326 0.167777
C21   C     C_R   0.897826 0.096326 0.911307 0.449651
C22   C     C_R   0.106897 0.026027 0.086988 0.474758
C23   C     C_R   0.602173 0.596320 0.588693 0.449662
C24   C     C_R   0.393101 0.526020 0.413010 0.474670
C25   C     C_R   0.934212 0.044985 0.962835 -0.098488
C26   C     C_R   0.068808 0.992782 0.035234 -0.123465
C27   C     C_R   0.565785 0.544950 0.537168 -0.098481
C28   C     C_R   0.431185 0.492809 0.464770 -0.123424
C29   C     C_R   0.919583 0.005108 0.006974 -0.225784
C30   C     C_R   0.081101 0.930249 0.991401 -0.212056
C31   C     C_R   0.580412 0.505015 0.493031 -0.225769
C32   C     C_R   0.418884 0.430401 0.508609 -0.212119
C33   C     C_R   0.984173 0.025422 0.971783 0.081356
C34   C     C_R   0.019072 0.013102 0.026027 0.062914
C35   C     C_R   0.515823 0.525418 0.528220 0.081337
C36   C     C_R   0.480923 0.513071 0.473978 0.062956
C37   C     C_R   0.003177 0.002937 0.069590 -0.346848
C38   C     C_R   0.999927 0.000022 0.928280 -0.337789
C39   C     C_R   0.496819 0.502835 0.430415 -0.346860
C40   C     C_R   0.500066 0.500088 0.571725 -0.337831
C41   C     C_R   0.954647 0.001862 0.061075 0.395465
C42   C     C_R   0.047164 0.951759 0.937195 0.392307
C43   C     C_R   0.545349 0.501731 0.438931 0.395454
C44   C     C_R   0.452824 0.451919 0.562813 0.392232
H1    H     H_    0.028389 0.988092 0.111267 0.230605
H2    H     H_    0.975421 0.002407 0.886247 0.233776
H3    H     H_    0.471608 0.487959 0.388739 0.230617
H4    H     H_    0.524573 0.502468 0.613757 0.233769
C45   C     C_R   0.095193 0.959348 0.482656 0.610121
C46   C     C_R   0.905843 0.999208 0.518235 0.585219
C47   C     C_R   0.404797 0.459228 0.017329 0.610040
C48   C     C_R   0.594144 0.499300 0.981749 0.585300
N1    N     N_R   0.075558 0.945117 0.426811 -0.168468
N2    N     N_R   0.925322 0.004804 0.574228 -0.168005
N3    N     N_R   0.424433 0.445106 0.073176 -0.168457
N4    N     N_R   0.574665 0.504792 0.925756 -0.168016
C49   C     C_R   0.026967 0.937505 0.399251 0.628339
C50   C     C_R   0.973813 0.992668 0.602198 0.632208
C51   C     C_R   0.473025 0.437596 0.100738 0.628369
C52   C     C_R   0.526176 0.492541 0.897785 0.632201
C53   C     C_R   0.995605 0.951885 0.427781 -0.252529
C54   C     C_R   0.005335 0.983073 0.573696 -0.256770
C55   C     C_R   0.504386 0.452011 0.072207 -0.252521
C56   C     C_R   0.494654 0.482913 0.926287 -0.256772
C57   C     C_R   0.015600 0.956811 0.485783 -0.043906
C58   C     C_R   0.985361 0.968862 0.515842 -0.045064
C59   C     C_R   0.484390 0.456798 0.014204 -0.043900
C60   C     C_R   0.514629 0.468845 0.984144 -0.045069
C61   C     C_R   0.065854 0.952117 0.513712 -0.258115
C62   C     C_R   0.935098 0.968212 0.487946 -0.255881
C63   C     C_R   0.434138 0.451971 0.986276 -0.258149
C64   C     C_R   0.564892 0.468321 0.012042 -0.255901
C65   C     C_R   0.945070 0.952688 0.400279 0.233208
C66   C     C_R   0.055881 0.978485 0.601300 0.241792
C67   C     C_R   0.554920 0.452975 0.099712 0.233165
C68   C     C_R   0.444108 0.478151 0.898682 0.241790
C69   C     C_R   0.915437 0.939594 0.430447 0.422525
C70   C     C_R   0.085394 0.943594 0.571848 0.425927
C71   C     C_R   0.584555 0.439845 0.069546 0.422601
C72   C     C_R   0.414600 0.443284 0.928141 0.425880
O21   O     O_2   0.142894 0.983586 0.507811 -0.482693
O22   O     O_2   0.858336 0.026146 0.492056 -0.491917
O23   O     O_2   0.357093 0.483379 0.992168 -0.482764
O24   O     O_2   0.641648 0.526330 0.007924 -0.491865
O25   O     O_2   0.009355 0.911071 0.344551 -0.444227
O26   O     O_2   0.991100 0.984314 0.657390 -0.440550
O27   O     O_2   0.490640 0.411214 0.155440 -0.444241
O28   O     O_2   0.508893 0.484110 0.842595 -0.440527
C73   C     C_R   0.896392 0.178942 0.635579 -0.120795
C74   C     C_R   0.105735 0.087929 0.361870 -0.114913
C75   C     C_R   0.603593 0.678922 0.864403 -0.120809
C76   C     C_R   0.394257 0.587926 0.138119 -0.114876
H5    H     H_    0.921640 0.286200 0.636649 0.202093
H6    H     H_    0.081784 0.202058 0.358808 0.197512
H7    H     H_    0.578341 0.786169 0.863328 0.202059
H8    H     H_    0.418208 0.702056 0.141181 0.197548
C77   C     C_R   0.868626 0.196430 0.667703 0.408669
C78   C     C_R   0.133031 0.085793 0.329052 0.393299
C79   C     C_R   0.631363 0.696418 0.832284 0.408659
C80   C     C_R   0.366965 0.585785 0.170942 0.393267
C81   C     C_R   0.835826 0.056140 0.667113 -0.348499
C82   C     C_R   0.164296 0.937133 0.332627 -0.335114
C83   C     C_R   0.664168 0.556138 0.832880 -0.348493
C84   C     C_R   0.335699 0.437128 0.167366 -0.335101
C85   C     C_R   0.832885 0.899608 0.634465 -0.182037
C86   C     C_R   0.165680 0.790069 0.367928 -0.181262
C87   C     C_R   0.667108 0.399610 0.865528 -0.182062
C88   C     C_R   0.334313 0.290065 0.132064 -0.181245
H9    H     H_    0.808356 0.790250 0.633570 0.228507
H10   H     H_    0.189084 0.674421 0.370664 0.217438
H11   H     H_    0.691640 0.290261 0.866428 0.228514
H12   H     H_    0.310909 0.174414 0.129330 0.217399
C89   C     C_R   0.862288 0.878208 0.604229 0.448364
C90   C     C_R   0.136366 0.787163 0.398731 0.423203
C91   C     C_R   0.637703 0.378204 0.895761 0.448311
C92   C     C_R   0.363628 0.287154 0.101262 0.423256
C93   C     C_R   0.894217 0.020577 0.604516 -0.028268
C94   C     C_R   0.106459 0.939815 0.396121 -0.017018
C95   C     C_R   0.605770 0.520563 0.895468 -0.028228
C96   C     C_R   0.393533 0.439810 0.103868 -0.017050
N5    N     N_R   0.941973 0.012540 0.108330 0.266607
O29   O     O_R   0.912862 0.140554 0.111138 -0.275485
O30   O     O_R   0.965899 0.918655 0.152217 -0.286586
N6    N     N_R   0.060592 0.939851 0.890497 0.267350
O31   O     O_R   0.097076 0.033628 0.889759 -0.265517
O32   O     O_R   0.031863 0.863498 0.845384 -0.301818
N7    N     N_R   0.558023 0.512343 0.391674 0.266610
O33   O     O_R   0.587138 0.640327 0.388858 -0.275469
O34   O     O_R   0.534094 0.418429 0.347794 -0.286621
N8    N     N_R   0.439399 0.440121 0.609513 0.267327
O35   O     O_R   0.402953 0.534121 0.610268 -0.265506
O36   O     O_R   0.468105 0.363652 0.654617 -0.301749
N9    N     N_R   0.860325 0.709765 0.574851 0.244743
O37   O     O_R   0.820488 0.617803 0.554438 -0.297445
O38   O     O_R   0.899163 0.638178 0.572855 -0.430566
N10   N     N_R   0.136491 0.627213 0.430993 0.239976
O39   O     O_R   0.173729 0.519757 0.448465 -0.311897
O40   O     O_R   0.097825 0.576569 0.437990 -0.431363
N11   N     N_R   0.639668 0.209769 0.925143 0.244747
O41   O     O_R   0.679503 0.117790 0.945545 -0.297399
O42   O     O_R   0.600835 0.138205 0.927156 -0.430541
N12   N     N_R   0.363507 0.127189 0.069008 0.239954
O43   O     O_R   0.326265 0.019754 0.051522 -0.311984
O44   O     O_R   0.402184 0.076498 0.062041 -0.431385
O45   O     O_3   0.101989 0.139959 0.126860 -0.634522
C97   C     C_3   0.082158 0.313236 0.105059 0.236107
H13   H     H_    0.045084 0.319439 0.104095 0.151376
H14   H     H_    0.080380 0.340454 0.062624 0.075764
C98   C     C_3   0.111655 0.467481 0.141777 -0.210578
H15   H     H_    0.128053 0.422006 0.184922 0.282996
H16   H     H_    0.141018 0.505557 0.128111 0.195110
C99   C     C_3   0.080650 0.635048 0.139432 -0.924486
H17   H     H_    0.063177 0.681915 0.096407 0.245872
H18   H     H_    0.102991 0.747265 0.164939 0.274051
H19   H     H_    0.052606 0.600517 0.155622 0.310317
O46   O     O_3   0.908538 0.173624 0.869380 -0.661471
C100  C     C_3   0.929248 0.349574 0.884602 0.256642
H20   H     H_    0.955465 0.368036 0.864651 0.192613
H21   H     H_    0.949855 0.367893 0.929411 0.067066
C101  C     C_3   0.890620 0.497753 0.864215 -0.264936
H22   H     H_    0.865579 0.466284 0.822067 0.280682
H23   H     H_    0.869818 0.502679 0.891145 0.191808
C102  C     C_3   0.912900 0.684123 0.863726 -0.902963
H24   H     H_    0.935255 0.722647 0.906379 0.251630
H25   H     H_    0.884282 0.787104 0.845600 0.274903
H26   H     H_    0.935304 0.680795 0.838611 0.306075
O47   O     O_3   0.398017 0.639880 0.373129 -0.634545
C103  C     C_3   0.417856 0.813166 0.394912 0.236113
H27   H     H_    0.454921 0.819356 0.395846 0.151440
H28   H     H_    0.419658 0.840417 0.437355 0.075697
C104  C     C_3   0.388347 0.967395 0.358202 -0.210514
H29   H     H_    0.371970 0.921962 0.315051 0.282978
H30   H     H_    0.358968 0.005359 0.371854 0.195079
C105  C     C_3   0.419335 0.135041 0.360581 -0.924601
H31   H     H_    0.436779 0.181889 0.403612 0.245880
H32   H     H_    0.396990 0.247235 0.335069 0.274089
H33   H     H_    0.447403 0.100616 0.344419 0.310289
O48   O     O_3   0.591464 0.673636 0.630620 -0.661457
C106  C     C_3   0.570748 0.849574 0.615393 0.256646
H34   H     H_    0.544534 0.868036 0.635347 0.192585
H35   H     H_    0.550137 0.867868 0.570584 0.067051
C107  C     C_3   0.609373 0.997771 0.635769 -0.264942
H36   H     H_    0.634423 0.966310 0.677912 0.280686
H37   H     H_    0.630164 0.002714 0.608828 0.191804
C108  C     C_3   0.587089 0.184127 0.636268 -0.902976
H38   H     H_    0.564720 0.222642 0.593619 0.251642
H39   H     H_    0.615706 0.287121 0.654384 0.274894
H40   H     H_    0.564697 0.180783 0.661398 0.306068
N13   N     N_R   0.204663 0.743553 0.070350 0.263488
O49   O     O_R   0.204203 0.569835 0.058454 -0.347559
O50   O     O_R   0.245491 0.826247 0.094792 -0.358920
N14   N     N_R   0.788141 0.915841 0.929111 0.267854
O51   O     O_R   0.751723 0.018950 0.901755 -0.370020
O52   O     O_R   0.780569 0.749286 0.941922 -0.329337
N15   N     N_R   0.295304 0.243797 0.429673 0.263466
O53   O     O_R   0.295749 0.070179 0.441675 -0.347292
O54   O     O_R   0.254483 0.326439 0.405148 -0.359047
N16   N     N_R   0.711854 0.415760 0.570896 0.267854
O55   O     O_R   0.748274 0.518885 0.598238 -0.369995
O56   O     O_R   0.719423 0.249177 0.558105 -0.329398
N17   N     N_R   0.856406 0.878922 0.036324 0.282493
O57   O     O_R   0.820531 0.946077 0.046284 -0.236513
O58   O     O_R   0.875569 0.724445 0.058999 -0.299211
N18   N     N_R   0.135929 0.740498 0.962362 0.281544
O59   O     O_R   0.175229 0.768347 0.953976 -0.230960
O60   O     O_R   0.107940 0.605258 0.937418 -0.320916
N19   N     N_R   0.643585 0.378734 0.463690 0.282490
O61   O     O_R   0.679462 0.445835 0.453722 -0.236514
O62   O     O_R   0.624416 0.224246 0.441028 -0.299267
N20   N     N_R   0.364012 0.241002 0.537675 0.281569
O63   O     O_R   0.324728 0.269177 0.546068 -0.230968
O64   O     O_R   0.391950 0.105646 0.562628 -0.320660
N21   N     N_R   0.923269 0.981644 0.342140 0.290658
O65   O     O_R   0.930845 0.135043 0.321349 -0.289352
O66   O     O_R   0.891789 0.866668 0.310836 -0.300227
N22   N     N_R   0.077980 0.023100 0.658506 0.288242
O67   O     O_R   0.071690 0.185470 0.675377 -0.310946
O68   O     O_R   0.108107 0.910693 0.692774 -0.307107
N23   N     N_R   0.576714 0.482164 0.157842 0.290616
O69   O     O_R   0.569054 0.635529 0.178585 -0.289441
O70   O     O_R   0.608283 0.367534 0.189175 -0.300229
N24   N     N_R   0.422002 0.522525 0.841461 0.288264
O71   O     O_R   0.428227 0.684888 0.824536 -0.310839
O72   O     O_R   0.391935 0.409860 0.807225 -0.307053
O73   O     O_3   0.866896 0.907254 0.402306 -0.592449
C109  C     C_3   0.854813 0.728584 0.414847 0.319844
H41   H     H_    0.816028 0.728865 0.407437 0.185384
H42   H     H_    0.873783 0.689748 0.458662 0.120219
C110  C     C_3   0.863718 0.581601 0.378094 -0.424079
H43   H     H_    0.840937 0.610397 0.334606 0.281571
H44   H     H_    0.901915 0.583989 0.382850 0.230155
C111  C     C_3   0.852004 0.389824 0.392922 -0.711830
H45   H     H_    0.875546 0.355149 0.435717 0.256722
H46   H     H_    0.857978 0.287196 0.364996 0.296024
H47   H     H_    0.813976 0.382288 0.388641 0.285466
O74   O     O_3   0.133839 0.912387 0.601076 -0.592675
C112  C     C_3   0.145848 0.728072 0.593522 0.301546
H48   H     H_    0.183756 0.727267 0.597130 0.186928
H49   H     H_    0.124461 0.670891 0.552231 0.113261
C113  C     C_3   0.141344 0.600460 0.637513 -0.400293
H50   H     H_    0.165127 0.650209 0.678690 0.274678
H51   H     H_    0.103746 0.600510 0.635045 0.239900
C114  C     C_3   0.155388 0.403756 0.629910 -0.716326
H52   H     H_    0.130677 0.347814 0.589996 0.260341
H53   H     H_    0.153307 0.315581 0.663287 0.302047
H54   H     H_    0.192659 0.399468 0.631366 0.274684
O75   O     O_3   0.633100 0.407601 0.097693 -0.592399
C115  C     C_3   0.645199 0.228901 0.085194 0.319832
H55   H     H_    0.683986 0.229202 0.092615 0.185362
H56   H     H_    0.626240 0.189965 0.041385 0.120187
C116  C     C_3   0.636296 0.081999 0.121972 -0.424089
H57   H     H_    0.659071 0.110890 0.165457 0.281559
H58   H     H_    0.598098 0.084384 0.117211 0.230131
C117  C     C_3   0.648022 0.890184 0.107183 -0.711743
H59   H     H_    0.624489 0.855415 0.064392 0.256750
H60   H     H_    0.642047 0.787617 0.135124 0.296047
H61   H     H_    0.686053 0.882649 0.111476 0.285416
O76   O     O_3   0.366161 0.411935 0.898919 -0.592716
C118  C     C_3   0.354176 0.227636 0.906529 0.301561
H62   H     H_    0.316274 0.226804 0.902938 0.186947
H63   H     H_    0.375582 0.170577 0.947830 0.113264
C119  C     C_3   0.358679 0.099902 0.862562 -0.400228
H64   H     H_    0.334888 0.149548 0.821376 0.274685
H65   H     H_    0.396275 0.099946 0.865023 0.239890
C120  C     C_3   0.344647 0.903226 0.870215 -0.716484
H66   H     H_    0.369367 0.847387 0.910139 0.260303
H67   H     H_    0.346726 0.814956 0.836855 0.302033
H68   H     H_    0.307380 0.898947 0.868769 0.274738
N25   N     N_R   0.878065 0.347583 0.704896 0.248668
O77   O     O_R   0.893611 0.313422 0.757060 -0.402326
O78   O     O_R   0.883312 0.512043 0.688681 -0.358531
N26   N     N_R   0.124443 0.224344 0.287979 0.243237
O79   O     O_R   0.111472 0.173835 0.237134 -0.391927
O80   O     O_R   0.118593 0.394757 0.299050 -0.372874
N27   N     N_R   0.621927 0.847575 0.795093 0.248669
O81   O     O_R   0.606405 0.813418 0.742930 -0.402338
O82   O     O_R   0.616662 0.012023 0.811303 -0.358531
N28   N     N_R   0.375564 0.724303 0.212026 0.243208
O83   O     O_R   0.388554 0.673747 0.262868 -0.391932
O84   O     O_R   0.381412 0.894726 0.200963 -0.372887

loop_
_geom_bond_atom_site_label_1
_geom_bond_atom_site_label_2
_geom_bond_distance
_ccdc_geom_bond_type
O17   V3    1.772571 S    
C51   C55   1.417733 A    
C106  H34   1.111232 S    
O18   V4    1.772572 S    
N9    O37   1.300829 A    
N2    C93   1.448421 S    
C55   C59   1.415934 A    
C13   N17   1.436253 S    
C118  H63   1.114754 S    
C9    C21   1.410633 A    
O45   C97   1.420533 S    
C46   C62   1.414342 A    
O3    C7    1.335204 A    
C116  H57   1.110946 S    
C10   C18   1.408661 A    
C45   C61   1.415802 A    
N4    C52   1.369303 A    
C11   C23   1.410644 A    
C103  H28   1.117115 S    
C120  H68   1.110790 S    
N18   O60   1.301389 A    
N5    O29   1.301389 A    
C47   C63   1.415805 A    
C33   C38   1.409770 A    
C5    C12   1.487474 S    
N13   O49   1.301252 A    
O46   C100  1.414550 S    
O1    C5    1.335183 A    
C6    C11   1.488111 S    
C106  H35   1.115216 S    
O73   C109  1.422580 S    
C52   O28   1.348386 S    
C97   H14   1.117124 S    
C36   C39   1.403825 A    
C50   O26   1.348394 S    
O9    V1    2.006477 S    
C71   O75   1.388471 S    
C116  H58   1.111027 S    
O7    V3    1.996070 S    
N6    O32   1.301549 A    
C14   C18   1.411089 A    
N14   O52   1.301356 A    
C87   H11   1.080787 S    
C113  C114  1.527345 S    
C110  H43   1.110939 S    
O4    C8    1.334797 A    
C114  H54   1.110791 S    
C107  H37   1.111778 S    
C100  C101  1.528221 S    
C66   N22   1.436308 S    
C97   H13   1.109908 S    
C82   C86   1.408369 A    
C109  H42   1.114057 S    
N23   O69   1.301323 A    
C111  H47   1.110739 S    
C100  H20   1.111225 S    
C92   C96   1.416209 A    
O1    V3    1.991614 S    
C108  H40   1.110961 S    
C25   C33   1.441646 A    
C101  H22   1.105575 S    
C38   H2    1.074527 S    
C108  H38   1.106213 S    
O2    V4    1.991614 S    
O3    V1    1.991602 S    
C112  H48   1.111033 S    
N1    C94   1.447598 S    
C102  H26   1.110964 S    
C28   C36   1.433981 A    
C21   O46   1.382925 S    
C72   O76   1.388818 S    
C77   C81   1.417675 A    
C76   C96   1.400860 A    
C45   O21   1.348838 S    
C1    O15   1.331723 A    
C68   C72   1.408127 A    
C15   C31   1.423754 A    
C88   C92   1.408906 A    
C56   C60   1.415659 A    
C62   C69   1.418488 A    
C2    O16   1.330251 A    
C113  H50   1.111151 S    
C24   O47   1.389840 S    
C117  H61   1.110740 S    
C111  H46   1.110161 S    
O2    C6    1.334796 A    
C115  H56   1.114067 S    
N7    O33   1.301387 A    
C105  H32   1.109128 S    
C49   O25   1.348575 S    
C105  H31   1.108170 S    
C10   C22   1.411217 A    
C103  H27   1.109914 S    
C21   C25   1.435654 A    
C11   C19   1.407225 A    
C16   C20   1.411108 A    
C42   N6    1.436702 S    
C53   C65   1.418871 A    
O8    C4    1.335192 A    
C80   C84   1.414693 A    
C104  C105  1.523704 S    
C13   C29   1.423757 A    
C7    C10   1.487486 S    
C34   C37   1.403824 A    
O11   C7    1.339963 A    
O75   C115  1.422584 S    
O15   V3    1.974071 S    
C35   C36   1.421885 A    
C48   O24   1.349088 S    
C98   H15   1.105429 S    
N21   O65   1.301316 A    
C118  C119  1.531236 S    
N12   O44   1.301215 A    
N7    O34   1.301602 A    
C86   H10   1.083213 S    
C20   N15   1.438033 S    
N20   O64   1.301388 A    
O10   V2    2.006477 S    
C84   C88   1.408363 A    
N18   O59   1.301425 A    
N5    O30   1.301600 A    
C49   C53   1.417736 A    
C58   C62   1.412806 A    
C27   C35   1.441661 A    
C75   C95   1.400759 A    
C99   H19   1.110906 S    
C60   C64   1.412806 A    
C92   N12   1.440677 S    
N25   O78   1.300454 A    
C106  C107  1.528214 S    
N24   O72   1.299928 A    
C1    C84   1.494718 S    
C75   C79   1.404079 A    
O48   C106  1.414548 S    
C38   C42   1.398455 A    
C43   N7    1.436748 S    
O47   C103  1.420531 S    
O8    V4    1.996077 S    
C103  C104  1.528595 S    
C48   N4    1.367156 A    
C47   O23   1.348838 S    
C3    C82   1.494715 S    
C68   N24   1.436293 S    
N14   O51   1.300161 A    
C16   N20   1.436062 S    
C67   C71   1.406609 A    
C54   C58   1.415654 A    
C100  H21   1.115223 S    
C59   C60   1.419350 A    
C112  H49   1.114753 S    
C17   N14   1.439143 S    
C53   C57   1.415937 A    
C107  H36   1.105569 S    
C115  H55   1.110893 S    
C110  H44   1.111027 S    
C23   C27   1.435671 A    
C4    C81   1.501485 S    
C116  C117  1.526357 S    
C27   C31   1.421702 A    
N23   O70   1.299884 A    
C109  H41   1.110893 S    
C32   C44   1.416799 A    
C57   C61   1.413064 A    
O4    V2    1.991605 S    
C76   H8    1.083581 S    
C23   O48   1.382929 S    
C26   C34   1.433969 A    
C78   C82   1.414702 A    
O7    C3    1.330189 A    
N27   O81   1.297879 A    
C39   C43   1.394618 A    
C15   N19   1.436260 S    
N25   O77   1.297884 A    
C81   C85   1.410017 A    
N15   O54   1.301385 A    
N2    C50   1.369310 A    
C79   C83   1.417688 A    
N3    C96   1.447607 S    
C14   C30   1.423086 A    
N1    C49   1.368793 A    
C88   H12   1.083218 S    
N4    C95   1.448411 S    
C111  H45   1.110997 S    
C19   N16   1.439145 S    
C105  H33   1.110905 S    
N22   O68   1.299924 A    
C120  H66   1.111251 S    
O76   C118  1.422817 S    
C12   C24   1.411196 A    
O9    C5    1.339977 A    
C91   C95   1.412636 A    
N19   O62   1.301395 A    
C16   C32   1.423103 A    
C26   C30   1.415574 A    
N6    O31   1.301359 A    
N16   O56   1.301358 A    
N27   O82   1.300456 A    
N8    O35   1.301359 A    
C74   H6    1.083578 S    
C98   H16   1.110205 S    
C80   N28   1.429528 S    
C73   H5    1.083435 S    
C113  H51   1.111209 S    
C99   H17   1.108173 S    
O6    V2    1.996075 S    
C39   H3    1.079230 S    
C85   H9    1.080794 S    
C50   C54   1.419222 A    
C75   H7    1.083439 S    
N21   O66   1.299882 A    
C90   C94   1.416211 A    
N12   O43   1.301510 A    
C51   O27   1.348574 S    
C12   C20   1.408654 A    
N9    O38   1.301298 A    
C78   N26   1.429547 S    
N20   O63   1.301429 A    
C41   N5    1.436744 S    
C2    C83   1.501486 S    
C56   C68   1.419862 A    
O5    V1    1.996075 S    
C40   C44   1.398447 A    
N15   O53   1.301241 A    
N19   O61   1.301496 A    
C29   C41   1.418332 A    
C63   C72   1.419939 A    
C14   N18   1.436091 S    
O16   V4    1.974069 S    
C98   C99   1.523720 S    
C37   H1    1.079238 S    
C74   C94   1.400852 A    
C89   C93   1.412634 A    
N24   O71   1.301404 A    
N26   O79   1.299086 A    
C45   N1    1.367007 A    
C76   C80   1.402035 A    
C119  C120  1.527347 S    
N11   O42   1.301291 A    
N8    O36   1.301550 A    
C70   O74   1.388812 S    
C69   O73   1.388475 S    
C52   C56   1.419236 A    
O5    C1    1.330187 A    
O74   C112  1.422815 S    
C3    O13   1.331717 A    
C61   C70   1.419941 A    
O6    C2    1.335195 A    
C110  C111  1.526340 S    
C15   C19   1.409614 A    
C114  H52   1.111252 S    
C101  C102  1.515827 S    
O20   V2    1.772581 S    
O11   V3    2.006490 S    
N28   O83   1.299089 A    
C30   C42   1.416789 A    
O12   V4    2.006492 S    
C73   C77   1.404081 A    
C65   N21   1.436284 S    
C22   C26   1.433063 A    
C44   N8    1.436679 S    
C8    C9    1.488099 S    
C112  C113  1.531248 S    
C22   O45   1.389846 S    
C89   N9    1.439068 S    
C77   N25   1.428589 S    
C9    C17   1.407227 A    
N10   O39   1.301512 A    
O10   C6    1.340309 A    
C91   N11   1.439078 S    
C57   C58   1.419354 A    
N13   O50   1.301388 A    
C31   C43   1.418327 A    
C35   C40   1.409758 A    
N28   O84   1.301178 A    
C66   C70   1.408131 A    
O13   V1    1.974071 S    
C48   C64   1.414332 A    
C119  H65   1.111207 S    
C114  H53   1.109753 S    
C107  C108  1.515828 S    
C33   C34   1.421884 A    
C119  H64   1.111151 S    
O19   V1    1.772581 S    
C109  C110  1.533524 S    
C115  C116  1.533552 S    
C25   C29   1.421696 A    
C74   C78   1.402036 A    
N26   O80   1.301177 A    
N22   O67   1.301407 A    
N17   O58   1.301394 A    
N17   O57   1.301496 A    
C73   C93   1.400765 A    
C101  H23   1.111781 S    
C117  H60   1.110170 S    
C46   O22   1.349083 S    
C40   H4    1.074527 S    
C37   C41   1.394629 A    
C67   N23   1.436319 S    
N16   O55   1.300158 A    
C54   C66   1.419849 A    
C83   C87   1.410016 A    
C102  H25   1.105911 S    
N11   O41   1.300830 A    
C87   C91   1.407549 A    
O14   V2    1.974076 S    
C59   C63   1.413057 A    
C104  H29   1.105419 S    
N3    C51   1.368795 A    
C55   C67   1.418878 A    
C90   N10   1.440687 S    
C24   C28   1.433065 A    
C13   C17   1.409619 A    
C85   C89   1.407550 A    
O12   C8    1.340302 A    
C46   N2    1.367163 A    
C64   C71   1.418482 A    
C4    O14   1.330246 A    
C118  H62   1.111031 S    
C18   N13   1.438005 S    
C108  H39   1.105906 S    
C117  H59   1.111009 S    
C120  H67   1.109750 S    
C102  H24   1.106215 S    
C79   N27   1.428597 S    
C47   N3    1.367011 A    
C65   C69   1.406597 A    
C28   C32   1.415585 A    
N10   O40   1.301211 A    
C99   H18   1.109134 S    
C104  H30   1.110215 S    
C97   C98   1.528612 S    
C86   C90   1.408905 A    
