data_mof_unit_42689.cif
_audit_creation_date              2012-12-11T13:59:58-0500
_audit_creation_method            fapswitch 2.2
_symmetry_space_group_name_H-M    P1
_symmetry_Int_Tables_number       1
_space_group_crystal_system       triclinic
_cell_length_a                    11.210678
_cell_length_b                    11.307092
_cell_length_c                    18.579534
_cell_angle_alpha                 90.108245
_cell_angle_beta                  90.5314
_cell_angle_gamma                 120.204909
_cell_volume                      2035.24473824

loop_
_atom_site_label
_atom_site_type_symbol
_atom_type_description
_atom_site_fract_x
_atom_site_fract_y
_atom_site_fract_z
_atom_type_partial_charge
C1    C     C_R   0.542418 0.479182 0.852731 0.558700
C2    C     C_R   0.448211 0.585754 0.358721 0.613198
C3    C     C_R   0.062485 0.520194 0.350675 0.568885
C4    C     C_R   0.461206 0.943850 0.349260 0.617042
C5    C     C_2   0.019403 0.510351 0.586148 -0.074489
C6    C     C_2   0.487957 0.509547 0.583841 -0.081437
C7    C     C_2   0.557536 0.130585 0.562795 -0.096688
C8    C     C_2   0.513947 0.024730 0.415171 -0.067726
C9    C     C_2   0.442629 0.572578 0.437092 -0.083738
C10   C     C_2   0.994335 0.502090 0.417969 -0.066204
C11   C     C_2   0.055880 0.598438 0.469102 0.239306
C12   C     C_R   0.521092 0.063388 0.852776 0.573574
C13   C     C_2   0.536083 0.666498 0.483288 0.253100
C14   C     C_2   0.468847 0.108086 0.438696 0.244032
C15   C     C_2   0.463556 0.130659 0.516768 0.240557
C16   C     C_2   0.530781 0.637802 0.561119 0.258233
C17   C     C_2   0.988471 0.576151 0.536421 0.240432
C18   C     C_2   0.005996 0.503703 0.921888 -0.106377
C19   C     C_2   0.497187 0.502618 0.921356 -0.105657
C20   C     C_2   0.499053 0.996023 0.921639 -0.103870
C21   C     C_2   0.502708 0.004995 0.078654 -0.105508
C22   C     C_2   0.500881 0.496792 0.078257 -0.104360
C23   C     C_R   0.937119 0.457750 0.852773 0.553587
C24   C     C_2   0.993700 0.497321 0.078197 -0.106884
C25   C     C_2   0.014154 0.604908 0.038597 -0.164414
C26   C     C_2   0.391909 0.411261 0.037236 -0.164630
C27   C     C_2   0.592074 0.987158 0.039095 -0.165792
C28   C     C_2   0.607875 0.018745 0.962594 -0.164731
C29   C     C_2   0.407561 0.395618 0.960679 -0.165906
C30   C     C_2   0.984367 0.590014 0.961788 -0.164501
C31   C     C_R   0.478943 0.542251 0.147216 0.571629
C32   C     C_R   0.062858 0.520567 0.147240 0.551477
C33   C     C_R   0.457574 0.936651 0.147258 0.556857
C34   C     C_R   0.539560 0.481941 0.650131 0.598472
C35   C     C_R   0.551767 0.137528 0.641281 0.604497
C36   C     C_R   0.937259 0.457057 0.649255 0.556566
Cl1   Cl    Cl    0.228608 0.733434 0.466265 -0.559665
Cl2   Cl    Cl    0.679242 0.821508 0.454048 -0.445614
Cl3   Cl    Cl    0.392649 0.173548 0.378742 -0.482144
Cl4   Cl    Cl    0.319212 0.140525 0.546511 -0.448418
Cl5   Cl    Cl    0.603314 0.778507 0.621838 -0.459487
Cl6   Cl    Cl    0.850554 0.609376 0.540285 -0.479111
Cr1   Cr    Cr6+3 0.464030 0.233680 0.750360 1.083995
Cr2   Cr    Cr6+3 0.766320 0.230350 0.750360 1.080694
Cr3   Cr    Cr6+3 0.769650 0.535970 0.750360 1.109255
Cr4   Cr    Cr6+3 0.233680 0.464030 0.249640 1.082769
Cr5   Cr    Cr6+3 0.230350 0.766320 0.249640 1.107570
Cr6   Cr    Cr6+3 0.535970 0.769650 0.249640 1.083761
H1    H     H_    0.895903 0.409521 0.427031 0.079734
H2    H     H_    0.711267 0.065676 0.940752 0.158636
H3    H     H_    0.348273 0.293521 0.937522 0.159007
H4    H     H_    0.938685 0.646687 0.938929 0.159451
H5    H     H_    0.944738 0.394823 0.055121 0.109528
H6    H     H_    0.604507 0.549412 0.056456 0.108995
H7    H     H_    0.447464 0.052487 0.055868 0.111743
H8    H     H_    0.395421 0.945422 0.943431 0.109527
H9    H     H_    0.552578 0.605180 0.944363 0.111805
H10   H     H_    0.055683 0.450723 0.944753 0.109669
H11   H     H_    0.352508 0.482590 0.457846 0.092722
H12   H     H_    0.567776 0.991807 0.451096 0.136526
H13   H     H_    0.648159 0.131594 0.541912 0.085010
H14   H     H_    0.436884 0.423345 0.547262 0.123235
H15   H     H_    0.096597 0.481214 0.575488 0.098168
H16   H     H_    0.058963 0.707041 0.061687 0.159548
H17   H     H_    0.288499 0.355249 0.059062 0.158688
H18   H     H_    0.651155 0.943942 0.062037 0.158768
O1    O     O_R   0.434100 0.092480 0.829780 -0.512943
O2    O     O_R   0.362730 0.477510 0.175360 -0.491275
O3    O     O_R   0.114780 0.637270 0.175360 -0.503478
O4    O     O_R   0.522490 0.885220 0.175360 -0.507960
O5    O     O_R   0.432250 0.092620 0.670380 -0.424350
O6    O     O_R   0.907380 0.339630 0.670380 -0.515927
O7    O     O_R   0.660370 0.567750 0.670380 -0.408201
O8    O     O_R   0.092620 0.432250 0.329620 -0.509946
O9    O     O_R   0.339630 0.907380 0.329620 -0.405479
O10   O     O_R   0.567750 0.660370 0.329620 -0.433377
O11   O     O_R   0.475790 0.362860 0.676880 -0.502929
O12   O     O_R   0.907520 0.341620 0.829780 -0.515912
O13   O     O_R   0.637140 0.112930 0.676880 -0.455017
O14   O     O_R   0.887070 0.524210 0.676880 -0.444014
O15   O     O_R   0.362860 0.475790 0.323120 -0.457943
O16   O     O_R   0.112930 0.637140 0.323120 -0.447232
O17   O     O_R   0.524210 0.887070 0.323120 -0.499828
O18   O     O_3   0.666667 0.333333 0.749450 -0.316137
O19   O     O_3   0.333333 0.666667 0.250550 -0.309607
O20   O     O_R   0.658380 0.565900 0.829780 -0.509239
O21   O     O_R   0.092480 0.434100 0.170220 -0.517312
O22   O     O_R   0.341620 0.907520 0.170220 -0.511308
O23   O     O_R   0.565900 0.658380 0.170220 -0.514239
O24   O     O_R   0.477510 0.362730 0.824640 -0.506239
O25   O     O_R   0.637270 0.114780 0.824640 -0.490521
O26   O     O_R   0.885220 0.522490 0.824640 -0.501182

loop_
_geom_bond_atom_site_label_1
_geom_bond_atom_site_label_2
_ccdc_geom_bond_type
C1    O24   A    
Cr6   O10   S    
C12   O25   A    
C4    C8    S    
C22   H6    S    
C19   H9    S    
Cr5   O19   S    
C33   O22   A    
C34   O11   A    
C5    C17   D    
C5    C36   S    
C1    O20   A    
C5    H15   S    
Cr3   O7    S    
Cr5   O16   S    
C11   Cl1   S    
Cr3   O26   S    
C9    C13   D    
C17   Cl6   S    
C7    H13   S    
C4    O9    A    
C14   Cl3   S    
C28   H2    S    
C18   H10   S    
Cr5   O3    S    
C31   O23   A    
C8    C14   D    
C18   C30   D    
C23   O26   A    
C20   H8    S    
Cr4   O19   S    
C7    C15   D    
C21   C27   D    
C35   O5    A    
Cr1   O18   S    
C31   O2    A    
C12   O1    A    
C1    C19   S    
Cr1   O24   S    
C22   C31   S    
C18   C23   S    
C24   C25   D    
C36   O14   A    
C21   H7    S    
C20   C28   D    
C24   H5    S    
C32   O21   A    
C6    C34   S    
C3    O8    A    
C25   H16   S    
C24   C32   S    
Cr4   O2    S    
Cr4   O15   S    
C12   C20   S    
C3    O16   A    
C13   Cl2   S    
Cr2   O25   S    
C33   O4    A    
Cr6   O23   S    
Cr3   O18   S    
C19   C29   D    
Cr4   O8    S    
C2    O10   A    
Cr4   O21   S    
C29   H3    S    
C25   C30   S    
C30   H4    S    
C11   C17   S    
Cr1   O5    S    
C14   C15   S    
C26   H17   S    
C7    C35   S    
Cr2   O13   S    
Cr6   O4    S    
Cr2   O18   S    
C32   O3    A    
Cr1   O11   S    
Cr6   O17   S    
Cr5   O22   S    
C6    H14   S    
Cr2   O12   S    
Cr3   O20   S    
Cr5   O9    S    
C27   H18   S    
C8    H12   S    
C2    C9    S    
C4    O17   A    
C35   O13   A    
Cr2   O6    S    
Cr3   O14   S    
C23   O12   A    
C15   Cl4   S    
C10   C11   D    
C34   O7    A    
C6    C16   D    
C21   C33   S    
C26   C29   S    
Cr1   O1    S    
C22   C26   D    
C13   C16   S    
C27   C28   S    
C3    C10   S    
Cr6   O19   S    
C2    O15   A    
C9    H11   S    
C10   H1    S    
C16   Cl5   S    
C36   O6    A    
