data_mof_unit_39835.cif
_audit_creation_date              2012-12-10T17:49:41-0500
_audit_creation_method            fapswitch 2.2
_symmetry_space_group_name_H-M    P1
_symmetry_Int_Tables_number       1
_space_group_crystal_system       triclinic
_cell_length_a                    10.52714
_cell_length_b                    10.645601
_cell_length_c                    9.980688
_cell_angle_alpha                 88.057509
_cell_angle_beta                  90.29751
_cell_angle_gamma                 93.935004
_cell_volume                      1115.23037555

loop_
_atom_site_label
_atom_site_type_symbol
_atom_type_description
_atom_site_fract_x
_atom_site_fract_y
_atom_site_fract_z
_atom_type_partial_charge
C1    C     C_R   0.515702 0.262198 0.503622 0.928813
C2    C     C_R   0.504379 0.057070 0.628777 -0.013208
C3    C     C_R   0.544408 0.131503 0.514556 -0.115945
C4    C     C_R   0.257964 0.499845 0.500146 0.972615
C5    C     C_R   0.587822 0.075289 0.400450 0.074206
C6    C     C_R   0.569757 0.945764 0.390783 0.049254
C7    C     C_R   0.498830 0.875744 0.492282 -0.132014
C8    C     C_R   0.306289 0.342876 0.132845 0.430737
C9    C     C_R   0.207312 0.284214 0.055575 -0.022941
C10   C     C_R   0.216331 0.285198 0.916990 0.026233
C11   C     C_R   0.320934 0.348715 0.856372 -0.141673
C12   C     C_3   0.958456 0.482645 0.376879 0.428570
C13   C     C_R   0.409003 0.425920 0.927364 0.044724
C14   C     C_R   0.405933 0.425139 0.071537 0.037315
C15   C     C_R   0.587272 0.570481 0.070645 -0.078783
C16   C     C_R   0.496935 0.740359 0.497255 0.862739
C17   C     C_R   0.588599 0.570398 0.928744 0.133603
C18   C     C_R   0.741943 0.500812 0.500053 0.964314
C19   C     C_3   0.041194 0.518329 0.624660 0.398455
C20   C     C_3   0.950607 0.405444 0.585224 -0.470556
C21   C     C_3   0.876135 0.499688 0.500048 -0.151511
C22   C     C_3   0.965992 0.610449 0.541460 0.369847
C23   C     C_3   0.033286 0.390514 0.460341 0.401521
C24   C     C_3   0.048800 0.595798 0.416382 -0.451792
C25   C     C_3   0.123539 0.501252 0.501207 -0.162292
C26   C     C_R   0.515718 0.096123 0.763499 0.460902
C27   C     C_R   0.447049 0.025442 0.866535 -0.005746
C28   C     C_R   0.367227 0.919111 0.831566 0.094150
C29   C     C_R   0.372654 0.874799 0.702163 -0.153717
C30   C     C_R   0.455453 0.935507 0.606033 -0.072430
H1    H     H_    0.907311 0.328945 0.652091 0.196916
H2    H     H_    0.273266 0.222091 0.280571 0.354312
H3    H     H_    0.099074 0.121984 0.093711 0.196416
H4    H     H_    0.017417 0.253998 0.088034 0.215207
H5    H     H_    0.037434 0.258991 0.845458 0.207448
H6    H     H_    0.147464 0.218098 0.737840 0.208448
H7    H     H_    0.652663 0.703105 0.789260 0.247907
H8    H     H_    0.751849 0.584624 0.821854 0.231448
H9    H     H_    0.012808 0.540352 0.811646 0.339660
H10   H     H_    0.003722 0.776262 0.605990 0.348270
H11   H     H_    0.986918 0.466131 0.189106 0.341462
H12   H     H_    0.315976 0.789373 0.679012 0.190563
H13   H     H_    0.992637 0.224045 0.399187 0.344316
H14   H     H_    0.746829 0.118400 0.289567 0.204146
H15   H     H_    0.608057 0.137188 0.206855 0.219796
H16   H     H_    0.606864 0.208464 0.889420 0.342546
H17   H     H_    0.419247 0.145194 0.014281 0.176056
H18   H     H_    0.417377 0.995619 0.071085 0.183494
H19   H     H_    0.659166 0.627444 0.123358 0.164983
H20   H     H_    0.332170 0.334090 0.752834 0.219078
H21   H     H_    0.090932 0.672324 0.348728 0.181365
H22   H     H_    0.342316 0.808318 0.000115 0.185261
H23   H     H_    0.227727 0.911997 0.971301 0.190645
H24   H     H_    0.687327 0.822341 0.313058 0.218607
H25   H     H_    0.553297 0.847236 0.219184 0.205857
N1    N     N_R   0.498800 0.498800 0.142780 -0.113307
N2    N     N_R   0.498760 0.498720 0.857170 -0.110109
N3    N     N_3   0.285964 0.849672 0.926643 -0.432091
N4    N     N_3   0.625404 0.889070 0.278512 -0.460498
N5    N     N_3   0.101442 0.216036 0.121226 -0.424624
N6    N     N_3   0.122613 0.214605 0.839287 -0.445715
N7    N     N_3   0.689580 0.644627 0.863202 -0.444306
N8    N     N_3   0.655505 0.150212 0.297958 -0.413806
N9    N     N_3   0.462363 0.060973 0.003803 -0.487704
O1    O     O_R   0.500000 0.316780 0.614690 -0.615834
O2    O     O_3   0.088789 0.540329 0.753431 -0.739009
O3    O     O_3   0.924833 0.723707 0.586511 -0.763435
O4    O     O_3   0.911106 0.460675 0.248016 -0.745628
O5    O     O_3   0.072318 0.275912 0.417207 -0.750453
O6    O     O_3   0.606444 0.191886 0.792565 -0.751042
O7    O     O_R   0.499990 0.316750 0.385360 -0.547987
O8    O     O_R   0.313960 0.499980 0.614650 -0.619647
O9    O     O_R   0.313940 0.499960 0.385310 -0.554825
O10   O     O_R   0.500010 0.683250 0.614640 -0.627771
O11   O     O_R   0.500000 0.683220 0.385310 -0.650629
O12   O     O_R   0.686060 0.500040 0.614690 -0.629206
O13   O     O_R   0.686040 0.500020 0.385350 -0.586290
O14   O     O_3   0.307901 0.310482 0.265745 -0.672621
Zn1   Zn    Zn3+2 0.500010 0.500020 0.653130 0.968605
Zn2   Zn    Zn3+2 0.499990 0.499980 0.346870 0.998336

loop_
_geom_bond_atom_site_label_1
_geom_bond_atom_site_label_2
_ccdc_geom_bond_type
C14   N1    A    
C8    O14   S    
O1    Zn1   S    
H25   N4    S    
C29   H12   S    
C16   O11   A    
C23   O5    S    
C19   C20   S    
O12   Zn1   S    
H7    N7    S    
C12   O4    S    
C12   C23   S    
C26   C27   A    
C1    O7    A    
C16   O10   A    
C28   C29   A    
O8    Zn1   S    
C5    C6    A    
H18   N9    S    
C13   N2    A    
C18   C21   S    
C5    N8    S    
C19   O2    S    
N2    Zn1   S    
C8    C9    A    
H10   O3    S    
C1    O1    A    
O11   Zn2   S    
C24   H21   S    
C15   H19   S    
H13   O5    S    
C7    C30   A    
C13   C14   A    
H4    N5    S    
O7    Zn2   S    
C4    C25   S    
H11   O4    S    
H24   N4    S    
H14   N8    S    
C19   C22   S    
C24   C25   S    
H5    N6    S    
C10   C11   A    
H17   N9    S    
C12   C21   S    
H15   N8    S    
C1    C3    S    
C29   C30   A    
C17   N7    S    
C20   C23   S    
C2    C26   A    
C4    O9    A    
H22   N3    S    
C7    C16   S    
H3    N5    S    
O10   Zn1   S    
C26   O6    S    
H9    O2    S    
C22   C24   S    
C10   N6    S    
H6    N6    S    
C4    O8    A    
C9    C10   A    
O13   Zn2   S    
C15   C17   A    
C8    C14   A    
C6    N4    S    
C3    C5    A    
H23   N3    S    
C6    C7    A    
C28   N3    S    
C12   C24   S    
N1    Zn2   S    
C2    C30   A    
C9    N5    S    
C15   N1    A    
C2    C3    A    
C11   H20   S    
C11   C13   A    
C18   O13   A    
O9    Zn2   S    
C23   C25   S    
C19   C25   S    
C22   O3    S    
H16   O6    S    
C27   N9    S    
H2    O14   S    
C20   C21   S    
C17   N2    A    
C27   C28   A    
C21   C22   S    
C18   O12   A    
H8    N7    S    
C20   H1    S    
