data_mof_unit_60389.cif
_audit_creation_date              2012-12-10T19:37:36-0500
_audit_creation_method            fapswitch 2.2
_symmetry_space_group_name_H-M    P1
_symmetry_Int_Tables_number       1
_space_group_crystal_system       triclinic
_cell_length_a                    13.9069
_cell_length_b                    15.805618
_cell_length_c                    17.087181
_cell_angle_alpha                 96.48403
_cell_angle_beta                  89.963087
_cell_angle_gamma                 82.555474
_cell_volume                      3699.95803536

loop_
_atom_site_label
_atom_site_type_symbol
_atom_type_description
_atom_site_fract_x
_atom_site_fract_y
_atom_site_fract_z
_atom_type_partial_charge
C1    C     C_R   0.500383 0.510517 0.651188 0.849993
C2    C     C_R   0.499617 0.489483 0.348812 0.849994
C3    C     C_R   0.583102 0.558092 0.859439 0.239323
C4    C     C_R   0.416898 0.441908 0.140561 0.239323
C5    C     C_R   0.576689 0.556543 0.777357 0.164416
C6    C     C_R   0.423311 0.443457 0.222643 0.164416
C7    C     C_R   0.448506 0.254511 0.536401 0.076053
C8    C     C_R   0.551492 0.745488 0.463597 0.076051
C9    C     C_R   0.441944 0.165945 0.530669 0.254368
C10   C     C_R   0.558054 0.834055 0.469329 0.254366
C11   C     C_R   0.506600 0.108126 0.478917 0.231651
C12   C     C_R   0.493401 0.891874 0.521083 0.231651
C13   C     C_R   0.571233 0.143256 0.431921 0.291812
C14   C     C_R   0.428771 0.856743 0.568081 0.291810
C15   C     C_R   0.572224 0.233410 0.438768 -0.062567
C16   C     C_R   0.427779 0.766589 0.561234 -0.062566
C17   C     C_R   0.316245 0.513569 0.500751 0.827694
C18   C     C_R   0.683755 0.486431 0.499249 0.827694
C19   C     C_1   0.786945 0.478364 0.498409 -0.085444
C20   C     C_1   0.213055 0.521636 0.501591 -0.085443
C21   C     C_2   0.977685 0.464560 0.496578 0.202833
C22   C     C_2   0.022315 0.535440 0.503422 0.202833
C23   C     C_1   0.126110 0.528480 0.502429 0.082154
C24   C     C_1   0.873890 0.471520 0.497571 0.082154
C25   C     C_R   0.503053 0.516474 0.737022 -0.263565
C26   C     C_R   0.496947 0.483526 0.262978 -0.263564
C27   C     C_R   0.435178 0.479008 0.779283 0.344616
C28   C     C_R   0.564822 0.520992 0.220717 0.344617
C29   C     C_R   0.443960 0.479725 0.860341 -0.146463
C30   C     C_R   0.556040 0.520275 0.139659 -0.146463
C31   C     C_R   0.517629 0.518927 0.901090 0.181279
C32   C     C_R   0.482370 0.481073 0.098910 0.181279
Cu1   Cu    Cu3+1 0.495370 0.585120 0.503830 1.009651
Cu2   Cu    Cu3+1 0.504630 0.414880 0.496170 1.009651
H1    H     H_    0.608373 0.549854 0.108628 0.229480
H2    H     H_    0.391627 0.450146 0.891372 0.229480
H3    H     H_    0.600773 0.701729 0.424282 0.188304
H4    H     H_    0.399223 0.298271 0.575714 0.188304
H5    H     H_    0.620751 0.260785 0.402127 0.154423
H6    H     H_    0.379254 0.739215 0.597877 0.154422
N1    N     N_2   0.528234 0.520504 0.983866 -0.167250
N2    N     N_2   0.471766 0.479497 0.016134 -0.167250
N3    N     N_R   0.511590 0.287020 0.490400 -0.224877
N4    N     N_R   0.488410 0.712980 0.509600 -0.224876
N5    N     N_2   0.505761 0.016455 0.468913 -0.160758
N6    N     N_2   0.494239 0.983545 0.531087 -0.160757
O1    O     O_R   0.495670 0.579790 0.617520 -0.549435
O2    O     O_R   0.504330 0.420210 0.382480 -0.549434
O3    O     O_R   0.503490 0.436020 0.611040 -0.578051
O4    O     O_R   0.496510 0.563980 0.388960 -0.578052
O5    O     O_R   0.357690 0.582040 0.503680 -0.575810
O6    O     O_R   0.642310 0.417960 0.496320 -0.575811
O7    O     O_R   0.365510 0.438280 0.497200 -0.561408
O8    O     O_R   0.634490 0.561720 0.502800 -0.561407
Br1   Br    Br    0.951758 0.649202 0.514981 -0.381226
Br2   Br    Br    0.048242 0.350798 0.485019 -0.381225
O9    O     O_3   0.641087 0.558371 0.255528 -0.667823
H7    H     H_    0.652188 0.540209 0.308656 0.320370
O10   O     O_3   0.358913 0.441629 0.744472 -0.667822
H8    H     H_    0.347812 0.459790 0.691343 0.320370
Br3   Br    Br    0.682919 0.611993 0.916154 -0.302783
Br4   Br    Br    0.317080 0.388007 0.083846 -0.302783
Br5   Br    Br    0.672586 0.604758 0.720430 -0.347895
Br6   Br    Br    0.327414 0.395242 0.279570 -0.347895
O11   O     O_3   0.630953 0.859881 0.426595 -0.640702
H9    H     H_    0.650819 0.912700 0.455140 0.379518
O12   O     O_3   0.369043 0.140119 0.573401 -0.640703
H10   H     H_    0.349180 0.087298 0.544856 0.379517
O13   O     O_3   0.632456 0.088337 0.379769 -0.652944
H11   H     H_    0.672980 0.122645 0.351472 0.341062
O14   O     O_3   0.367549 0.911663 0.620236 -0.652942
H12   H     H_    0.327028 0.877355 0.648534 0.341062

loop_
_geom_bond_atom_site_label_1
_geom_bond_atom_site_label_2
_ccdc_geom_bond_type
C21   Br2   S    
C3    C31   A    
C9    O12   S    
C22   Br1   S    
C7    N3    A    
Cu1   O5    S    
C9    C11   A    
N1    N2    D    
C16   N4    A    
C26   C28   A    
C20   C23   T    
O11   H9    S    
C4    Br4   S    
C17   O5    A    
C28   C30   A    
C19   C24   T    
C6    C26   A    
C18   O6    A    
O10   H8    S    
C2    C26   S    
C31   N1    S    
C27   O10   S    
C28   O9    S    
C30   C32   A    
C11   C13   A    
C29   H2    S    
C15   H5    S    
O9    H7    S    
C4    C32   A    
C10   C12   A    
C30   H1    S    
C16   H6    S    
C5    C25   A    
C12   N6    S    
C10   O11   S    
C7    H4    S    
C12   C14   A    
Cu1   Cu2   S    
C3    Br3   S    
C13   C15   A    
O13   H11   S    
Cu1   O1    S    
C14   C16   A    
C11   N5    S    
C4    C6    A    
C27   C29   A    
C8    H3    S    
C18   O8    A    
C15   N3    A    
O12   H10   S    
C17   O7    A    
O14   H12   S    
C17   C20   S    
Cu2   O2    S    
C5    Br5   S    
Cu2   O7    S    
C29   C31   A    
C18   C19   S    
C14   O14   S    
C21   C24   S    
C6    Br6   S    
Cu1   O8    S    
C7    C9    A    
C13   O13   S    
C32   N2    S    
C22   C23   S    
C1    O1    A    
Cu2   O3    S    
C2    O4    A    
C2    O2    A    
Cu1   O4    S    
C21   C22   D    
Cu1   N4    S    
Cu2   O6    S    
C1    C25   S    
C8    C10   A    
Cu2   N3    S    
C8    N4    A    
N5    N6    D    
C3    C5    A    
C25   C27   A    
C1    O3    A    
