data_mof_unit_52174.cif
_audit_creation_date              2013-03-05T16:35:51-0500
_audit_creation_method            fapswitch 2.2
_symmetry_space_group_name_H-M    P1
_symmetry_Int_Tables_number       1
_space_group_crystal_system       triclinic
_cell_length_a                    23.616167
_cell_length_b                    9.094211
_cell_length_c                    7.76982
_cell_angle_alpha                 90.05706
_cell_angle_beta                  90.000076
_cell_angle_gamma                 90.000257
_cell_volume                      1668.72656616

loop_
_atom_site_label
_atom_site_type_symbol
_atom_site_description
_atom_site_fract_x
_atom_site_fract_y
_atom_site_fract_z
_atom_type_partial_charge
O1    O     O_R   0.500000 0.288390 0.642760 -0.572582
O2    O     O_R   0.500000 0.711610 0.357240 -0.572581
O3    O     O_R   0.500000 0.711610 0.642760 -0.573240
O4    O     O_R   0.500000 0.288390 0.357240 -0.573238
H1    H     H_    0.948188 0.130527 0.450758 0.184852
H2    H     H_    0.051110 0.869647 0.547047 0.185273
H3    H     H_    0.948190 0.869496 0.549203 0.184851
H4    H     H_    0.051109 0.130374 0.452906 0.185272
C1    C     C_R   0.500009 0.219960 0.499948 0.846453
C2    C     C_R   0.500009 0.780040 0.500052 0.846452
O5    O     O_R   0.417880 0.500000 0.642820 -0.572799
O6    O     O_R   0.582120 0.500000 0.357180 -0.573632
O7    O     O_R   0.582120 0.500000 0.642820 -0.573632
O8    O     O_R   0.417880 0.500000 0.357180 -0.572799
C3    C     C_R   0.208015 0.500009 0.499981 0.319200
C4    C     C_R   0.791518 0.500012 0.499993 0.321893
C5    C     C_R   0.390507 0.500000 0.499999 0.786969
C6    C     C_R   0.609409 0.500001 0.500000 0.787864
Cu1   Cu    Cu3+1 0.500000 0.500000 0.669080 1.049595
Cu2   Cu    Cu3+1 0.500000 0.500000 0.330920 1.049597
H5    H     H_    0.214337 0.597564 0.751046 0.154394
H6    H     H_    0.785401 0.381351 0.737946 0.153177
H7    H     H_    0.214341 0.402448 0.248924 0.154397
H8    H     H_    0.785397 0.618673 0.262043 0.153178
C7    C     C_R   0.296806 0.557272 0.642442 -0.072433
C8    C     C_R   0.702839 0.431937 0.635651 -0.072941
C9    C     C_R   0.296807 0.442726 0.357549 -0.072428
C10   C     C_R   0.702838 0.568079 0.364347 -0.072940
C11   C     C_R   0.327541 0.499999 0.499998 -0.127631
C12   C     C_R   0.672225 0.500005 0.499999 -0.124877
C13   C     C_R   0.880609 0.630579 0.517864 0.540477
C14   C     C_R   0.118687 0.369082 0.486307 0.539258
C15   C     C_R   0.880608 0.369445 0.482107 0.540479
C16   C     C_R   0.118688 0.630938 0.513644 0.539260
N1    N     N_R   0.852252 0.500012 0.499988 -0.466217
N2    N     N_R   0.147155 0.500010 0.499976 -0.464676
C17   C     C_R   0.939978 0.366684 0.482452 -0.014274
C18   C     C_R   0.059316 0.633421 0.515979 -0.013681
C19   C     C_R   0.939979 0.633339 0.517511 -0.014273
C20   C     C_R   0.059315 0.366600 0.483973 -0.013679
C21   C     C_R   0.969776 0.500011 0.499980 -0.018183
C22   C     C_R   0.029520 0.500011 0.499977 -0.018364
C23   C     C_R   0.970118 0.234331 0.465227 -0.161843
C24   C     C_R   0.029176 0.765775 0.533469 -0.161198
C25   C     C_R   0.970120 0.765691 0.534733 -0.161844
C26   C     C_R   0.029175 0.234247 0.466485 -0.161198
C27   C     C_1   0.500016 0.065357 0.499927 -0.148970
C28   C     C_1   0.500016 0.934643 0.500073 -0.148970
C29   C     C_R   0.237693 0.555146 0.641532 -0.131930
C30   C     C_R   0.761957 0.433086 0.634373 -0.131193
C31   C     C_R   0.237695 0.444864 0.358441 -0.131930
C32   C     C_R   0.761955 0.566935 0.365618 -0.131194
N3    N     N_1   0.500000 0.500000 0.076820 -0.024353
N4    N     N_1   0.500000 0.500000 0.923180 -0.024354
O9    O     O_2   0.851400 0.757076 0.537190 -0.514077
O10   O     O_2   0.147753 0.241559 0.476710 -0.515197
O11   O     O_2   0.851399 0.242948 0.462784 -0.514077
O12   O     O_2   0.147755 0.758460 0.523239 -0.515193
C33   C     C_1   0.324205 0.623288 0.789891 0.302279
N5    N     N_1   0.346013 0.676294 0.908081 -0.249241
C34   C     C_1   0.675143 0.356122 0.775765 0.296327
N6    N     N_1   0.653053 0.295402 0.888115 -0.246509
C35   C     C_1   0.324209 0.376685 0.210123 0.302292
N7    N     N_1   0.346016 0.323655 0.091951 -0.249242
C36   C     C_1   0.675139 0.643895 0.224238 0.296329
N8    N     N_1   0.653047 0.704615 0.111893 -0.246512

loop_
_geom_bond_atom_site_label_1
_geom_bond_atom_site_label_2
_geom_bond_distance
_ccdc_geom_bond_type
H8    C32   1.084554 S    
C7    C11   1.421948 A    
C18   C24   1.404844 A    
C6    C12   1.483478 S    
C3    C31   1.396829 A    
C9    C11   1.421963 A    
C5    C11   1.486999 S    
C21   C22   1.410929 A    
H7    C31   1.084615 S    
Cu1   Cu2   2.627443 S    
H6    C30   1.084555 S    
C19   C25   1.404634 A    
O3    Cu1   1.935464 S    
O6    Cu2   1.950063 S    
C10   C12   1.420606 A    
C10   C36   1.445643 S    
H1    C23   1.082508 S    
Cu2   N3    1.974310 S    
C33   N5    1.157592 T    
C19   C21   1.408397 A    
O3    C2    1.272054 A    
H2    C24   1.082404 S    
N3    N4    1.193756 T    
C3    C29   1.396846 A    
C20   C26   1.404843 A    
C10   C32   1.396200 A    
O8    C5    1.284247 A    
O5    Cu1   1.950065 S    
C9    C35   1.445758 S    
O7    C6    1.283253 A    
C17   C21   1.408395 A    
H3    C25   1.082511 S    
Cu1   N4    1.974310 S    
H5    C29   1.084637 S    
C15   N1    1.370167 A    
C8    C34   1.445653 S    
C9    C31   1.396161 A    
C18   C22   1.407943 A    
H4    C26   1.082410 S    
C8    C30   1.396206 A    
C4    N1    1.434316 S    
C2    C28   1.405993 S    
C34   N6    1.157606 T    
C4    C30   1.396142 A    
C23   C26   1.394723 A    
C13   N1    1.370169 A    
C17   C23   1.404636 A    
O1    Cu1   1.935060 S    
C1    C27   1.405993 S    
O7    Cu1   1.950063 S    
O2    Cu2   1.935059 S    
C35   N7    1.157577 T    
O4    Cu2   1.935465 S    
C14   N2    1.371394 A    
C3    N2    1.437282 S    
C14   C20   1.402435 A    
O1    C1    1.271677 A    
C24   C25   1.394723 A    
C16   N2    1.371392 A    
O8    Cu2   1.950066 S    
C4    C32   1.396134 A    
C36   N8    1.157598 T    
O6    C6    1.283250 A    
C16   O12   1.349642 S    
O5    C5    1.284253 A    
C15   O11   1.349604 S    
C7    C33   1.445786 S    
C13   O9    1.349606 S    
O4    C1    1.272054 A    
C16   C18   1.402436 A    
C14   O10   1.349641 S    
C15   C17   1.402317 A    
C27   C28   1.188745 T    
C13   C19   1.402317 A    
C20   C22   1.407943 A    
C8    C12   1.420597 A    
C7    C29   1.396162 A    
O2    C2    1.271677 A    
