data_mof_unit_61507.cif
_audit_creation_date              2012-12-10T17:08:43-0500
_audit_creation_method            fapswitch 2.2
_symmetry_space_group_name_H-M    P1
_symmetry_Int_Tables_number       1
_space_group_crystal_system       triclinic
_cell_length_a                    37.178342
_cell_length_b                    30.138655
_cell_length_c                    21.603777
_cell_angle_alpha                 89.999772
_cell_angle_beta                  54.410532
_cell_angle_gamma                 90.000029
_cell_volume                      19685.4379401

loop_
_atom_site_label
_atom_site_type_symbol
_atom_type_description
_atom_site_fract_x
_atom_site_fract_y
_atom_site_fract_z
_atom_type_partial_charge
C1    C     C_R   0.914305 0.499889 0.587777 0.872107
C2    C     C_R   0.085694 0.499890 0.412223 0.872119
C3    C     C_R   0.414305 0.999889 0.587779 0.872116
C4    C     C_R   0.585694 0.999890 0.412224 0.872107
C5    C     C_3   0.962222 0.468661 0.252767 0.112629
C6    C     C_3   0.037771 0.468654 0.747241 0.112614
C7    C     C_3   0.462223 0.968661 0.252765 0.112621
C8    C     C_3   0.537795 0.968681 0.747216 0.112661
C9    C     C_R   0.655795 0.462533 0.869559 0.181127
C10   C     C_R   0.344205 0.462536 0.130432 0.181132
C11   C     C_R   0.155793 0.962525 0.869536 0.181072
C12   C     C_R   0.844205 0.962550 0.130386 0.181104
C13   C     C_R   0.633567 0.499142 0.866182 -0.180104
C14   C     C_R   0.366433 0.499143 0.133818 -0.180113
C15   C     C_R   0.133566 0.999144 0.866183 -0.180080
C16   C     C_R   0.866432 0.999141 0.133818 -0.180143
C17   C     C_R   0.657058 0.534848 0.816765 0.275250
C18   C     C_R   0.342942 0.534844 0.183246 0.275255
C19   C     C_R   0.157057 0.034858 0.816790 0.275231
C20   C     C_R   0.842940 0.034827 0.183287 0.275257
C21   C     C_R   0.703577 0.534197 0.770198 0.052306
C22   C     C_R   0.296423 0.534192 0.229814 0.052303
C23   C     C_R   0.203576 0.034207 0.770225 0.052315
C24   C     C_R   0.796421 0.034174 0.229852 0.052290
C25   C     C_R   0.726283 0.497883 0.774621 -0.007465
C26   C     C_R   0.273717 0.497882 0.225382 -0.007464
C27   C     C_R   0.226282 0.997884 0.774624 -0.007453
C28   C     C_R   0.773716 0.997882 0.225368 -0.007447
C29   C     C_R   0.702341 0.462017 0.824055 -0.010213
C30   C     C_R   0.297658 0.462020 0.175937 -0.010216
C31   C     C_R   0.202340 0.962009 0.824034 -0.010219
C32   C     C_R   0.797659 0.962039 0.175877 -0.010247
C33   C     C_R   0.728008 0.569058 0.719269 -0.105613
C34   C     C_R   0.271992 0.569050 0.280753 -0.105613
C35   C     C_R   0.228007 0.069079 0.719320 -0.105611
C36   C     C_R   0.771990 0.069013 0.280838 -0.105622
C37   C     C_R   0.773914 0.568282 0.673745 -0.163923
C38   C     C_R   0.226086 0.568274 0.326277 -0.163918
C39   C     C_R   0.273913 0.068302 0.673795 -0.163937
C40   C     C_R   0.726084 0.068237 0.326357 -0.163950
C41   C     C_R   0.796574 0.533082 0.678694 0.129968
C42   C     C_R   0.203426 0.533077 0.321318 0.129968
C43   C     C_R   0.296573 0.033092 0.678721 0.129965
C44   C     C_R   0.703424 0.033060 0.321349 0.129980
C45   C     C_R   0.998547 0.500121 0.381450 0.885969
C46   C     C_R   0.001453 0.500121 0.618549 0.885970
C47   C     C_R   0.498547 0.000121 0.381450 0.885996
C48   C     C_R   0.501452 0.000121 0.618551 0.885948
C49   C     C_R   0.773078 0.497513 0.729337 0.002974
C50   C     C_R   0.226921 0.497512 0.270667 0.002974
C51   C     C_R   0.273077 0.997514 0.729340 0.002970
C52   C     C_R   0.726920 0.997513 0.270650 0.002960
C53   C     C_R   0.796271 0.461910 0.734772 -0.074612
C54   C     C_R   0.203728 0.461912 0.265226 -0.074613
C55   C     C_R   0.296270 0.961901 0.734753 -0.074610
C56   C     C_R   0.703727 0.961932 0.265157 -0.074608
C57   C     C_R   0.771485 0.424991 0.781303 0.410295
C58   C     C_R   0.228514 0.424995 0.218689 0.410301
C59   C     C_R   0.271483 0.924975 0.781258 0.410299
C60   C     C_R   0.728517 0.925037 0.218548 0.410318
C61   C     C_R   0.725481 0.425879 0.825600 -0.155240
C62   C     C_R   0.274519 0.425884 0.174386 -0.155241
C63   C     C_R   0.225479 0.925863 0.825555 -0.155351
C64   C     C_R   0.774521 0.925925 0.174257 -0.155390
C65   C     C_R   0.842533 0.532958 0.632639 -0.245734
C66   C     C_R   0.157467 0.532954 0.367371 -0.245738
C67   C     C_R   0.342532 0.032968 0.632664 -0.245728
C68   C     C_R   0.657466 0.032938 0.367402 -0.245844
C69   C     C_R   0.865830 0.499224 0.639023 -0.147826
C70   C     C_R   0.134170 0.499224 0.360980 -0.147825
C71   C     C_R   0.365829 0.999224 0.639026 -0.147838
C72   C     C_R   0.634169 0.999224 0.360974 -0.147814
C73   C     C_R   0.842995 0.465017 0.693213 0.399406
C74   C     C_R   0.157004 0.465018 0.306786 0.399416
C75   C     C_R   0.342994 0.965006 0.693195 0.399422
C76   C     C_R   0.657001 0.965037 0.306741 0.399428
C77   C     C_R   0.000000 0.585579 1.000000 0.857753
C78   C     C_R   0.500000 0.085581 0.000000 0.857964
C79   C     C_R   0.999942 0.499269 0.120065 0.926559
C80   C     C_R   0.000058 0.499270 0.879935 0.926549
C81   C     C_R   0.499942 0.999269 0.120064 0.926602
C82   C     C_R   0.500058 0.999266 0.879936 0.926627
C83   C     C_R   1.000000 0.414352 0.000000 0.850095
C84   C     C_R   0.500000 0.914352 1.000000 0.850107
C85   C     C_3   0.985289 0.547771 0.299748 0.093898
C86   C     C_3   0.014723 0.547767 0.700238 0.093885
C87   C     C_3   0.485288 0.047772 0.299748 0.093825
C88   C     C_3   0.514686 0.047777 0.700279 0.093846
C89   C     C_R   0.500000 0.414435 0.000000 0.829657
C90   C     C_R   1.000000 0.914432 0.000000 0.829797
C91   C     C_R   0.585377 0.499925 0.914505 0.902461
C92   C     C_R   0.414623 0.499926 0.085495 0.902448
C93   C     C_R   0.085377 0.999926 0.914505 0.902533
C94   C     C_R   0.914623 0.999926 0.085495 0.902444
C95   C     C_R   0.500000 0.585539 1.000000 0.842355
C96   C     C_R   0.000000 0.085539 1.000000 0.842321
C97   C     C_R   0.530296 0.343247 0.932812 -0.130657
C98   C     C_R   0.469704 0.343246 0.067189 -0.130667
C99   C     C_R   0.030084 0.843234 0.932686 -0.130573
C100  C     C_R   0.969915 0.843234 0.067315 -0.130653
C101  C     C_R   0.500000 0.366159 0.000000 -0.059344
C102  C     C_R   0.999999 0.866151 0.000000 -0.059380
C103  C     C_R   0.468673 0.296797 0.067900 0.049811
C104  C     C_R   0.531328 0.296797 0.932101 0.049810
C105  C     C_R   0.968884 0.796784 0.068041 0.049777
C106  C     C_R   0.031115 0.796785 0.931960 0.049763
C107  C     C_R   0.500000 0.273505 0.000001 -0.009112
C108  C     C_R   1.000000 0.773493 0.000000 -0.009004
C109  C     C_R   0.437183 0.272958 0.134479 0.267990
C110  C     C_R   0.562817 0.272959 0.865523 0.267993
C111  C     C_R   0.937599 0.772945 0.134773 0.267808
C112  C     C_R   0.062401 0.772946 0.865228 0.267823
C113  C     C_R   0.937430 0.726640 0.133517 -0.172458
C114  C     C_R   0.062570 0.726641 0.866483 -0.172460
C115  C     C_R   0.437026 0.226653 0.133216 -0.172628
C116  C     C_R   0.562975 0.226653 0.866786 -0.172631
C117  C     C_R   0.968340 0.703433 0.066897 0.054216
C118  C     C_R   0.031660 0.703434 0.933103 0.054217
C119  C     C_R   0.468143 0.203446 0.066743 0.054233
C120  C     C_R   0.531858 0.203446 0.933258 0.054231
C121  C     C_3   0.988773 0.548482 0.223717 0.485931
C122  C     C_3   0.011238 0.548480 0.776270 0.485935
C123  C     C_3   0.488773 0.048483 0.223716 0.485986
C124  C     C_3   0.511197 0.048487 0.776315 0.485980
C125  C     C_R   1.000000 0.726817 0.000000 0.064810
C126  C     C_R   0.500000 0.226829 0.000001 0.064877
C127  C     C_R   0.968146 0.657080 0.066130 -0.132111
C128  C     C_R   0.031854 0.657080 0.933869 -0.132109
C129  C     C_R   0.467959 0.157092 0.065975 -0.131993
C130  C     C_R   0.532041 0.157093 0.934027 -0.131999
C131  C     C_R   0.000000 0.633961 1.000000 -0.049684
C132  C     C_R   0.500000 0.133969 0.000000 -0.049573
C133  C     C_R   0.526263 0.657044 0.016325 -0.175341
C134  C     C_R   0.473737 0.657044 0.983674 -0.175359
C135  C     C_R   0.026262 0.157044 0.016328 -0.175297
C136  C     C_R   0.973739 0.157044 0.983670 -0.175415
C137  C     C_R   0.500000 0.633936 1.000000 -0.031491
C138  C     C_R   0.000000 0.133936 0.999999 -0.031489
C139  C     C_R   0.473026 0.703405 0.984698 0.098058
C140  C     C_R   0.526974 0.703405 0.015301 0.098053
C141  C     C_R   0.973028 0.203405 0.984694 0.098067
C142  C     C_R   0.026972 0.203405 0.015305 0.098046
C143  C     C_R   0.500000 0.726703 1.000000 0.068980
C144  C     C_R   0.000000 0.226703 0.999999 0.068982
C145  C     C_R   0.445783 0.726863 0.970884 -0.164027
C146  C     C_R   0.554217 0.726863 0.029115 -0.164022
C147  C     C_R   0.945786 0.226864 0.970876 -0.164035
C148  C     C_R   0.054214 0.226863 0.029123 -0.164017
C149  C     C_R   0.945110 0.273189 0.972419 -0.144938
C150  C     C_R   0.054890 0.273189 0.027581 -0.144939
C151  C     C_R   0.445106 0.773189 0.972427 -0.144941
C152  C     C_R   0.554894 0.773189 0.027573 -0.144935
C153  C     C_R   0.972095 0.296639 0.986820 0.092023
C154  C     C_R   0.027905 0.296639 0.013180 0.092022
C155  C     C_R   0.472093 0.796639 0.986824 0.092022
C156  C     C_R   0.527907 0.796639 0.013176 0.092020
C157  C     C_3   0.045272 0.487737 0.242346 0.114109
C158  C     C_3   0.954725 0.487748 0.757656 0.114091
C159  C     C_3   0.545271 0.987739 0.242346 0.114143
C160  C     C_3   0.454734 0.987711 0.757649 0.114123
C161  C     C_R   0.000000 0.273339 1.000000 0.065545
C162  C     C_R   0.500000 0.773339 1.000000 0.065546
C163  C     C_R   0.971788 0.342993 0.988130 -0.160803
C164  C     C_R   0.028212 0.342993 0.011871 -0.160808
C165  C     C_R   0.471786 0.842993 0.988134 -0.160813
C166  C     C_R   0.528214 0.842993 0.011866 -0.160797
C167  C     C_R   1.000000 0.366044 0.000000 -0.049022
C168  C     C_R   0.500000 0.866044 0.000000 -0.049027
C169  C     C_3   0.965252 0.465768 0.320857 -0.448900
C170  C     C_3   0.034739 0.465759 0.679153 -0.448882
C171  C     C_3   0.465252 0.965769 0.320856 -0.448903
C172  C     C_3   0.534764 0.965785 0.679126 -0.448945
C173  C     C_3   0.998424 0.500815 0.312628 -0.213559
C174  C     C_3   0.001576 0.500815 0.687372 -0.213553
C175  C     C_3   0.498423 0.000816 0.312628 -0.213568
C176  C     C_3   0.501575 0.000815 0.687374 -0.213523
C177  C     C_3   0.999451 0.499983 0.189605 -0.236620
C178  C     C_3   0.000549 0.499984 0.810395 -0.236616
C179  C     C_3   0.499452 0.999984 0.189604 -0.236710
C180  C     C_3   0.500547 0.999981 0.810397 -0.236690
C181  C     C_3   0.045782 0.485789 0.170328 0.172424
C182  C     C_3   0.954215 0.485800 0.829674 0.172437
C183  C     C_3   0.545782 0.985792 0.170328 0.172428
C184  C     C_3   0.454225 0.985761 0.829666 0.172402
Cu1   Cu    Cu3+1 0.000000 0.544430 0.500000 1.113126
Cu2   Cu    Cu3+1 0.500000 0.044430 0.500000 1.113084
Cu3   Cu    Cu3+1 0.000000 0.455520 0.500000 1.115978
Cu4   Cu    Cu3+1 0.500000 0.955520 0.500000 1.115952
Cu5   Cu    Cu3+1 0.955510 0.499950 0.044460 1.127304
Cu6   Cu    Cu3+1 0.044490 0.499950 0.955540 1.127312
Cu7   Cu    Cu3+1 0.455510 0.999950 0.044460 1.127240
Cu8   Cu    Cu3+1 0.544490 0.999950 0.955540 1.127241
Cu9   Cu    Cu3+1 0.499930 0.499950 0.937580 1.095648
Cu10  Cu    Cu3+1 0.500070 0.499950 0.062420 1.095652
Cu11  Cu    Cu3+1 0.999930 0.999950 0.937580 1.095687
Cu12  Cu    Cu3+1 0.000070 0.999950 0.062420 1.095705
H1    H     H_    0.008645 0.572776 0.295338 0.224355
H2    H     H_    0.991373 0.572779 0.704640 0.224363
H3    H     H_    0.508644 0.072777 0.295338 0.224355
H4    H     H_    0.491320 0.072772 0.704696 0.224347
H5    H     H_    0.053779 0.454535 0.252988 0.230007
H6    H     H_    0.946210 0.454548 0.747022 0.230003
H7    H     H_    0.553779 0.954537 0.252988 0.230032
H8    H     H_    0.446243 0.954505 0.746989 0.229992
H9    H     H_    0.712061 0.597182 0.713616 0.212219
H10   H     H_    0.287939 0.597170 0.286415 0.212221
H11   H     H_    0.212060 0.097210 0.713686 0.212217
H12   H     H_    0.787935 0.097118 0.286540 0.212223
H13   H     H_    0.791796 0.595561 0.634770 0.173266
H14   H     H_    0.208204 0.595549 0.365260 0.173272
H15   H     H_    0.291795 0.095589 0.634839 0.173248
H16   H     H_    0.708201 0.095499 0.365377 0.173273
H17   H     H_    0.860373 0.559453 0.591675 0.198828
H18   H     H_    0.139626 0.559446 0.408340 0.198835
H19   H     H_    0.360372 0.059470 0.591718 0.198819
H20   H     H_    0.639626 0.059416 0.408404 0.198816
H21   H     H_    0.708134 0.397123 0.860385 0.230811
H22   H     H_    0.291865 0.397131 0.139595 0.230809
H23   H     H_    0.208132 0.897102 0.860322 0.230778
H24   H     H_    0.791870 0.897190 0.139409 0.230778
H25   H     H_    0.553445 0.362148 0.881977 0.195051
H26   H     H_    0.446555 0.362147 0.118024 0.195046
H27   H     H_    0.053079 0.862131 0.881750 0.195079
H28   H     H_    0.946920 0.862130 0.118251 0.195045
H29   H     H_    0.913127 0.708731 0.184998 0.200233
H30   H     H_    0.086873 0.708733 0.815002 0.200233
H31   H     H_    0.412568 0.208744 0.184576 0.200062
H32   H     H_    0.587433 0.208745 0.815426 0.200061
H33   H     H_    0.943788 0.638922 0.117300 0.195256
H34   H     H_    0.056212 0.638923 0.882700 0.195253
H35   H     H_    0.443454 0.138937 0.117033 0.194969
H36   H     H_    0.556546 0.138938 0.882969 0.194976
H37   H     H_    0.546755 0.638863 0.028285 0.160984
H38   H     H_    0.453245 0.638863 0.971714 0.160979
H39   H     H_    0.046752 0.138863 0.028291 0.160995
H40   H     H_    0.953249 0.138863 0.971707 0.160963
H41   H     H_    0.424844 0.709374 0.959269 0.169025
H42   H     H_    0.575156 0.709374 0.040731 0.169028
H43   H     H_    0.924849 0.209374 0.959257 0.169023
H44   H     H_    0.075151 0.209374 0.040741 0.169029
H45   H     H_    0.923658 0.290685 0.961983 0.183168
H46   H     H_    0.076342 0.290685 0.038017 0.183169
H47   H     H_    0.423653 0.790685 0.961994 0.183171
H48   H     H_    0.576347 0.790685 0.038006 0.183173
H49   H     H_    0.950345 0.361223 0.978397 0.195049
H50   H     H_    0.049655 0.361222 0.021603 0.195051
H51   H     H_    0.450342 0.861222 0.978404 0.195057
H52   H     H_    0.549658 0.861222 0.021596 0.195051
H53   H     H_    0.071602 0.508746 0.126914 0.228913
H54   H     H_    0.928399 0.508761 0.873084 0.228908
H55   H     H_    0.571602 0.008749 0.126916 0.228900
H56   H     H_    0.428391 0.008702 0.873094 0.228916
H57   H     H_    0.976251 0.431983 0.323758 0.248297
H58   H     H_    0.023730 0.431977 0.676265 0.248302
H59   H     H_    0.476250 0.931984 0.323761 0.248296
H60   H     H_    0.523783 0.931995 0.676209 0.248286
H61   H     H_    0.931896 0.470699 0.374875 0.210472
H62   H     H_    0.068096 0.470681 0.625132 0.210478
H63   H     H_    0.431895 0.970701 0.374874 0.210469
H64   H     H_    0.568118 0.970733 0.625109 0.210449
H65   H     H_    0.929437 0.483158 0.274098 0.210657
H66   H     H_    0.070559 0.483144 0.725904 0.210660
H67   H     H_    0.429438 0.983156 0.274094 0.210632
H68   H     H_    0.570571 0.983197 0.725892 0.210626
O1    O     O_R   0.935120 0.537520 0.564840 -0.569279
O2    O     O_R   0.064880 0.537520 0.435160 -0.569282
O3    O     O_R   0.435120 0.037520 0.564840 -0.569311
O4    O     O_R   0.564880 0.037520 0.435160 -0.569265
O5    O     O_R   0.564810 0.499970 0.882380 -0.549126
O6    O     O_R   0.435190 0.499970 0.117620 -0.549118
O7    O     O_R   0.064810 0.999970 0.882380 -0.549126
O8    O     O_R   0.935190 0.999970 0.117620 -0.549074
O9    O     O_R   0.564880 0.499960 0.987830 -0.563150
O10   O     O_R   0.435120 0.499960 0.012170 -0.563147
O11   O     O_R   0.064880 0.999960 0.987830 -0.563151
O12   O     O_R   0.935120 0.999960 0.012170 -0.563138
O13   O     O_R   0.499950 0.564810 0.947310 -0.572287
O14   O     O_R   0.500050 0.564810 0.052690 -0.572283
O15   O     O_R   0.999950 0.064810 0.947310 -0.572295
O16   O     O_R   0.000050 0.064810 0.052690 -0.572273
O17   O     O_R   0.935080 0.462440 0.564870 -0.549933
O18   O     O_R   0.064920 0.462440 0.435130 -0.549933
O19   O     O_R   0.435080 0.962440 0.564870 -0.549918
O20   O     O_R   0.564920 0.962440 0.435130 -0.549956
O21   O     O_R   0.999990 0.537520 0.408860 -0.551824
O22   O     O_R   0.000010 0.537520 0.591140 -0.551823
O23   O     O_R   0.499990 0.037520 0.408860 -0.551822
O24   O     O_R   0.500010 0.037520 0.591140 -0.551837
O25   O     O_R   0.999950 0.462430 0.408890 -0.583285
O26   O     O_R   0.000050 0.462430 0.591110 -0.583287
O27   O     O_R   0.499950 0.962430 0.408890 -0.583277
O28   O     O_R   0.500050 0.962430 0.591110 -0.583291
O29   O     O_R   0.962420 0.564820 0.037570 -0.565661
O30   O     O_R   0.037580 0.564820 0.962430 -0.565651
O31   O     O_R   0.462420 0.064820 0.037570 -0.565790
O32   O     O_R   0.537580 0.064820 0.962430 -0.565806
O33   O     O_R   0.962440 0.499950 0.128690 -0.552351
O34   O     O_R   0.037560 0.499950 0.871310 -0.552345
O35   O     O_R   0.462440 0.999950 0.128690 -0.552356
O36   O     O_R   0.537560 0.999950 0.871310 -0.552360
O37   O     O_R   0.037530 0.500000 0.053640 -0.557419
O38   O     O_R   0.962470 0.500000 0.946360 -0.557418
O39   O     O_R   0.537530 0.000000 0.053640 -0.557422
O40   O     O_R   0.462470 1.000000 0.946360 -0.557437
O41   O     O_R   0.962440 0.435080 0.037530 -0.567391
O42   O     O_R   0.037560 0.435080 0.962470 -0.567394
O43   O     O_R   0.462440 0.935080 0.037530 -0.567402
O44   O     O_R   0.537560 0.935080 0.962470 -0.567382
O45   O     O_R   0.499930 0.435080 0.947280 -0.566536
O46   O     O_R   0.500070 0.435080 0.052720 -0.566540
O47   O     O_R   0.999930 0.935080 0.947280 -0.566619
O48   O     O_R   0.000070 0.935080 0.052720 -0.566642
Br1   Br    Br    0.959510 0.409427 0.218480 -0.414496
Br2   Br    Br    0.040471 0.409420 0.781543 -0.414519
Br3   Br    Br    0.459515 0.909426 0.218476 -0.414504
Br4   Br    Br    0.540540 0.909448 0.781468 -0.414450
Cl1   Cl    Cl    0.064474 0.432249 0.125914 -0.515296
Cl2   Cl    Cl    0.935511 0.432263 0.874098 -0.515271
Cl3   Cl    Cl    0.564478 0.932253 0.125909 -0.515245
Cl4   Cl    Cl    0.435563 0.932211 0.874049 -0.515396
Br5   Br    Br    0.621676 0.412725 0.934721 -0.462508
Br6   Br    Br    0.378323 0.412733 0.065259 -0.462491
Br7   Br    Br    0.121673 0.912707 0.934662 -0.462486
Br8   Br    Br    0.878325 0.912757 0.065181 -0.462377
Cl5   Cl    Cl    0.627541 0.580964 0.816141 -0.603777
Cl6   Cl    Cl    0.372459 0.580956 0.183882 -0.603758
Cl7   Cl    Cl    0.127539 0.080982 0.816194 -0.603811
Cl8   Cl    Cl    0.872455 0.080922 0.183979 -0.603682
Cl9   Cl    Cl    0.873096 0.432592 0.717179 -0.445246
Cl10  Cl    Cl    0.126903 0.432596 0.282818 -0.445227
Cl11  Cl    Cl    0.373093 0.932565 0.717146 -0.445167
Cl12  Cl    Cl    0.626884 0.932630 0.282789 -0.445247
Cl13  Cl    Cl    0.794390 0.373582 0.780905 -0.433414
Cl14  Cl    Cl    0.205608 0.373586 0.219091 -0.433415
Cl15  Cl    Cl    0.294389 0.873558 0.780826 -0.433513
Cl16  Cl    Cl    0.705624 0.873652 0.218803 -0.433461
Br9   Br    Br    0.927453 0.566757 0.390931 -0.412762
Br10  Br    Br    0.072564 0.566738 0.609050 -0.412802
Br11  Br    Br    0.427452 0.066758 0.390929 -0.412748
Br12  Br    Br    0.572517 0.066791 0.609113 -0.412788
Br13  Br    Br    0.393078 0.301487 0.228884 -0.398348
Br14  Br    Br    0.606923 0.301488 0.771117 -0.398345
Br15  Br    Br    0.893796 0.801471 0.229395 -0.398440
Br16  Br    Br    0.106205 0.801473 0.770606 -0.398381
Cl17  Cl    Cl    0.939629 0.570816 0.236856 -0.510794
Cl18  Cl    Cl    0.060386 0.570806 0.763126 -0.510764
Cl19  Cl    Cl    0.439630 0.070818 0.236852 -0.510407
Cl20  Cl    Cl    0.560323 0.070852 0.763204 -0.510488
Cl21  Cl    Cl    0.031455 0.586852 0.158113 -0.537393
Cl22  Cl    Cl    0.968564 0.586860 0.841863 -0.537413
Cl23  Cl    Cl    0.531454 0.086853 0.158114 -0.537240
Cl24  Cl    Cl    0.468490 0.086831 0.841937 -0.537164
Cl25  Cl    Cl    0.087502 0.524703 0.228088 -0.521242
Cl26  Cl    Cl    0.912504 0.524723 0.771904 -0.521246
Cl27  Cl    Cl    0.587500 0.024707 0.228089 -0.521222
Cl28  Cl    Cl    0.412485 0.024656 0.771926 -0.521283

loop_
_geom_bond_atom_site_label_1
_geom_bond_atom_site_label_2
_ccdc_geom_bond_type
Cu2   O3    S    
C133  H37   S    
C133  C137  A    
C95   O13   A    
C55   C59   A    
C87   Br11  S    
C154  C161  A    
C165  H51   S    
C47   O27   A    
C116  H32   S    
C61   H21   S    
C152  H48   S    
C81   O35   A    
C35   C39   A    
C82   O36   A    
C21   C33   A    
C83   O41   A    
C127  H33   S    
C122  Cl22  S    
C63   H23   S    
C99   H27   S    
C9    C13   A    
C91   O9    A    
C74   Cl10  S    
C77   O30   A    
C54   C74   A    
C11   C15   A    
C158  C174  S    
C135  C142  A    
Cu5   O38   S    
C152  C156  A    
C27   C51   A    
C70   C74   A    
C46   C174  S    
C85   C121  S    
C151  C155  A    
C8    H68   S    
C13   C91   S    
C5    H65   S    
C41   C49   A    
Cu4   O28   S    
C90   O48   A    
Cu5   O29   S    
C155  C162  A    
C25   C29   A    
Cu6   O34   S    
C58   Cl14  S    
Cu11  O15   S    
Cu7   Cu8   S    
C46   O22   A    
C28   C32   A    
C141  C144  A    
C64   H24   S    
C20   Cl8   S    
C181  Cl1   S    
C17   C21   A    
C153  C161  A    
C86   C174  S    
C183  Cl3   S    
C18   Cl6   S    
C19   C23   A    
C115  H31   S    
C136  C141  A    
C84   C168  S    
C45   C173  S    
C8    C180  S    
C113  H29   S    
C156  C166  A    
C68   C72   A    
C111  C113  A    
C178  C182  S    
Cu12  O11   S    
C86   H2    S    
C136  C138  A    
C142  C144  A    
C163  H49   S    
C110  C116  A    
C170  C174  S    
C172  H60   S    
C89   C101  S    
C148  H44   S    
C16   C94   S    
C84   O43   A    
C41   C65   A    
C57   C61   A    
C59   C63   A    
C60   C64   A    
C166  H52   S    
C26   C50   A    
C1    O17   A    
C78   O31   A    
C66   C70   A    
C155  C165  A    
C49   C53   A    
C11   Br7   S    
C51   C55   A    
C127  C131  A    
C141  C147  A    
C151  H47   S    
Cu11  Cu12  S    
C119  C126  A    
C57   Cl13  S    
Cu9   Cu10  S    
C45   O25   A    
C103  C107  A    
C121  Cl17  S    
C104  C107  A    
C180  C184  S    
C37   H13   S    
C104  C110  A    
Cu4   O20   S    
Cu9   O5    S    
C158  Cl26  S    
C140  C143  A    
C88   C124  S    
Cu11  O7    S    
C112  C114  A    
Cu3   O17   S    
Cu1   O1    S    
C33   H9    S    
C24   C36   A    
C153  C163  A    
Cu3   O25   S    
C154  C164  A    
C148  C150  A    
C112  Br16  S    
C88   Br12  S    
Cu1   Cu3   S    
C2    O2    A    
C36   H12   S    
C78   C132  S    
C90   C102  S    
C149  C153  A    
C67   H19   S    
C139  C143  A    
C146  H42   S    
C111  Br15  S    
C79   C177  S    
C7    H67   S    
C5    Br1   S    
C55   C75   A    
C44   C52   A    
Cu7   O31   S    
C166  C168  A    
C73   Cl9   S    
C81   O39   A    
C82   O40   A    
C109  Br13  S    
C22   C34   A    
C29   C61   A    
C95   C137  S    
C7    C179  S    
C12   C16   A    
C32   C64   A    
C123  C179  S    
C10   C14   A    
C134  C139  A    
C121  C177  S    
Cu9   O10   S    
Cu6   O37   S    
C83   C167  S    
C116  C120  A    
C85   Br9   S    
Cu1   O22   S    
C184  Cl4   S    
C92   O6    A    
C93   O7    A    
C130  H36   S    
C94   O8    A    
C134  H38   S    
C6    H66   S    
C145  C151  A    
C38   H14   S    
C42   C50   A    
C113  C117  A    
Cu6   O30   S    
Cu10  O14   S    
C115  C119  A    
C157  H5    S    
C128  C131  A    
C6    C170  S    
Cu2   O4    S    
C99   C106  A    
C21   C25   A    
Cu12  O48   S    
C182  Cl2   S    
C18   C22   A    
C24   C28   A    
C124  Cl20  S    
C26   C30   A    
C147  H43   S    
C87   C175  S    
C88   C176  S    
C13   C17   A    
C171  H63   S    
C182  H54   S    
Cu3   O26   S    
C87   C123  S    
C9    C29   A    
C106  C108  A    
C177  C181  S    
C98   H26   S    
C119  C129  A    
C37   C41   A    
C77   O29   A    
C8    C172  S    
C40   C44   A    
C43   C67   A    
C157  C173  S    
C169  C173  S    
C117  C125  A    
C8    Br4   S    
C172  C176  S    
C48   C176  S    
C58   C62   A    
C76   Cl12  S    
C7    C171  S    
C144  C161  A    
C87   H3    S    
C89   O46   A    
C79   O33   A    
C134  C137  A    
C80   O38   A    
Cu7   O40   S    
C2    O18   A    
C15   C19   A    
C50   C54   A    
C147  C149  A    
C93   O11   A    
Cu2   O23   S    
C94   O12   A    
C120  C126  A    
C98   C103  A    
C45   O21   A    
C121  Cl21  S    
C123  Cl23  S    
C86   C122  S    
C12   Br8   S    
C69   C73   A    
Cu10  O6    S    
C118  C125  A    
C129  C132  A    
C65   H17   S    
C105  C111  A    
Cu8   O32   S    
C95   O14   A    
C6    C178  S    
Cu9   O13   S    
C157  C181  S    
C59   Cl15  S    
C9    Br5   S    
C3    O3    A    
C160  Cl28  S    
C81   C179  S    
C140  C146  A    
C84   O44   A    
C53   C57   A    
C83   O42   A    
C27   C31   A    
C1    C69   S    
C56   C60   A    
C96   O16   A    
C66   H18   S    
C3    C71   S    
Cu5   O41   S    
C48   O28   A    
C159  Cl27  S    
C114  H30   S    
C169  H57   S    
C6    Br2   S    
C19   Cl7   S    
Cu9   O45   S    
C117  C127  A    
Cu11  O47   S    
C85   H1    S    
C23   C35   A    
C30   C62   A    
Cu8   O44   S    
C135  H39   S    
Cu2   Cu4   S    
C62   H22   S    
C4    C72   S    
Cu4   O27   S    
C90   O47   A    
C33   C37   A    
C122  C178  S    
Cu10  O9    S    
C96   O15   A    
C164  C167  A    
C160  H8    S    
Cu8   O36   S    
C4    O4    A    
C98   C101  A    
C40   H16   S    
C103  C109  A    
C88   H4    S    
C47   O23   A    
C96   C138  S    
C48   O24   A    
C43   C51   A    
C65   C69   A    
C7    Br3   S    
Cu12  O8    S    
C67   C71   A    
C10   Br6   S    
Cu5   Cu6   S    
C68   H20   S    
C25   C49   A    
C97   C104  A    
C150  H46   S    
C99   C102  A    
C133  C140  A    
C22   C26   A    
C171  H59   S    
C5    C169  S    
Cu7   O35   S    
Cu2   O24   S    
C122  Cl18  S    
C2    C70   S    
C124  Cl24  S    
C80   C178  S    
C135  C138  A    
C56   C76   A    
C14   C18   A    
C130  C132  A    
C157  Cl25  S    
C72   C76   A    
C106  C112  A    
C34   H10   S    
Cu8   O39   S    
C17   Cl5   S    
C100  C105  A    
C120  C130  A    
C184  H56   S    
C38   C42   A    
C77   C131  S    
Cu5   O33   S    
C100  H28   S    
C136  H40   S    
Cu7   O43   S    
C46   O26   A    
C10   C30   A    
C60   Cl16  S    
Cu1   O21   S    
C4    O20   A    
C78   O32   A    
C20   C24   A    
C145  H41   S    
C85   C173  S    
C23   C27   A    
C108  C125  A    
C172  H64   S    
C164  H50   S    
C79   O37   A    
C143  C162  A    
C16   C20   A    
C3    O19   A    
Cu4   O19   S    
C11   C31   A    
C159  C175  S    
C12   C32   A    
C169  H61   S    
C160  C176  S    
C118  C128  A    
C110  Br14  S    
Cu3   O18   S    
Cu1   O2    S    
C14   C92   S    
C179  C183  S    
C105  C108  A    
C170  H58   S    
C142  C148  A    
C36   C40   A    
C170  H62   S    
C123  Cl19  S    
C39   C43   A    
C171  C175  S    
C86   Br10  S    
C163  C167  A    
Cu12  O16   S    
C159  H7    S    
C100  C102  A    
C39   H15   S    
C158  C182  S    
C5    C177  S    
C114  C118  A    
C146  C152  A    
C183  H55   S    
C165  C168  A    
C158  H6    S    
C44   C68   A    
C15   C93   S    
C92   O10   A    
C54   C58   A    
C35   H11   S    
C75   Cl11  S    
C139  C145  A    
C128  H34   S    
C34   C38   A    
C53   C73   A    
C107  C126  A    
C91   O5    A    
C89   O45   A    
Cu6   O42   S    
C80   O34   A    
C31   C63   A    
C129  H35   S    
Cu10  O46   S    
C181  H53   S    
C71   C75   A    
C28   C52   A    
C97   H25   S    
C47   C175  S    
C124  C180  S    
C109  C115  A    
C156  C162  A    
C1    O1    A    
C149  H45   S    
C150  C154  A    
C82   C180  S    
Cu11  O12   S    
C42   C66   A    
C159  C183  S    
C160  C184  S    
C97   C101  A    
C52   C56   A    
