data_mof_unit_46721.cif
_audit_creation_date              2012-12-11T15:07:42-0500
_audit_creation_method            fapswitch 2.2
_symmetry_space_group_name_H-M    P1
_symmetry_Int_Tables_number       1
_space_group_crystal_system       triclinic
_cell_length_a                    21.688172
_cell_length_b                    7.19656
_cell_length_c                    18.743041
_cell_angle_alpha                 89.994206
_cell_angle_beta                  95.803818
_cell_angle_gamma                 89.994926
_cell_volume                      2910.42236755

loop_
_atom_site_label
_atom_site_type_symbol
_atom_type_description
_atom_site_fract_x
_atom_site_fract_y
_atom_site_fract_z
_atom_type_partial_charge
O1    O     O_R   0.449650 0.506500 0.414480 -0.544451
O2    O     O_R   0.550350 0.006500 0.585520 -0.544536
O3    O     O_R   0.432010 0.173150 0.560250 -0.532095
O4    O     O_R   0.567990 0.673150 0.439750 -0.532062
C1    C     C_R   0.416262 0.344743 0.581412 0.792726
C2    C     C_R   0.583736 0.844735 0.418574 0.791933
O5    O     O_R   0.442320 0.176650 0.413480 -0.512028
O6    O     O_R   0.557680 0.676650 0.586520 -0.512124
O7    O     O_R   0.560730 0.008380 0.437700 -0.509784
O8    O     O_R   0.439270 0.508380 0.562300 -0.509792
C3    C     C_R   0.426775 0.344803 0.388830 0.825548
C4    C     C_R   0.573218 0.844784 0.611177 0.825442
O9    O     O_3   0.538840 0.339860 0.508120 -0.361593
O10   O     O_3   0.461160 0.839860 0.491880 -0.361510
V1    V     V_3+5 0.492800 0.064220 0.498490 1.653093
V2    V     V_3+5 0.507200 0.564220 0.501510 1.652903
C5    C     C_R   0.878832 0.935814 0.688958 0.449582
C6    C     C_R   0.121134 0.435050 0.311053 0.449292
H1    H     H_    0.799957 0.857452 0.574095 0.223101
H2    H     H_    0.200019 0.356243 0.425876 0.223160
C7    C     C_R   0.888898 0.941372 0.819057 -0.158000
C8    C     C_R   0.111089 0.441256 0.180954 -0.157004
C9    C     C_R   0.588670 0.839814 0.743762 0.345700
C10   C     C_R   0.411339 0.340227 0.256244 0.345554
C11   C     C_R   0.624019 0.868039 0.808834 -0.114438
C12   C     C_R   0.375990 0.368669 0.191183 -0.114146
C13   C     C_R   0.687360 0.899644 0.811692 -0.183443
C14   C     C_R   0.312640 0.400138 0.188336 -0.181917
C15   C     C_R   0.718738 0.892581 0.749273 0.071953
C16   C     C_R   0.281255 0.392653 0.250744 0.072005
C17   C     C_R   0.682572 0.861907 0.681547 -0.057244
C18   C     C_R   0.317422 0.361735 0.318455 -0.057460
C19   C     C_R   0.785137 0.911057 0.752630 0.039252
C20   C     C_R   0.214850 0.410937 0.247386 0.039585
C21   C     C_R   0.813938 0.910514 0.687869 -0.100273
C22   C     C_R   0.186039 0.409948 0.312140 -0.100677
C23   C     C_R   0.778200 0.873445 0.623196 -0.082399
C24   C     C_R   0.221780 0.372607 0.376794 -0.082063
C25   C     C_R   0.715043 0.838050 0.620301 0.357067
C26   C     C_R   0.284952 0.337388 0.379676 0.357510
C27   C     C_R   0.824279 0.924588 0.818165 -0.196915
C28   C     C_R   0.175714 0.424683 0.181851 -0.196058
C29   C     C_R   0.916015 0.950977 0.754235 0.129764
C30   C     C_R   0.083955 0.450422 0.245777 0.130881
C31   C     C_R   0.616005 0.848817 0.678912 -0.154708
C32   C     C_R   0.383994 0.348886 0.321093 -0.154701
H3    H     H_    0.806429 0.917904 0.869685 0.155570
H4    H     H_    0.193575 0.418288 0.130331 0.152715
H5    H     H_    0.710568 0.926031 0.864218 0.152053
H6    H     H_    0.289432 0.426741 0.135824 0.150898
H7    H     H_    0.602083 0.865481 0.858242 0.170569
H8    H     H_    0.397933 0.366395 0.141778 0.170235
C33   C     C_R   0.634999 0.725344 0.311924 0.135253
C34   C     C_R   0.365420 0.226561 0.688537 0.138096
C35   C     C_R   0.633685 0.855394 0.368690 -0.161428
C36   C     C_R   0.366346 0.355468 0.631324 -0.167097
C37   C     C_R   0.678919 0.998105 0.376082 0.356137
C38   C     C_R   0.320864 0.497395 0.623565 0.355031
C39   C     C_R   0.723388 0.014047 0.326094 0.025978
C40   C     C_R   0.276321 0.513334 0.673443 0.027134
C41   C     C_R   0.725337 0.880843 0.270437 -0.083667
C42   C     C_R   0.274677 0.381094 0.729492 -0.082621
C43   C     C_R   0.682398 0.732307 0.264610 0.059756
C44   C     C_R   0.318091 0.233639 0.736008 0.086650
C45   C     C_R   0.766448 0.161263 0.330750 -0.090240
C46   C     C_R   0.232876 0.659613 0.668297 -0.084772
C47   C     C_R   0.810470 0.177204 0.282159 -0.158021
C48   C     C_R   0.188652 0.675304 0.716673 -0.166502
C49   C     C_R   0.813181 0.046857 0.227403 0.133947
C50   C     C_R   0.186232 0.545909 0.771812 0.108034
C51   C     C_R   0.770607 0.897225 0.220659 0.009395
C52   C     C_R   0.229267 0.397550 0.779029 -0.022236
C53   C     C_R   0.773513 0.765544 0.164480 -0.033808
C54   C     C_R   0.226806 0.267559 0.835676 0.000189
C55   C     C_R   0.733791 0.607578 0.163504 0.127192
C56   C     C_R   0.267234 0.112087 0.838336 0.140986
C57   C     C_R   0.688624 0.592826 0.212184 0.223677
C58   C     C_R   0.312573 0.095785 0.789404 0.155066
C59   C     C_R   0.859083 0.063394 0.180504 -0.262596
C60   C     C_R   0.140468 0.562738 0.818953 -0.243003
C61   C     C_R   0.862377 0.937406 0.124435 -0.129441
C62   C     C_R   0.137528 0.437534 0.875422 -0.163688
C63   C     C_R   0.817287 0.795427 0.113311 0.336411
C64   C     C_R   0.182820 0.296151 0.886608 0.380859
H9    H     H_    0.766524 0.267375 0.371566 0.201585
H10   H     H_    0.232592 0.765021 0.627188 0.201718
H11   H     H_    0.842716 0.292666 0.287560 0.150641
H12   H     H_    0.156113 0.789982 0.710897 0.155450
H13   H     H_    0.892972 0.174310 0.188079 0.138425
H14   H     H_    0.106379 0.673065 0.811202 0.146332
O11   O     O_R   0.060820 0.290050 0.937800 -0.518942
O12   O     O_R   0.939180 0.790050 0.062200 -0.518733
O13   O     O_R   0.057690 0.616620 0.086540 -0.542130
O14   O     O_R   0.942310 0.116620 0.913460 -0.542511
C65   C     C_R   0.071547 0.448713 0.112120 0.718388
C66   C     C_R   0.928446 0.948736 0.887886 0.722506
O15   O     O_R   0.068010 0.619890 0.939770 -0.541470
O16   O     O_R   0.931990 0.119890 0.060230 -0.546264
O17   O     O_R   0.949640 0.787940 0.914460 -0.528441
O18   O     O_R   0.050360 0.287940 0.085540 -0.529438
C67   C     C_R   0.085463 0.450785 0.921010 0.753541
C68   C     C_R   0.914534 0.950786 0.078976 0.753463
O19   O     O_3   0.961210 0.453080 0.991940 -0.361982
O20   O     O_3   0.038790 0.953080 0.008060 -0.359604
V3    V     V_3+5 0.007200 0.728820 0.001500 1.536340
V4    V     V_3+5 0.992800 0.228820 0.998500 1.528415
N1    N     N_3   0.981774 0.973048 0.753848 -0.580131
H15   H     H_    0.995129 0.096168 0.780721 0.230317
H16   H     H_    0.003888 0.861935 0.781800 0.216151
N2    N     N_3   0.018184 0.472232 0.246161 -0.581361
H17   H     H_    0.996122 0.361121 0.218158 0.215415
H18   H     H_    0.004776 0.595404 0.219334 0.229108
Cl1   Cl    Cl    0.681797 0.153669 0.450026 -0.583018
Cl2   Cl    Cl    0.317827 0.652021 0.549308 -0.582382
Cl3   Cl    Cl    0.811601 0.681911 0.028804 -0.704194
Cl4   Cl    Cl    0.187992 0.177297 0.970157 -0.632864
N3    N     N_3   0.740726 0.449813 0.118162 -0.661819
H19   H     H_    0.721907 0.479131 0.065902 0.299191
H20   H     H_    0.787240 0.409774 0.120923 0.278317
N4    N     N_3   0.260328 0.963744 0.888137 -0.579103
H21   H     H_    0.249380 0.840908 0.860012 0.232348
H22   H     H_    0.301825 0.946319 0.920946 0.252130
N5    N     N_3   0.650244 0.429639 0.209182 -0.559540
H23   H     H_    0.678446 0.312281 0.217473 0.255276
H24   H     H_    0.626031 0.420860 0.158137 0.273775
N6    N     N_3   0.351666 0.934073 0.792725 -0.574195
H25   H     H_    0.324421 0.814925 0.784202 0.232509
H26   H     H_    0.376917 0.926966 0.843163 0.258788
Cl5   Cl    Cl    0.915670 0.946754 0.608908 -0.512127
Cl6   Cl    Cl    0.084278 0.445444 0.391101 -0.512124
Cl7   Cl    Cl    0.509964 0.782681 0.746109 -0.667898
Cl8   Cl    Cl    0.490054 0.283214 0.253878 -0.667131
Cl9   Cl    Cl    0.684451 0.725112 0.541828 -0.618891
Cl10  Cl    Cl    0.315576 0.223991 0.458055 -0.618098
N7    N     N_3   0.585909 0.592373 0.299215 -0.550594
H27   H     H_    0.543023 0.659431 0.297887 0.241604
H28   H     H_    0.590373 0.491540 0.339504 0.296036
N8    N     N_3   0.414861 0.094803 0.701473 -0.545628
H29   H     H_    0.457577 0.162706 0.702544 0.239888
H30   H     H_    0.410583 0.993382 0.661411 0.295615

loop_
_geom_bond_atom_site_label_1
_geom_bond_atom_site_label_2
_ccdc_geom_bond_type
C46   C48   A    
N6    H25   S    
C9    C31   A    
C13   C15   A    
C52   C54   A    
N1    H16   S    
C8    C65   S    
C1    C36   S    
C55   N3    S    
C2    C35   S    
O2    C4    A    
C2    O7    A    
C5    C29   A    
N5    H23   S    
C34   N8    S    
C12   C14   A    
O5    C3    A    
C56   N4    S    
C54   C56   A    
C21   C23   A    
C56   C58   A    
C6    C30   A    
N3    H20   S    
C43   C57   A    
N5    H24   S    
C38   C40   A    
C66   O17   A    
C15   C19   A    
C40   C42   A    
O6    V2    S    
C49   C51   A    
N2    H17   S    
C42   C44   A    
H1    C23   S    
O13   V3    S    
C7    C29   A    
C14   H6    S    
C8    C30   A    
C17   C25   A    
C20   C28   A    
C45   C47   A    
O1    C3    A    
N1    H15   S    
C16   C18   A    
O12   C68   A    
O15   V3    S    
C41   C51   A    
O5    V1    S    
C40   C46   A    
C64   Cl4   S    
C53   C55   A    
O11   V4    S    
C18   C32   A    
O11   C67   A    
O20   V3    S    
C61   C63   A    
N4    H22   S    
C61   C68   S    
C33   C35   A    
O17   V3    S    
C34   C36   A    
C39   C41   A    
C16   C20   A    
C50   C60   A    
C63   Cl3   S    
N7    H27   S    
C60   C62   A    
C54   C64   A    
C51   C53   A    
C65   O18   A    
C28   H4    S    
O16   C68   A    
C26   Cl10  S    
C9    Cl7   S    
C47   C49   A    
O4    V2    S    
C11   H7    S    
C57   N5    S    
C12   H8    S    
H2    C24   S    
C10   Cl8   S    
O6    C4    A    
C41   C43   A    
C27   H3    S    
C42   C52   A    
O1    V2    S    
C29   N1    S    
O14   C66   A    
O2    V1    S    
C55   C57   A    
N8    H30   S    
C7    C27   A    
O4    C2    A    
C62   C64   A    
C35   C37   A    
C48   H12   S    
C33   N7    S    
C49   C59   A    
C58   N6    S    
O3    V1    S    
N4    H21   S    
C59   C61   A    
C25   Cl9   S    
N7    H28   S    
O14   V4    S    
N6    H26   S    
C44   C58   A    
C10   C12   A    
C4    C31   S    
O3    C1    A    
C46   H10   S    
C37   Cl1   S    
C45   H9    S    
C7    C66   S    
O18   V4    S    
C11   C13   A    
C47   H11   S    
O16   V4    S    
C6    Cl6   S    
C19   C27   A    
C14   C16   A    
O7    V1    S    
C10   C32   A    
C1    O8    A    
C15   C17   A    
O8    V2    S    
N3    H19   S    
C39   C45   A    
C24   C26   A    
C33   C43   A    
C8    C28   A    
C34   C44   A    
C22   C24   A    
C19   C21   A    
C62   C67   S    
C36   C38   A    
O19   V4    S    
C20   C22   A    
C18   C26   A    
C60   H14   S    
N2    H18   S    
C59   H13   S    
C37   C39   A    
N8    H29   S    
O12   V3    S    
C23   C25   A    
C9    C11   A    
O13   C65   A    
C17   C31   A    
O9    V2    S    
C38   Cl2   S    
C48   C50   A    
O10   V1    S    
C3    C32   S    
C50   C52   A    
C5    C21   A    
C6    C22   A    
C53   C63   A    
C5    Cl5   S    
O15   C67   A    
C13   H5    S    
C30   N2    S    
