data_mof_unit_48037.cif
_audit_creation_date              2012-12-10T17:43:35-0500
_audit_creation_method            fapswitch 2.2
_symmetry_space_group_name_H-M    P1
_symmetry_Int_Tables_number       1
_space_group_crystal_system       triclinic
_cell_length_a                    14.923728
_cell_length_b                    10.653818
_cell_length_c                    9.966159
_cell_angle_alpha                 88.80392
_cell_angle_beta                  90.769571
_cell_angle_gamma                 92.209966
_cell_volume                      1582.91628737

loop_
_atom_site_label
_atom_site_type_symbol
_atom_type_description
_atom_site_fract_x
_atom_site_fract_y
_atom_site_fract_z
_atom_type_partial_charge
C1    C     C_R   0.506804 0.261273 0.501236 0.972250
C2    C     C_R   0.908301 0.600566 0.570920 0.087730
C3    C     C_R   0.949237 0.328420 0.353909 -0.218163
C4    C     C_R   0.042198 0.330928 0.354079 -0.199182
C5    C     C_R   0.090948 0.423274 0.425309 0.154916
C6    C     C_R   0.047024 0.515372 0.497146 -0.067231
C7    C     C_R   0.096300 0.611081 0.567247 0.019461
C8    C     C_R   0.049409 0.706893 0.630437 0.453860
C9    C     C_R   0.955675 0.697749 0.634984 -0.349353
C10   C     C_R   0.183182 0.423917 0.425979 -0.294724
C11   C     C_R   0.232155 0.513459 0.498184 -0.144173
C12   C     C_R   0.327431 0.504316 0.499389 0.859731
C13   C     C_R   0.190758 0.607718 0.570031 0.165045
C14   C     C_R   0.656543 0.128427 0.644402 0.430227
C15   C     C_R   0.721087 0.057605 0.713039 -0.225667
C16   C     C_R   0.716976 0.927784 0.709959 -0.207343
C17   C     C_R   0.648787 0.866342 0.638548 -0.191273
C18   C     C_R   0.581398 0.933858 0.570992 0.041459
C19   C     C_R   0.584253 0.066109 0.573747 0.040057
C20   C     C_R   0.515259 0.128851 0.501976 -0.107273
C21   C     C_R   0.450106 0.064178 0.425874 -0.241562
C22   C     C_R   0.448619 0.936233 0.423293 -0.203817
C23   C     C_R   0.502482 0.739341 0.498943 0.835258
C24   C     C_R   0.511966 0.871950 0.497391 -0.067091
C25   C     C_R   0.364376 0.369134 0.144254 -0.134845
C26   C     C_R   0.284761 0.332663 0.081303 -0.233656
C27   C     C_R   0.279173 0.337921 0.943253 -0.250908
C28   C     C_R   0.356841 0.365723 0.868906 0.235284
C29   C     C_R   0.431164 0.434441 0.929519 0.107008
C30   C     C_R   0.432416 0.435649 0.073735 0.135363
C31   C     C_R   0.564808 0.561962 0.070980 -0.107466
C32   C     C_R   0.564859 0.561870 0.928321 -0.105771
C33   C     C_R   0.672827 0.501506 0.500625 0.928592
C34   C     C_R   0.815616 0.593182 0.575723 -0.255589
C35   C     C_R   0.768305 0.502571 0.502000 -0.056472
C36   C     C_R   0.811775 0.415436 0.426525 -0.240662
C37   C     C_R   0.904658 0.417671 0.425810 0.128332
C38   C     C_R   0.953471 0.511371 0.497915 0.067595
H1    H     H_    0.780251 0.659902 0.633509 0.130552
H2    H     H_    0.776005 0.103489 0.767460 0.133252
H3    H     H_    0.767729 0.874434 0.761594 0.145398
H4    H     H_    0.650358 0.765442 0.635709 0.149475
H5    H     H_    0.396054 0.886855 0.366872 0.154922
H6    H     H_    0.617852 0.613113 0.123970 0.148341
H7    H     H_    0.371781 0.341200 0.246928 0.196780
H8    H     H_    0.230277 0.289326 0.138476 0.151376
H9    H     H_    0.220786 0.293745 0.895435 0.156088
H10   H     H_    0.773154 0.345241 0.370534 0.157402
H11   H     H_    0.617858 0.612932 0.874942 0.139431
H12   H     H_    0.912263 0.256519 0.298334 0.147500
H13   H     H_    0.076055 0.260639 0.298629 0.138020
H14   H     H_    0.217460 0.352043 0.373356 0.137466
H15   H     H_    0.919434 0.768407 0.686358 0.141961
H16   H     H_    0.398330 0.113182 0.370872 0.147199
N1    N     N_R   0.499150 0.498800 0.142780 -0.117683
N2    N     N_R   0.499120 0.498720 0.857170 -0.112030
O1    O     O_R   0.500000 0.316780 0.614690 -0.541322
O2    O     O_R   0.499990 0.316750 0.385360 -0.655230
O3    O     O_R   0.367850 0.499980 0.614680 -0.626820
O4    O     O_R   0.367840 0.499960 0.385350 -0.632986
O5    O     O_R   0.500010 0.683250 0.614640 -0.629190
O6    O     O_R   0.500000 0.683220 0.385310 -0.612103
O7    O     O_R   0.632160 0.500040 0.614650 -0.598623
O8    O     O_R   0.632150 0.500020 0.385320 -0.628109
Zn1   Zn    Zn3+2 0.500010 0.500020 0.653130 0.966746
Zn2   Zn    Zn3+2 0.499990 0.499980 0.346870 0.942023
O9    O     O_3   0.665776 0.257244 0.642651 -0.781142
H17   H     H_    0.718901 0.284123 0.697273 0.329927
N3    N     N_2   0.367056 0.287971 0.757451 -0.240988
H18   H     H_    0.311117 0.283932 0.695342 0.212559
C39   C     C_3   0.394241 0.162444 0.795298 -0.736374
H19   H     H_    0.396544 0.103715 0.705077 0.232800
H20   H     H_    0.345370 0.115768 0.865245 0.226034
H21   H     H_    0.461850 0.166805 0.843541 0.253596
N4    N     N_2   0.243845 0.700654 0.639745 -0.245834
H22   H     H_    0.303238 0.728903 0.594590 0.213244
C40   C     C_3   0.252820 0.680161 0.783475 -0.615976
H23   H     H_    0.187085 0.654012 0.829308 0.241822
H24   H     H_    0.279646 0.767813 0.830110 0.226426
H25   H     H_    0.299874 0.604754 0.806275 0.223012
O10   O     O_3   0.095087 0.809910 0.684050 -0.755046
H26   H     H_    0.051882 0.866982 0.723094 0.326159

loop_
_geom_bond_atom_site_label_1
_geom_bond_atom_site_label_2
_ccdc_geom_bond_type
O7    Zn1   S    
C28   N3    S    
C10   H14   S    
O10   H26   S    
C7    C8    A    
C40   H23   S    
C26   C27   A    
C29   C30   A    
C18   C24   A    
C36   C37   A    
C18   C19   A    
C21   H16   S    
C15   C16   A    
C34   C35   A    
N3    C39   S    
C17   H4    S    
C12   O3    A    
C34   H1    S    
O2    Zn2   S    
C23   O6    A    
C19   C20   A    
C8    C9    A    
C14   O9    S    
C6    C38   A    
C2    C34   A    
O4    Zn2   S    
C21   C22   A    
C3    H12   S    
C40   H24   S    
C32   H11   S    
C31   H6    S    
O6    Zn2   S    
C4    H13   S    
O9    H17   S    
C13   N4    S    
C39   H20   S    
C16   C17   A    
C25   C26   A    
C8    O10   S    
C35   C36   A    
O8    Zn2   S    
N4    H22   S    
C37   C38   A    
C1    O1    A    
C2    C38   A    
C31   C32   A    
C7    C13   A    
C33   O7    A    
C17   C18   A    
N4    C40   S    
C22   C24   A    
C9    H15   S    
C3    C4    A    
C25   H7    S    
N1    Zn2   S    
C40   H25   S    
C27   H9    S    
C25   C30   A    
C28   C29   A    
C1    C20   S    
C14   C19   A    
O1    Zn1   S    
C4    C5    A    
C39   H21   S    
C11   C12   S    
C6    C7    A    
C29   N2    A    
C30   N1    A    
C5    C10   A    
C1    O2    A    
O3    Zn1   S    
C11   C13   A    
C5    C6    A    
C33   O8    A    
C33   C35   S    
C36   H10   S    
N3    H18   S    
C15   H2    S    
C10   C11   A    
C26   H8    S    
C23   C24   S    
C12   O4    A    
O5    Zn1   S    
C23   O5    A    
C39   H19   S    
C20   C21   A    
C3    C37   A    
C27   C28   A    
C14   C15   A    
C31   N1    A    
C2    C9    A    
C16   H3    S    
C32   N2    A    
C22   H5    S    
N2    Zn1   S    
