data_mof_unit_58697.cif
_audit_creation_date              2012-12-10T18:04:52-0500
_audit_creation_method            fapswitch 2.2
_symmetry_space_group_name_H-M    P1
_symmetry_Int_Tables_number       1
_space_group_crystal_system       triclinic
_cell_length_a                    10.762548
_cell_length_b                    9.599454
_cell_length_c                    17.727957
_cell_angle_alpha                 89.99042
_cell_angle_beta                  91.746007
_cell_angle_gamma                 90.264523
_cell_volume                      1830.68663823

loop_
_atom_site_label
_atom_site_type_symbol
_atom_type_description
_atom_site_fract_x
_atom_site_fract_y
_atom_site_fract_z
_atom_type_partial_charge
C1    C     C_R   0.262905 0.499578 0.499940 0.737595
C2    C     C_R   0.737095 0.500422 0.500063 0.737604
C3    C     C_1   0.500129 0.499998 0.966184 0.189401
C4    C     C_1   0.499879 0.500005 0.033816 0.189402
C5    C     C_R   0.061864 0.505566 0.430360 -0.023258
C6    C     C_R   0.938134 0.494402 0.569654 -0.023305
C7    C     C_R   0.931147 0.505052 0.430451 -0.032341
C8    C     C_R   0.068858 0.494924 0.569565 -0.032377
C9    C     C_R   0.499634 0.500002 0.355678 0.820311
C10   C     C_R   0.500368 0.499998 0.644322 0.820276
C11   C     C_R   0.871304 0.502113 0.500118 -0.168912
C12   C     C_R   0.128697 0.497882 0.499893 -0.168907
C13   C     C_R   0.500042 0.626802 0.845820 0.383610
C14   C     C_R   0.499975 0.373200 0.154180 0.383609
C15   C     C_R   0.499162 0.626816 0.154142 0.384571
C16   C     C_R   0.500838 0.373186 0.845858 0.384581
C17   C     C_R   0.500065 0.626283 0.767175 -0.158347
C18   C     C_R   0.499951 0.373719 0.232825 -0.158336
C19   C     C_R   0.499158 0.626298 0.232789 -0.166573
C20   C     C_R   0.500840 0.373703 0.767212 -0.166562
C21   C     C_R   0.500491 0.499993 0.727271 -0.186604
C22   C     C_R   0.499515 0.500008 0.272729 -0.186618
C23   C     C_R   0.421400 0.073723 0.452400 0.366186
C24   C     C_R   0.578598 0.926276 0.547600 0.366187
C25   C     C_R   0.578527 0.074414 0.547650 0.364952
C26   C     C_R   0.421473 0.925585 0.452349 0.364946
C27   C     C_R   0.500391 0.499994 0.885397 -0.102673
C28   C     C_R   0.499617 0.500008 0.114603 -0.102681
Cu1   Cu    Cu3+1 0.500000 0.640660 0.500000 1.059067
Cu2   Cu    Cu3+1 0.500000 0.359340 0.500000 1.059067
H1    H     H_    0.499623 0.724885 0.737461 0.225331
H2    H     H_    0.500401 0.275116 0.262538 0.225325
H3    H     H_    0.498989 0.724899 0.262472 0.225066
H4    H     H_    0.501003 0.275101 0.737528 0.225060
N1    N     N_R   0.500000 0.852070 0.500000 -0.281166
N2    N     N_R   0.500000 0.147930 0.500000 -0.281158
O1    O     O_R   0.319640 0.618740 0.499990 -0.529153
O2    O     O_R   0.680360 0.381260 0.500010 -0.529159
O3    O     O_R   0.680360 0.618740 0.500010 -0.541006
O4    O     O_R   0.319640 0.381260 0.499990 -0.541018
O5    O     O_R   0.500000 0.618830 0.391250 -0.552861
O6    O     O_R   0.500000 0.381170 0.608750 -0.552871
O7    O     O_R   0.500000 0.618830 0.608750 -0.547545
O8    O     O_R   0.500000 0.381170 0.391250 -0.547543
Cl1   Cl    Cl    0.499506 0.788302 0.893035 -0.379018
Cl2   Cl    Cl    0.500522 0.211701 0.106964 -0.379013
Cl3   Cl    Cl    0.498655 0.788315 0.106878 -0.379326
Cl4   Cl    Cl    0.501335 0.211687 0.893122 -0.379323
Cl5   Cl    Cl    0.317619 0.160913 0.389938 -0.490061
Cl6   Cl    Cl    0.682359 0.839081 0.610076 -0.490052
Cl7   Cl    Cl    0.681775 0.162381 0.610519 -0.464153
Cl8   Cl    Cl    0.318224 0.837616 0.389481 -0.464106
C29   C     C_2   0.130839 0.520152 0.358974 0.567124
H5    H     H_    0.219478 0.468656 0.352913 0.065045
O9    O     O_2   0.092396 0.595006 0.307775 -0.445168
C30   C     C_2   0.869144 0.479768 0.641029 0.567299
H6    H     H_    0.780472 0.531192 0.647075 0.064927
O10   O     O_2   0.907603 0.404952 0.692231 -0.445090
C31   C     C_2   0.854974 0.500781 0.358795 0.487557
H7    H     H_    0.768080 0.557343 0.354166 0.036387
O11   O     O_2   0.885705 0.429102 0.305661 -0.464103
C32   C     C_2   0.145051 0.499118 0.641223 0.487609
H8    H     H_    0.231989 0.442649 0.645816 0.036380
O12   O     O_2   0.114280 0.570582 0.694416 -0.464083

loop_
_geom_bond_atom_site_label_1
_geom_bond_atom_site_label_2
_ccdc_geom_bond_type
C13   Cl1   S    
Cu2   N2    S    
C25   Cl7   S    
C14   C28   A    
C32   H8    S    
C6    C30   S    
C26   Cl8   S    
C10   O6    A    
Cu1   N1    S    
C2    O2    A    
C9    O5    A    
C15   Cl3   S    
C8    C12   A    
C20   H4    S    
C16   Cl4   S    
C16   C27   A    
C3    C27   S    
C13   C27   A    
Cu2   O4    S    
C31   H7    S    
C14   Cl2   S    
C29   H5    S    
C24   C25   A    
C15   C19   A    
Cu2   O8    S    
C15   C28   A    
Cu1   Cu2   S    
C1    C12   S    
C2    C11   S    
C7    C31   S    
C16   C20   A    
C4    C28   S    
C30   O10   D    
C7    C11   A    
C29   O9    D    
C10   C21   S    
C24   Cl6   S    
C17   H1    S    
C17   C21   A    
C9    C22   S    
C23   Cl5   S    
C24   N1    A    
C31   O11   D    
C30   H6    S    
C25   N2    A    
Cu1   O1    S    
C13   C17   A    
C26   N1    A    
C6    C11   A    
C19   C22   A    
C18   H2    S    
C20   C21   A    
Cu2   O2    S    
C5    C12   A    
C32   O12   D    
C23   N2    A    
C19   H3    S    
C23   C26   A    
C5    C29   S    
Cu1   O3    S    
C5    C7    A    
C14   C18   A    
Cu2   O6    S    
C9    O8    A    
C6    C8    A    
C1    O4    A    
Cu1   O5    S    
C10   O7    A    
C18   C22   A    
C2    O3    A    
Cu1   O7    S    
C3    C4    T    
C8    C32   S    
C1    O1    A    
