data_mof_unit_28418.cif
_audit_creation_date              2013-03-05T15:49:33-0500
_audit_creation_method            fapswitch 2.2
_symmetry_space_group_name_H-M    P1
_symmetry_Int_Tables_number       1
_space_group_crystal_system       triclinic
_cell_length_a                    25.10708
_cell_length_b                    7.242441
_cell_length_c                    21.921609
_cell_angle_alpha                 90.0
_cell_angle_beta                  110.21283
_cell_angle_gamma                 89.99956
_cell_volume                      3740.6653305

loop_
_atom_site_label
_atom_site_type_symbol
_atom_site_description
_atom_site_fract_x
_atom_site_fract_y
_atom_site_fract_z
_atom_type_partial_charge
O1    O     O_R   0.554350 0.505270 0.581390 -0.579458
O2    O     O_R   0.445650 0.005270 0.418610 -0.579457
O3    O     O_R   0.553380 0.177580 0.454800 -0.593169
O4    O     O_R   0.446620 0.677580 0.545200 -0.593166
C1    C     C_R   0.565761 0.344324 0.438213 0.935330
C2    C     C_R   0.434239 0.844324 0.561786 0.935319
O5    O     O_R   0.560970 0.175640 0.583140 -0.580756
O6    O     O_R   0.439030 0.675640 0.416860 -0.580756
O7    O     O_R   0.453290 0.004120 0.547860 -0.593258
O8    O     O_R   0.546710 0.504120 0.452140 -0.593264
C3    C     C_R   0.576042 0.343872 0.607541 0.898605
C4    C     C_R   0.423958 0.843873 0.392459 0.898606
O9    O     O_3   0.464660 0.338800 0.488280 -0.281050
O10   O     O_3   0.535340 0.838800 0.511720 -0.281052
V1    V     V_3+5 0.506560 0.064420 0.502170 1.164221
V2    V     V_3+5 0.493440 0.564420 0.497830 1.164219
C5    C     C_R   0.148352 0.984053 0.288754 -0.158679
C6    C     C_R   0.851646 0.484083 0.711246 -0.158684
H1    H     H_    0.063025 0.011734 0.222341 0.110798
H2    H     H_    0.936973 0.511766 0.777660 0.110792
H3    H     H_    0.233932 0.982463 0.400971 0.149982
H4    H     H_    0.766065 0.482504 0.599030 0.149980
H5    H     H_    0.136026 0.014387 0.330446 0.127438
H6    H     H_    0.863971 0.514430 0.669555 0.127436
C7    C     C_R   0.120767 0.942646 0.172391 -0.086728
C8    C     C_R   0.879233 0.442651 0.827609 -0.086731
C9    C     C_R   0.396706 0.811900 0.273910 -0.153879
C10   C     C_R   0.603295 0.311880 0.726090 -0.153879
C11   C     C_R   0.357302 0.808373 0.211147 -0.086849
C12   C     C_R   0.642700 0.308346 0.788852 -0.086851
C13   C     C_R   0.299978 0.840732 0.199926 -0.178233
C14   C     C_R   0.700024 0.340713 0.800073 -0.178231
C15   C     C_R   0.280303 0.878325 0.251830 0.090939
C16   C     C_R   0.719697 0.378321 0.748170 0.090938
C17   C     C_R   0.321297 0.883720 0.316402 0.098336
C18   C     C_R   0.678703 0.383724 0.683598 0.098338
C19   C     C_R   0.221417 0.910416 0.241801 0.088192
C20   C     C_R   0.778583 0.410419 0.758199 0.088191
C21   C     C_R   0.205356 0.949063 0.296635 0.168245
C22   C     C_R   0.794643 0.449083 0.703365 0.168248
C23   C     C_R   0.246170 0.953451 0.359116 -0.210403
C24   C     C_R   0.753828 0.453480 0.640885 -0.210408
C25   C     C_R   0.303096 0.920922 0.368950 -0.201875
C26   C     C_R   0.696902 0.420942 0.631051 -0.201879
C27   C     C_R   0.177705 0.906456 0.179497 -0.237975
C28   C     C_R   0.822295 0.406450 0.820503 -0.237974
C29   C     C_R   0.106616 0.982123 0.227232 -0.157835
C30   C     C_R   0.893382 0.482146 0.772769 -0.157834
C31   C     C_R   0.379702 0.849793 0.326966 -0.164115
C32   C     C_R   0.620298 0.349789 0.673034 -0.164116
H7    H     H_    0.186415 0.878248 0.135598 0.102040
H8    H     H_    0.813586 0.378229 0.864401 0.102043
H9    H     H_    0.440926 0.784455 0.281216 0.109513
H10   H     H_    0.559076 0.284428 0.718783 0.109509
H11   H     H_    0.272166 0.835143 0.149989 0.115224
H12   H     H_    0.727835 0.335118 0.850010 0.115225
H13   H     H_    0.371303 0.779291 0.170638 0.122043
H14   H     H_    0.628699 0.279252 0.829361 0.122043
H15   H     H_    0.332882 0.925582 0.418325 0.120514
H16   H     H_    0.667117 0.425608 0.581675 0.120517
C33   C     C_R   0.107934 0.775393 0.866065 -0.158791
C34   C     C_R   0.892034 0.275347 0.133895 -0.158811
H17   H     H_    0.083283 0.654421 0.868228 0.132733
H18   H     H_    0.916659 0.154337 0.131701 0.132745
C35   C     C_R   0.143110 0.767025 0.828579 -0.139775
C36   C     C_R   0.856857 0.266977 0.171380 -0.139783
H19   H     H_    0.144894 0.639458 0.803571 0.125107
H20   H     H_    0.855048 0.139372 0.196357 0.125089
C37   C     C_R   0.175996 0.920161 0.824030 0.125439
C38   C     C_R   0.824003 0.420161 0.175970 0.125474
C39   C     C_R   0.172588 0.082402 0.857797 -0.135362
C40   C     C_R   0.827444 0.582451 0.142243 -0.135373
H21   H     H_    0.197188 0.203103 0.855217 0.126416
H22   H     H_    0.802869 0.703190 0.144855 0.126405
C41   C     C_R   0.136763 0.091697 0.894657 -0.168359
C42   C     C_R   0.863268 0.591745 0.105382 -0.168347
H23   H     H_    0.135000 0.219219 0.919692 0.135399
H24   H     H_    0.865055 0.719306 0.080379 0.135396
C43   C     C_R   0.104052 0.938016 0.899472 -0.118385
C44   C     C_R   0.895948 0.438018 0.100528 -0.118387
N1    N     N_R   0.256809 0.031638 0.793369 -0.059939
N2    N     N_R   0.743229 0.531745 0.206680 -0.059920
N3    N     N_R   0.291476 0.017654 0.759146 -0.047918
N4    N     N_R   0.708561 0.517758 0.240902 -0.047868
C45   C     C_R   0.284607 0.880871 0.714513 0.209892
C46   C     C_R   0.715393 0.380867 0.285486 0.209813
N5    N     N_R   0.240601 0.761748 0.704669 -0.020469
N6    N     N_R   0.759364 0.261633 0.295283 -0.020448
N7    N     N_R   0.206214 0.774727 0.739155 -0.060116
N8    N     N_R   0.793751 0.274614 0.260797 -0.060121
C47   C     C_R   0.213705 0.909293 0.784540 0.087244
C48   C     C_R   0.786296 0.409291 0.215460 0.087205
C49   C     C_R   0.331064 0.697386 0.646429 0.388913
C50   C     C_R   0.668927 0.197375 0.353560 0.388949
C51   C     C_R   0.366066 0.693907 0.608217 -0.272728
C52   C     C_R   0.633926 0.193895 0.391773 -0.272725
H25   H     H_    0.371194 0.564870 0.585872 0.174528
H26   H     H_    0.628793 0.064852 0.414112 0.174515
C53   C     C_R   0.395496 0.852145 0.600276 -0.178661
C54   C     C_R   0.604503 0.352141 0.399724 -0.178662
C55   C     C_R   0.388958 0.015975 0.631236 -0.139045
C56   C     C_R   0.611047 0.515978 0.368772 -0.139067
H27   H     H_    0.411295 0.140434 0.626892 0.143652
H28   H     H_    0.588715 0.640444 0.373121 0.143663
C57   C     C_R   0.354045 0.021466 0.669019 -0.100031
C58   C     C_R   0.645960 0.521468 0.330988 -0.100026
H29   H     H_    0.350391 0.150287 0.692097 0.201626
H30   H     H_    0.649616 0.650293 0.307916 0.201672
C59   C     C_R   0.323877 0.864548 0.676627 -0.085100
C60   C     C_R   0.676121 0.364543 0.323372 -0.085102
O11   O     O_R   0.953220 0.285790 0.047790 -0.589844
O12   O     O_R   0.046780 0.785790 0.952210 -0.589837
O13   O     O_R   0.939020 0.617570 0.916840 -0.582429
O14   O     O_R   0.060980 0.117570 0.083160 -0.582428
C61   C     C_R   0.923996 0.448759 0.892475 0.897859
C62   C     C_R   0.076004 0.948758 0.107525 0.897856
O15   O     O_R   0.946600 0.615450 0.045180 -0.592632
O16   O     O_R   0.053400 0.115450 0.954820 -0.592623
O17   O     O_R   0.054370 0.786770 0.081410 -0.578088
O18   O     O_R   0.945630 0.286770 0.918590 -0.578088
C63   C     C_R   0.934433 0.447103 0.061794 0.900817
C64   C     C_R   0.065566 0.947102 0.938206 0.900809
O19   O     O_3   0.035300 0.454160 0.011680 -0.281992
O20   O     O_3   0.964700 0.954160 0.988320 -0.282000
V3    V     V_3+5 0.993450 0.728620 0.997830 1.155817
V4    V     V_3+5 0.006550 0.228620 0.002170 1.155819
N9    N     N_R   0.305745 0.527801 0.656465 0.219539
O21   O     O_R   0.283822 0.414744 0.608126 -0.420822
O22   O     O_R   0.313311 0.471787 0.715279 -0.431623
N10   N     N_R   0.694237 0.027782 0.343515 0.219530
O23   O     O_R   0.716175 0.914735 0.391854 -0.420837
O24   O     O_R   0.686644 0.971751 0.284697 -0.431638

loop_
_geom_bond_atom_site_label_1
_geom_bond_atom_site_label_2
_geom_bond_distance
_ccdc_geom_bond_type
C36   H20   1.083108 S    
C9    C11   1.389897 A    
O1    C3    1.332613 A    
C40   C42   1.403104 A    
O2    C4    1.332612 A    
C2    O7    1.327509 A    
N9    O22   1.301424 A    
C4    C31   1.481689 S    
O3    V1    1.993829 S    
C21   C23   1.398998 A    
H4    C24   1.084075 S    
O5    C3    1.331905 A    
C57   H29   1.080210 S    
C50   N10   1.434444 S    
C6    H6    1.083881 S    
C34   C44   1.407961 A    
C46   C60   1.497263 S    
C42   H24   1.083025 S    
C45   C59   1.497248 S    
C5    C21   1.404118 A    
O14   V4    1.997483 S    
C46   N6    1.358949 A    
O11   C63   1.334801 A    
C27   H7    1.077519 S    
C51   C53   1.406616 A    
C28   H8    1.077520 S    
C33   C43   1.407948 A    
N2    C48   1.359751 A    
C33   H17   1.083131 S    
O16   C64   1.337683 A    
C55   H27   1.083047 S    
C37   C39   1.407021 A    
O15   C63   1.337683 A    
C8    C61   1.477400 S    
C34   H18   1.083142 S    
C12   H14   1.082705 S    
C10   C32   1.397652 A    
C35   H19   1.083098 S    
C52   H26   1.083267 S    
C17   C31   1.424661 A    
C13   C15   1.414605 A    
N7    C47   1.358588 A    
C17   C25   1.404304 A    
C7    C29   1.395845 A    
C16   C18   1.434517 A    
C25   H15   1.082875 S    
C50   C52   1.408286 A    
O5    V1    1.997514 S    
O6    V2    1.997505 S    
C9    H9    1.083906 S    
C11   C13   1.393638 A    
C23   C25   1.389897 A    
C24   C26   1.389898 A    
N1    N3    1.334874 A    
C44   C63   1.491959 S    
C45   N5    1.358992 A    
C55   C57   1.399193 A    
C43   C64   1.491953 S    
C39   C41   1.403107 A    
C34   C36   1.400159 A    
C12   C14   1.393640 A    
C42   C44   1.408700 A    
C40   H22   1.083057 S    
C7    C62   1.477398 S    
C39   H21   1.083046 S    
C10   H10   1.083906 S    
O19   V4    1.768819 S    
C50   C60   1.420916 A    
C15   C19   1.436521 A    
C14   C16   1.414603 A    
O4    V2    1.993821 S    
N10   O24   1.301419 A    
C49   N9    1.434455 S    
O12   C64   1.334800 A    
N8    C48   1.358540 A    
C1    C54   1.492783 S    
O6    C4    1.331905 A    
O11   V4    1.972226 S    
C54   C56   1.404411 A    
O1    V2    1.985405 S    
C5    H5    1.083882 S    
C56   H28   1.083047 S    
O2    V1    1.985412 S    
C41   H23   1.083016 S    
O12   V3    1.972230 S    
H2    C30   1.083615 S    
O18   V4    1.984257 S    
H3    C23   1.084074 S    
O17   V3    1.984260 S    
O4    C2    1.328656 A    
N3    C45   1.360817 A    
N6    N8    1.332944 A    
N2    N4    1.334877 A    
N5    N7    1.332950 A    
C18   C26   1.404306 A    
C19   C27   1.426498 A    
N9    O21   1.301257 A    
C7    C27   1.408087 A    
C18   C32   1.424665 A    
O15   V3    1.994122 S    
C58   C60   1.407249 A    
C57   C59   1.407248 A    
C53   C55   1.404418 A    
C16   C20   1.436523 A    
C38   C48   1.489378 S    
C5    C29   1.393045 A    
C11   H13   1.082705 S    
O3    C1    1.328653 A    
C6    C30   1.393048 A    
O14   C62   1.335340 A    
C51   H25   1.083267 S    
C8    C30   1.395846 A    
C62   O17   1.335766 A    
C2    C53   1.492791 S    
C10   C12   1.389897 A    
N10   O23   1.301257 A    
O7    V1    1.976966 S    
C1    O8    1.327505 A    
C19   C21   1.421560 A    
C3    C32   1.481689 S    
O8    V2    1.976964 S    
C20   C22   1.421560 A    
C36   C38   1.406659 A    
C58   H30   1.080197 S    
C26   H16   1.082874 S    
C35   C37   1.406650 A    
C52   C54   1.406611 A    
O13   V3    1.997492 S    
C22   C24   1.398998 A    
C15   C17   1.434517 A    
C56   C58   1.399189 A    
H1    C29   1.083615 S    
C20   C28   1.426499 A    
C8    C28   1.408088 A    
N1    C47   1.359794 A    
C33   C35   1.400168 A    
C6    C22   1.404119 A    
C49   C51   1.408297 A    
C61   O18   1.335765 A    
O9    V2    1.769610 S    
O10   V1    1.769600 S    
N4    C46   1.360777 A    
C38   C40   1.407029 A    
O16   V4    1.994115 S    
C13   H11   1.076745 S    
C37   C47   1.489383 S    
C41   C43   1.408684 A    
C14   H12   1.076745 S    
C9    C31   1.397651 A    
C49   C59   1.420914 A    
O20   V3    1.768809 S    
O13   C61   1.335340 A    
