data_mof_unit_15416.cif
_audit_creation_date              2012-10-26T20:21:46-0400
_audit_creation_method            fapswitch 2.2
_symmetry_space_group_name_H-M    P1
_symmetry_Int_Tables_number       1
_space_group_crystal_system       triclinic
_cell_length_a                    15.814204
_cell_length_b                    15.247657
_cell_length_c                    9.546449
_cell_angle_alpha                 89.141215
_cell_angle_beta                  89.948202
_cell_angle_gamma                 89.997587
_cell_volume                      2301.67151957

loop_
_atom_site_label
_atom_site_type_symbol
_atom_type_description
_atom_site_fract_x
_atom_site_fract_y
_atom_site_fract_z
_atom_type_partial_charge
C1    C     C_R   0.118945 0.380506 0.500981 0.606296
C2    C     C_R   0.996483 0.576431 0.924343 0.119645
C3    C     C_R   0.999277 0.576383 0.072456 0.100531
C4    C     C_R   0.999441 0.423589 0.927508 0.105508
C5    C     C_R   0.496626 0.923530 0.075643 0.125843
C6    C     C_R   0.496483 0.076431 0.924343 0.119645
C7    C     C_R   0.499277 0.076383 0.072456 0.100531
C8    C     C_R   0.499441 0.923589 0.927508 0.105509
C9    C     C_R   0.764599 0.302800 0.378344 0.186023
C10   C     C_R   0.217616 0.721111 0.623777 0.204807
C11   C     C_R   0.218428 0.724754 0.370044 0.182269
C12   C     C_R   0.881337 0.618879 0.499632 0.616020
C13   C     C_R   0.794688 0.264668 0.620061 0.185353
C14   C     C_R   0.219535 0.276840 0.629651 0.179060
C15   C     C_R   0.795479 0.735751 0.379818 0.145633
C16   C     C_R   0.765470 0.698644 0.622080 0.190711
C17   C     C_R   0.218546 0.279585 0.375967 0.167335
C18   C     C_R   0.264599 0.802799 0.378343 0.186023
C19   C     C_R   0.717615 0.221111 0.623777 0.204808
C20   C     C_R   0.718427 0.224754 0.370044 0.182269
C21   C     C_R   0.294688 0.764668 0.620061 0.185354
C22   C     C_R   0.719535 0.776840 0.629650 0.179060
C23   C     C_R   0.881210 0.381259 0.500446 0.635438
C24   C     C_R   0.295478 0.235750 0.379818 0.145632
C25   C     C_R   0.265469 0.198643 0.622080 0.190711
C26   C     C_R   0.718547 0.779585 0.375967 0.167342
C27   C     C_R   0.185130 0.688382 0.496740 -0.062825
C28   C     C_R   0.813441 0.315852 0.500024 -0.060704
C29   C     C_R   0.813993 0.684754 0.500134 -0.078546
C30   C     C_R   0.185937 0.312499 0.502909 -0.076791
C31   C     C_R   0.685130 0.188382 0.496740 -0.062825
C32   C     C_R   0.313441 0.815852 0.500024 -0.060703
C33   C     C_R   0.313993 0.184754 0.500134 -0.078548
C34   C     C_R   0.118675 0.619791 0.498891 0.609713
C35   C     C_R   0.685938 0.812499 0.502909 -0.076782
C36   C     C_R   0.618945 0.880506 0.500981 0.606302
C37   C     C_R   0.381337 0.118879 0.499632 0.616016
C38   C     C_R   0.381210 0.881259 0.500446 0.635440
C39   C     C_R   0.618675 0.119791 0.498891 0.609711
C40   C     C_R   0.996626 0.423530 0.075643 0.125842
Cu1   Cu    Cu3+1 1.000000 0.500000 0.640660 1.152896
Cu2   Cu    Cu3+1 0.000000 0.500000 0.359340 1.160871
Cu3   Cu    Cu3+1 0.500000 1.000000 0.640660 1.152893
Cu4   Cu    Cu3+1 0.500000 1.000000 0.359340 1.160873
H1    H     H_    0.991061 0.362234 0.131670 0.223369
H2    H     H_    0.031955 0.788447 0.806780 0.389536
H3    H     H_    0.206519 0.539889 0.129105 0.383659
H4    H     H_    0.002753 0.211476 0.759163 0.400369
H5    H     H_    0.209893 0.464571 0.864732 0.386024
H6    H     H_    0.970686 0.796864 0.386529 0.354639
H7    H     H_    0.749744 0.472502 0.752355 0.396418
H8    H     H_    0.059491 0.194943 0.326701 0.360243
H9    H     H_    0.247764 0.029974 0.252854 0.393324
H10   H     H_    0.531954 0.288447 0.806779 0.389535
H11   H     H_    0.706519 0.039890 0.129104 0.383659
H12   H     H_    0.990855 0.637656 0.868218 0.198399
H13   H     H_    0.502755 0.711488 0.759175 0.400365
H14   H     H_    0.709894 0.964574 0.864728 0.386025
H15   H     H_    0.470684 0.296858 0.386537 0.354633
H16   H     H_    0.249743 0.972501 0.752352 0.396418
H17   H     H_    0.559491 0.694933 0.326676 0.360254
H18   H     H_    0.999362 0.637371 0.126765 0.232183
H19   H     H_    0.999781 0.362562 0.873163 0.210428
H20   H     H_    0.491061 0.862234 0.131670 0.223368
H21   H     H_    0.490855 0.137656 0.868218 0.198398
H22   H     H_    0.499362 0.137371 0.126765 0.232182
H23   H     H_    0.499782 0.862562 0.873163 0.210416
H24   H     H_    0.747763 0.529975 0.252855 0.393322
N1    N     N_R   1.000000 0.500000 0.852070 -0.266686
N2    N     N_R   1.000000 0.500000 0.147930 -0.271577
N3    N     N_R   0.500000 1.000000 0.852070 -0.266684
N4    N     N_R   0.500000 1.000000 0.147930 -0.271577
O1    O     O_R   0.090170 0.409820 0.618740 -0.458486
O2    O     O_R   0.409830 0.090180 0.381260 -0.461697
O3    O     O_R   0.409830 0.090180 0.618740 -0.468087
O4    O     O_R   0.590170 0.909820 0.381260 -0.451120
O5    O     O_R   0.409830 0.909820 0.381260 -0.468050
O6    O     O_R   0.590170 0.090180 0.618740 -0.449431
O7    O     O_R   0.590170 0.090180 0.381260 -0.457035
O8    O     O_R   0.409830 0.909820 0.618740 -0.460398
O9    O     O_2   0.811069 0.384927 0.138433 -0.211069
O10   O     O_2   0.659482 0.377758 0.188972 -0.153879
O11   O     O_3   0.750093 0.486221 0.330511 -0.500653
O12   O     O_R   0.909830 0.590180 0.381260 -0.461695
O13   O     O_2   0.161626 0.646792 0.859958 -0.230877
O14   O     O_2   0.187629 0.805064 0.865171 -0.160589
O15   O     O_3   0.055496 0.752702 0.730204 -0.555946
O16   O     O_2   0.137707 0.700091 0.130675 -0.213029
O17   O     O_2   0.291880 0.700550 0.120159 -0.131674
O18   O     O_3   0.219881 0.562310 0.223395 -0.475849
O19   O     O_2   0.858680 0.304247 0.869688 -0.213180
O20   O     O_2   0.851843 0.149043 0.810903 -0.175484
O21   O     O_3   0.967784 0.243570 0.689341 -0.544790
O22   O     O_2   0.140992 0.304592 0.870323 -0.237275
O23   O     O_R   0.909830 0.590180 0.618740 -0.468088
O24   O     O_2   0.295246 0.303691 0.876770 -0.141425
O25   O     O_3   0.222573 0.440905 0.770949 -0.474424
O26   O     O_2   0.858774 0.696351 0.129858 -0.198093
O27   O     O_2   0.854271 0.851271 0.188690 -0.163054
O28   O     O_3   0.969302 0.755093 0.308095 -0.504030
O29   O     O_2   0.812761 0.618248 0.862648 -0.211506
O30   O     O_2   0.661006 0.625587 0.814573 -0.181774
O31   O     O_3   0.750480 0.515617 0.673707 -0.493642
O32   O     O_2   0.163201 0.355221 0.141133 -0.212261
O33   O     O_2   0.188387 0.197100 0.132079 -0.141973
O34   O     O_R   0.090170 0.409820 0.381260 -0.451124
O35   O     O_3   0.056530 0.248661 0.267256 -0.523244
O36   O     O_2   0.311069 0.884927 0.138433 -0.211069
O37   O     O_2   0.159482 0.877757 0.188971 -0.153879
O38   O     O_3   0.250094 0.986221 0.330510 -0.500651
O39   O     O_2   0.661626 0.146792 0.859958 -0.230878
O40   O     O_2   0.687628 0.305065 0.865170 -0.160589
O41   O     O_3   0.555495 0.252702 0.730203 -0.555947
O42   O     O_2   0.637706 0.200091 0.130675 -0.213028
O43   O     O_2   0.791879 0.200550 0.120159 -0.131672
O44   O     O_3   0.719881 0.062310 0.223395 -0.475849
O45   O     O_R   0.909830 0.409820 0.381260 -0.468052
O46   O     O_2   0.358680 0.804247 0.869687 -0.213188
O47   O     O_2   0.351842 0.649043 0.810904 -0.175476
O48   O     O_3   0.467784 0.743568 0.689339 -0.544780
O49   O     O_2   0.640995 0.804595 0.870324 -0.237283
O50   O     O_2   0.795249 0.803694 0.876768 -0.141425
O51   O     O_3   0.722575 0.940907 0.770945 -0.474425
O52   O     O_2   0.358774 0.196350 0.129858 -0.198095
O53   O     O_2   0.354271 0.351270 0.188690 -0.163051
O54   O     O_3   0.469301 0.255093 0.308094 -0.504023
O55   O     O_2   0.312760 0.118247 0.862647 -0.211505
O56   O     O_R   0.090170 0.590180 0.618740 -0.449430
O57   O     O_2   0.161005 0.125585 0.814572 -0.181778
O58   O     O_3   0.250480 0.015616 0.673705 -0.493643
O59   O     O_2   0.663201 0.855222 0.141134 -0.212260
O60   O     O_2   0.688388 0.697102 0.132077 -0.141982
O61   O     O_3   0.556531 0.748661 0.267255 -0.523253
O62   O     O_R   0.090170 0.590180 0.381260 -0.457034
O63   O     O_R   0.909830 0.409820 0.618740 -0.460396
O64   O     O_R   0.590170 0.909820 0.618740 -0.458491
S1    S     S_3+6 0.745755 0.388145 0.252452 0.133923
S2    S     S_3+6 0.656014 0.231024 0.777171 0.104539
S3    S     S_3+6 0.716590 0.172239 0.205617 0.136076
S4    S     S_3+6 0.368729 0.739814 0.753742 0.097444
S5    S     S_3+6 0.719299 0.831209 0.792479 0.124277
S6    S     S_3+6 0.369829 0.260347 0.246094 0.102489
S7    S     S_3+6 0.246886 0.114343 0.749833 0.128938
S8    S     S_3+6 0.657305 0.770345 0.222173 0.110930
S9    S     S_3+6 0.156015 0.731024 0.777171 0.104538
S10   S     S_3+6 0.216590 0.672238 0.205617 0.136075
S11   S     S_3+6 0.868729 0.239814 0.753742 0.097442
S12   S     S_3+6 0.219297 0.331207 0.792480 0.124279
S13   S     S_3+6 0.869829 0.760347 0.246094 0.102487
S14   S     S_3+6 0.746887 0.614344 0.749834 0.128939
S15   S     S_3+6 0.157304 0.270344 0.222173 0.110935
S16   S     S_3+6 0.245755 0.888145 0.252452 0.133924

loop_
_geom_bond_atom_site_label_1
_geom_bond_atom_site_label_2
_ccdc_geom_bond_type
C10   C27   A    
O60   S8    D    
C37   O2    A    
C11   C18   A    
C12   C29   S    
Cu1   Cu2   S    
C35   C36   S    
C15   S13   S    
C19   C31   A    
O19   S11   D    
H17   O61   S    
C25   S7    S    
Cu3   O6    S    
O9    S1    D    
C22   C35   A    
O27   S13   D    
C4    H19   S    
H14   O51   S    
C40   N2    A    
O51   S5    S    
O47   S4    D    
C20   S3    S    
Cu4   O5    S    
O13   S9    D    
O10   S1    D    
O38   S16   S    
C26   S8    S    
H11   O44   S    
C34   O62   A    
H7    O31   S    
H10   O41   S    
C14   S12   S    
O29   S14   D    
Cu2   N2    S    
C12   O12   A    
O11   S1    S    
Cu4   O4    S    
C36   O4    A    
O31   S14   S    
O36   S16   D    
C9    S1    S    
C6    H21   S    
C4    C40   A    
H8    O35   S    
C24   S6    S    
C8    N3    A    
Cu3   N3    S    
C13   C28   A    
Cu4   N4    S    
O48   S4    S    
C32   C38   S    
C2    N1    A    
C1    O34   A    
O44   S3    S    
O35   S15   S    
C37   O3    A    
C27   C34   S    
O20   S11   D    
Cu3   O3    S    
C17   C30   A    
Cu1   O56   S    
O52   S6    D    
C17   S15   S    
C14   C30   A    
O46   S4    D    
C36   O64   A    
C4    N1    A    
C15   C29   A    
C10   C21   A    
O22   S12   D    
O17   S10   D    
O33   S15   D    
C21   C32   A    
C17   C24   A    
H4    O21   S    
C13   C19   A    
C39   O6    A    
O49   S5    D    
C3    N2    A    
Cu2   O12   S    
H16   O58   S    
C7    N4    A    
C15   C26   A    
C10   S9    S    
Cu3   O8    S    
O42   S3    D    
H5    O25   S    
O54   S6    S    
C33   C37   S    
C5    H20   S    
H15   O54   S    
C39   O7    A    
Cu3   Cu4   S    
O40   S2    D    
C9    C20   A    
C11   C27   A    
O53   S6    D    
O37   S16   D    
C12   O23   A    
O55   S7    D    
C23   C28   S    
Cu4   O2    S    
O58   S7    S    
Cu2   O34   S    
O30   S14   D    
H13   O48   S    
Cu2   O45   S    
O43   S3    D    
H3    O18   S    
C18   C32   A    
C13   S11   S    
O14   S9    D    
Cu1   O63   S    
O32   S15   D    
Cu1   N1    S    
H2    O15   S    
C3    H18   S    
O61   S8    S    
C16   C22   A    
O15   S9    S    
H24   O11   S    
Cu4   O7    S    
C6    N3    A    
C23   O45   A    
C5    C8    A    
C11   S10   S    
C6    C7    A    
O57   S7    D    
C38   O5    A    
O28   S13   S    
C5    N4    A    
H6    O28   S    
C24   C33   A    
O50   S5    D    
C23   O63   A    
Cu2   O62   S    
C1    O1    A    
O24   S12   D    
C2    C3    A    
C16   C29   A    
O18   S10   S    
C2    H12   S    
C7    H22   S    
Cu1   O23   S    
C38   O8    A    
C19   S2    S    
C22   S5    S    
C1    C30   S    
O25   S12   S    
C31   C39   S    
O21   S11   S    
C14   C25   A    
Cu3   O64   S    
H9    O38   S    
Cu1   O1    S    
C26   C35   A    
C40   H1    S    
O39   S2    D    
C8    H23   S    
C34   O56   A    
O16   S10   D    
O41   S2    S    
C16   S14   S    
C21   S4    S    
O26   S13   D    
O59   S8    D    
C9    C28   A    
C25   C33   A    
C18   S16   S    
C20   C31   A    
