data_mof_unit_56206.cif
_audit_creation_date              2012-12-10T21:09:52-0500
_audit_creation_method            fapswitch 2.2
_symmetry_space_group_name_H-M    P1
_symmetry_Int_Tables_number       1
_space_group_crystal_system       triclinic
_cell_length_a                    12.875499
_cell_length_b                    17.540008
_cell_length_c                    16.782073
_cell_angle_alpha                 89.650002
_cell_angle_beta                  97.570314
_cell_angle_gamma                 90.442256
_cell_volume                      3756.80680308

loop_
_atom_site_label
_atom_site_type_symbol
_atom_type_description
_atom_site_fract_x
_atom_site_fract_y
_atom_site_fract_z
_atom_type_partial_charge
C1    C     C_R   0.503491 0.353131 0.500861 0.881116
C2    C     C_R   0.547585 0.113981 0.505815 0.042603
C3    C     C_1   0.550590 0.965980 0.506175 -0.026678
C4    C     C_1   0.550780 0.033583 0.505557 -0.029245
C5    C     C_R   0.455346 0.437009 0.827871 0.440583
C6    C     C_R   0.591360 0.517436 0.175920 0.408562
C7    C     C_R   0.457010 0.439850 0.743093 -0.230413
C8    C     C_R   0.588019 0.520047 0.260319 -0.222725
C9    C     C_R   0.546063 0.558755 0.752794 0.528827
C10   C     C_R   0.411564 0.478120 0.243318 0.540989
C11   C     C_R   0.544086 0.560159 0.837349 -0.257359
C12   C     C_R   0.503588 0.646665 0.500026 0.891303
C13   C     C_R   0.407419 0.482185 0.158310 -0.265752
C14   C     C_R   0.500308 0.497861 0.875487 -0.073277
C15   C     C_R   0.499236 0.499496 0.124061 -0.057946
C16   C     C_R   0.297749 0.499492 0.484165 0.875791
C17   C     C_R   0.702266 0.499855 0.515791 0.846389
C18   C     C_1   0.498997 0.497366 0.963295 0.069602
C19   C     C_1   0.499407 0.498539 0.036217 0.075003
C20   C     C_R   0.814400 0.498600 0.525192 -0.050323
C21   C     C_R   0.185605 0.499206 0.474406 -0.055020
C22   C     C_R   0.019942 0.522560 0.394437 -0.251484
C23   C     C_R   0.518926 0.728720 0.500981 -0.167186
C24   C     C_R   0.979900 0.473764 0.604713 -0.229067
C25   C     C_R   0.127901 0.518114 0.400427 -0.190920
C26   C     C_R   0.872044 0.479100 0.598949 -0.224082
C27   C     C_R   0.136242 0.482812 0.541765 -0.290356
C28   C     C_R   0.863754 0.513797 0.457529 -0.299040
C29   C     C_R   0.029185 0.487969 0.536656 0.193427
C30   C     C_R   0.970708 0.508280 0.462507 0.195609
C31   C     C_R   0.497654 0.849124 0.564832 -0.186003
C32   C     C_R   0.515131 0.151172 0.433445 -0.178008
C33   C     C_R   0.483307 0.770932 0.562297 -0.242607
C34   C     C_R   0.518819 0.270779 0.503922 -0.160229
C35   C     C_R   0.500449 0.229155 0.432490 -0.281014
C36   C     C_3   0.700775 0.611190 0.726390 0.135024
C37   C     C_3   0.747465 0.664205 0.668145 -0.806702
C38   C     C_3   0.318055 0.372993 0.271598 0.117153
C39   C     C_3   0.245428 0.342847 0.329249 -0.807491
C40   C     C_R   0.585764 0.627634 0.884661 0.144600
C41   C     C_R   0.668761 0.619938 0.947577 -0.149288
C42   C     C_R   0.707599 0.683659 0.991825 -0.093845
C43   C     C_R   0.664625 0.755525 0.973262 -0.132137
C44   C     C_R   0.582816 0.763810 0.910332 -0.165306
C45   C     C_R   0.573912 0.764889 0.443616 0.412413
C46   C     C_R   0.543431 0.700184 0.866120 -0.086247
C47   C     C_R   0.305202 0.472568 0.107106 0.167259
C48   C     C_R   0.286910 0.410988 0.053830 -0.166714
C49   C     C_R   0.188232 0.400939 0.008989 -0.139588
C50   C     C_R   0.108127 0.452850 0.015845 -0.116482
C51   C     C_R   0.126195 0.514622 0.068087 -0.166381
C52   C     C_R   0.224045 0.524214 0.114021 -0.088492
C53   C     C_3   0.722438 0.706384 0.415533 0.116665
C54   C     C_3   0.784134 0.698575 0.344726 -0.823512
C55   C     C_3   0.687203 0.294302 0.657288 0.143003
C56   C     C_R   0.556623 0.233592 0.577110 0.403520
C57   C     C_3   0.712911 0.341291 0.733273 -0.817428
C58   C     C_R   0.639469 0.883121 0.382406 0.151660
C59   C     C_R   0.730387 0.927005 0.404434 -0.173158
C60   C     C_R   0.781587 0.962261 0.345467 -0.138797
C61   C     C_R   0.742774 0.953729 0.264218 -0.122452
C62   C     C_R   0.652637 0.909951 0.241789 -0.170375
C63   C     C_R   0.601050 0.874737 0.300569 -0.080494
C64   C     C_R   0.600319 0.113738 0.655484 0.153983
C65   C     C_R   0.695594 0.074218 0.668219 -0.182198
C66   C     C_R   0.724896 0.035619 0.740748 -0.134836
C67   C     C_R   0.585924 0.844389 0.444827 -0.092961
C68   C     C_R   0.659405 0.036236 0.800886 -0.114220
C69   C     C_R   0.564417 0.075351 0.788514 -0.157013
C70   C     C_R   0.534784 0.113857 0.715997 -0.093257
C71   C     C_3   0.330359 0.338056 0.824093 0.108384
C72   C     C_3   0.361590 0.262327 0.790406 -0.873039
C73   C     C_3   0.770347 0.501572 0.180851 0.099420
C74   C     C_3   0.854964 0.503111 0.125628 -0.861420
C75   C     C_R   0.568323 0.154162 0.578334 -0.096134
C76   C     C_R   0.547241 0.885563 0.506039 0.036190
H1    H     H_    0.819043 0.529351 0.400502 0.147311
H2    H     H_    0.473768 0.256640 0.375810 0.168639
H3    H     H_    0.425433 0.393620 0.705118 0.194373
H4    H     H_    0.656143 0.537951 0.300186 0.160020
H5    H     H_    0.725687 0.551872 0.715851 0.127700
H6    H     H_    0.733736 0.627934 0.788327 0.130283
H7    H     H_    0.726469 0.724188 0.679123 0.250823
H8    H     H_    0.834115 0.658960 0.676614 0.199324
H9    H     H_    0.717193 0.649182 0.605207 0.241526
H10   H     H_    0.395794 0.345451 0.286967 0.119334
H11   H     H_    0.284743 0.355636 0.209957 0.138215
H12   H     H_    0.181134 0.467086 0.598743 0.156268
H13   H     H_    0.167289 0.369884 0.316098 0.255536
H14   H     H_    0.236000 0.280161 0.322308 0.195362
H15   H     H_    0.278806 0.355053 0.392269 0.251269
H16   H     H_    0.703617 0.564732 0.962019 0.149322
H17   H     H_    0.771201 0.677374 0.040375 0.143532
H18   H     H_    0.694853 0.804817 0.007530 0.122908
H19   H     H_    0.549799 0.819545 0.895876 0.128703
H20   H     H_    0.479708 0.707349 0.817728 0.136419
H21   H     H_    0.348098 0.370029 0.048480 0.144571
H22   H     H_    0.173289 0.352527 0.969490 0.115919
H23   H     H_    0.833882 0.466492 0.651245 0.150261
H24   H     H_    0.031933 0.445029 0.980954 0.122966
H25   H     H_    0.064253 0.554882 0.073337 0.130399
H26   H     H_    0.236701 0.571892 0.154965 0.128858
H27   H     H_    0.725790 0.651774 0.449416 0.140642
H28   H     H_    0.762183 0.751286 0.455815 0.119603
H29   H     H_    0.746731 0.655639 0.301772 0.256209
H30   H     H_    0.786816 0.754213 0.313083 0.263657
H31   H     H_    0.865457 0.680458 0.366441 0.202648
H32   H     H_    0.706818 0.329128 0.605453 0.126453
H33   H     H_    0.737183 0.242536 0.663366 0.130366
H34   H     H_    0.166132 0.530871 0.348102 0.196473
H35   H     H_    0.689944 0.309494 0.785739 0.264994
H36   H     H_    0.798356 0.353435 0.743995 0.184571
H37   H     H_    0.670321 0.396181 0.726740 0.252314
H38   H     H_    0.761940 0.933388 0.467145 0.125263
H39   H     H_    0.851585 0.995987 0.362755 0.128960
H40   H     H_    0.782627 0.980942 0.218640 0.124288
H41   H     H_    0.622759 0.903263 0.178838 0.129992
H42   H     H_    0.531195 0.841038 0.282395 0.144031
H43   H     H_    0.747010 0.073489 0.622081 0.121859
H44   H     H_    0.798355 0.005224 0.750332 0.126447
H45   H     H_    0.975332 0.537937 0.337338 0.137770
H46   H     H_    0.682136 0.006268 0.856968 0.119950
H47   H     H_    0.513511 0.075538 0.834947 0.125968
H48   H     H_    0.460283 0.142819 0.706422 0.132595
H49   H     H_    0.286593 0.374156 0.776306 0.105978
H50   H     H_    0.274024 0.325176 0.866930 0.154908
H51   H     H_    0.291981 0.234680 0.755969 0.204163
H52   H     H_    0.422266 0.271108 0.750109 0.282758
H53   H     H_    0.393563 0.223848 0.840340 0.256575
H54   H     H_    0.754144 0.440748 0.195077 0.134017
H55   H     H_    0.801291 0.532111 0.236890 0.128174
H56   H     H_    0.024471 0.458176 0.661762 0.132150
H57   H     H_    0.874745 0.562977 0.111440 0.244460
H58   H     H_    0.926543 0.474664 0.155634 0.217539
H59   H     H_    0.827151 0.472738 0.068839 0.250374
H60   H     H_    0.467850 0.881517 0.611652 0.155525
H61   H     H_    0.498674 0.119489 0.377879 0.152956
H62   H     H_    0.443039 0.743520 0.607626 0.187473
N1    N     N_R   0.500030 0.500030 0.707230 -0.150867
N2    N     N_R   0.499970 0.499970 0.292770 -0.135048
O1    O     O_R   0.500000 0.389130 0.566570 -0.577994
O2    O     O_3   0.324885 0.453367 0.276960 -0.596310
O3    O     O_3   0.616749 0.722971 0.386503 -0.598202
O4    O     O_3   0.579797 0.274249 0.647778 -0.613105
O5    O     O_3   0.418962 0.374039 0.867434 -0.610454
O6    O     O_3   0.680256 0.538653 0.142123 -0.606633
O7    O     O_R   0.500000 0.610870 0.433430 -0.570589
O8    O     O_R   0.499990 0.389100 0.433480 -0.623687
O9    O     O_R   0.500010 0.610900 0.566520 -0.565337
O10   O     O_R   0.346360 0.500000 0.555540 -0.632886
O11   O     O_R   0.653640 0.500000 0.444460 -0.634280
O12   O     O_R   0.346350 0.499970 0.422460 -0.561700
O13   O     O_R   0.653650 0.500030 0.577540 -0.622828
O14   O     O_3   0.590573 0.618588 0.714981 -0.589906
Zn1   Zn    Zn3+2 0.500000 0.500020 0.588860 0.971680
Zn2   Zn    Zn3+2 0.500000 0.499980 0.411140 0.985829

loop_
_geom_bond_atom_site_label_1
_geom_bond_atom_site_label_2
_ccdc_geom_bond_type
C66   C68   A    
C73   H55   S    
C34   C56   A    
C16   C21   S    
C23   C45   A    
C27   C29   A    
C42   H17   S    
C41   C42   A    
C14   C18   S    
O7    Zn2   S    
C17   O13   A    
C43   H18   S    
C36   O14   S    
C72   H53   S    
C53   C54   S    
C15   C19   S    
C48   H21   S    
C12   C23   S    
C52   H26   S    
C29   C30   A    
C27   H12   S    
C72   H52   S    
C12   O7    A    
C37   H9    S    
C36   C37   S    
C24   C26   A    
C18   C19   T    
C69   C70   A    
C10   O2    S    
C38   C39   S    
C6    O6    S    
C11   C14   A    
C45   O3    S    
C57   H36   S    
C69   H47   S    
C53   H28   S    
C74   H57   S    
C49   H22   S    
C17   C20   S    
C2    C32   A    
C34   C35   A    
C73   C74   S    
C24   C29   A    
C62   H41   S    
C6    C15   A    
C13   C47   S    
O12   Zn2   S    
C36   H6    S    
C68   C69   A    
C23   C33   A    
C22   C25   A    
C45   C67   A    
C31   C33   A    
C71   H50   S    
C64   C70   A    
O13   Zn1   S    
C33   H62   S    
C39   H14   S    
C26   H23   S    
C21   C27   A    
C59   C60   A    
C56   C75   A    
C66   H44   S    
C55   H33   S    
C38   O2    S    
C17   O11   A    
C10   N2    A    
C39   H15   S    
C44   C46   A    
C1    C34   S    
C5    O5    S    
C54   H30   S    
C72   H51   S    
C51   C52   A    
C32   C35   A    
C68   H46   S    
C5    C7    A    
C63   H42   S    
O1    Zn1   S    
C57   H37   S    
C20   C28   A    
C58   C59   A    
C60   C61   A    
C53   O3    S    
C2    C4    S    
C43   C44   A    
C62   C63   A    
C3    C76   S    
C24   H56   S    
C47   C48   A    
N1    Zn1   S    
C36   H5    S    
C74   H59   S    
C61   H40   S    
C50   C51   A    
C65   H43   S    
C16   O12   A    
O11   Zn2   S    
C28   H1    S    
C9    C11   A    
C5    C14   A    
C55   H32   S    
C25   H34   S    
N2    Zn2   S    
C54   H31   S    
C48   C49   A    
C71   O5    S    
C38   H10   S    
C9    O14   S    
C49   C50   A    
O10   Zn1   S    
C55   C57   S    
C42   C43   A    
C40   C46   A    
C3    C4    T    
C22   H45   S    
C7    H3    S    
C58   C63   A    
C21   C25   A    
C73   H54   S    
C40   C41   A    
C55   O4    S    
C22   C30   A    
C54   H29   S    
C12   O9    A    
C71   H49   S    
C31   H60   S    
C1    O8    A    
C10   C13   A    
C6    C8    A    
C47   C52   A    
C37   H8    S    
C51   H25   S    
C38   H11   S    
C35   H2    S    
C50   H24   S    
C73   O6    S    
C8    N2    A    
C64   C65   A    
C13   C15   A    
O9    Zn1   S    
C71   C72   S    
C44   H19   S    
C7    N1    A    
C9    N1    A    
C11   C40   S    
C31   C76   A    
C57   H35   S    
C20   C26   A    
C53   H27   S    
C59   H38   S    
C74   H58   S    
C28   C30   A    
C64   C75   S    
C61   C62   A    
C1    O1    A    
C56   O4    S    
C70   H48   S    
C58   C67   S    
C32   H61   S    
C41   H16   S    
C46   H20   S    
C65   C66   A    
C8    H4    S    
C37   H7    S    
C60   H39   S    
C16   O10   A    
C67   C76   A    
O8    Zn2   S    
C39   H13   S    
C2    C75   A    
