data_mof_unit_41979.cif
_audit_creation_date              2012-12-10T16:47:57-0500
_audit_creation_method            fapswitch 2.2
_symmetry_space_group_name_H-M    P1
_symmetry_Int_Tables_number       1
_space_group_crystal_system       triclinic
_cell_length_a                    7.899315
_cell_length_b                    8.608589
_cell_length_c                    10.672358
_cell_angle_alpha                 93.080187
_cell_angle_beta                  86.756642
_cell_angle_gamma                 91.70816
_cell_volume                      723.271107263

loop_
_atom_site_label
_atom_site_type_symbol
_atom_type_description
_atom_site_fract_x
_atom_site_fract_y
_atom_site_fract_z
_atom_type_partial_charge
C1    C     C_R   0.542457 0.792663 0.491537 0.866071
C2    C     C_2   0.558008 0.948408 0.459323 0.252550
C3    C     C_2   0.438545 0.043734 0.508698 -0.427137
C4    C     C_R   0.503991 0.504156 0.737139 0.945408
C5    C     C_R   0.456910 0.205980 0.500057 0.982452
C6    C     C_R   0.499527 0.515676 0.264246 0.860190
C7    C     C_2   0.638530 0.535485 0.063040 -0.271477
C8    C     C_2   0.505212 0.573920 0.140081 0.230269
C9    C     C_2   0.641629 0.564818 0.932449 0.510159
C10   C     C_2   0.512626 0.500969 0.869504 -0.394033
H1    H     H_    0.738051 0.462639 0.090821 0.219609
H2    H     H_    0.409345 0.438360 0.918469 0.163298
H3    H     H_    0.333718 0.003279 0.570342 0.169465
H4    H     H_    0.988472 0.604218 0.606018 0.223718
H5    H     H_    0.210185 0.891387 0.214288 0.393365
H6    H     H_    0.978658 0.861506 0.944454 0.397052
H7    H     H_    0.876322 0.802174 0.277714 0.395539
H8    H     H_    0.202247 0.241519 0.220670 0.363465
N1    N     N_2   0.950320 0.457950 0.466680 0.090566
N2    N     N_2   0.049680 0.542050 0.533320 -0.117735
O1    O     O_R   0.389250 0.738570 0.508180 -0.621559
O2    O     O_2   0.225380 0.656143 0.029499 -0.243612
O3    O     O_3   0.281569 0.807845 0.240952 -0.513110
O4    O     O_2   0.956757 0.568289 0.831260 -0.299860
O5    O     O_2   0.767380 0.765456 0.761615 -0.331635
O6    O     O_3   0.882232 0.802871 0.984516 -0.427941
O7    O     O_2   0.633453 0.099869 0.249842 -0.218505
O8    O     O_2   0.864020 0.063485 0.392014 -0.256894
O9    O     O_3   0.762631 0.827505 0.251358 -0.487414
O10   O     O_2   0.878332 0.309555 0.250757 -0.210160
O11   O     O_2   0.066770 0.533435 0.241193 -0.246998
O12   O     O_R   0.678390 0.711630 0.486820 -0.611206
O13   O     O_3   0.176242 0.267634 0.311113 -0.505755
O14   O     O_R   0.355470 0.513470 0.691600 -0.591986
O15   O     O_R   0.644610 0.486520 0.670240 -0.603970
O16   O     O_R   0.321610 0.288370 0.513180 -0.566345
O17   O     O_R   0.610750 0.261430 0.491820 -0.567574
O18   O     O_R   0.355390 0.513480 0.329760 -0.515544
O19   O     O_R   0.644530 0.486530 0.308400 -0.580621
O20   O     O_2   0.461860 0.846105 0.033913 -0.227996
S1    S     S_3+6 0.365605 0.723829 0.106566 0.094284
S2    S     S_3+6 0.815557 0.676390 0.871004 0.090597
S3    S     S_3+6 0.708437 0.990966 0.335774 0.118861
S4    S     S_3+6 0.018650 0.394547 0.315556 0.207711
Zn1   Zn    Zn3+2 0.306940 0.517990 0.514260 1.124422
Zn2   Zn    Zn3+2 0.693060 0.482010 0.485740 1.140016

loop_
_geom_bond_atom_site_label_1
_geom_bond_atom_site_label_2
_ccdc_geom_bond_type
O5    S2    D    
C6    O18   A    
C1    O1    A    
C5    O17   A    
O4    S2    D    
C9    C10   D    
O8    S3    D    
N2    Zn1   S    
O3    S1    S    
C2    S3    S    
H5    O3    S    
C2    C3    D    
N1    Zn2   S    
O16   Zn1   S    
O14   Zn1   S    
O9    S3    S    
C7    H1    S    
O15   Zn2   S    
O10   S4    D    
C9    S2    S    
C10   H2    S    
O19   Zn2   S    
O20   S1    D    
O1    Zn1   S    
H6    O6    S    
H8    O13   S    
C4    O14   A    
C4    O15   A    
O2    S1    D    
O11   S4    D    
C4    C10   S    
C5    O16   A    
H4    N2    S    
C7    C8    D    
H7    O9    S    
N1    S4    S    
O6    S2    S    
C1    C2    S    
C7    C9    S    
O7    S3    D    
C6    O19   A    
O18   Zn1   S    
C6    C8    S    
C8    S1    S    
O17   Zn2   S    
O13   S4    S    
O12   Zn2   S    
C1    O12   A    
N1    N2    D    
C3    C5    S    
C3    H3    S    
