data_mof_unit_49919.cif
_audit_creation_date              2012-12-10T19:47:24-0500
_audit_creation_method            fapswitch 2.2
_symmetry_space_group_name_H-M    P1
_symmetry_Int_Tables_number       1
_space_group_crystal_system       triclinic
_cell_length_a                    10.918091
_cell_length_b                    10.91152
_cell_length_c                    12.740044
_cell_angle_alpha                 91.02445
_cell_angle_beta                  91.601077
_cell_angle_gamma                 90.103761
_cell_volume                      1516.92014713

loop_
_atom_site_label
_atom_site_type_symbol
_atom_type_description
_atom_site_fract_x
_atom_site_fract_y
_atom_site_fract_z
_atom_type_partial_charge
C1    C     C_R   0.262038 0.497416 0.502003 0.826889
C2    C     C_R   0.738164 0.500783 0.498260 0.796153
C3    C     C_R   0.504130 0.872130 0.494404 -0.204814
C4    C     C_R   0.488365 0.128090 0.505806 -0.207815
C5    C     C_R   0.450900 0.936640 0.409204 -0.170074
C6    C     C_R   0.538466 0.063171 0.591613 -0.166416
C7    C     C_R   0.212983 0.428141 0.856888 -0.212235
C8    C     C_R   0.800764 0.522985 0.134270 -0.135435
C9    C     C_R   0.172933 0.421150 0.751339 0.304936
C10   C     C_R   0.854277 0.547890 0.233632 0.300582
C11   C     C_R   0.120209 0.525512 0.703965 0.096802
C12   C     C_R   0.877658 0.449581 0.302019 0.062272
C13   C     C_R   0.110021 0.634788 0.762778 -0.202658
C14   C     C_R   0.845094 0.329599 0.271401 -0.142031
C15   C     C_R   0.151008 0.640559 0.867344 -0.121024
C16   C     C_R   0.789749 0.306797 0.173147 -0.129723
C17   C     C_R   0.200803 0.537060 0.914851 -0.151852
C18   C     C_R   0.768173 0.403423 0.104888 -0.195228
C19   C     C_R   0.936654 0.527321 0.590271 -0.256135
C20   C     C_R   0.064097 0.469350 0.410363 -0.226553
C21   C     C_R   0.872075 0.500737 0.496296 -0.060739
C22   C     C_R   0.128550 0.493548 0.504960 -0.033485
C23   C     C_R   0.494575 0.262059 0.502440 0.869192
C24   C     C_R   0.502726 0.738071 0.497568 0.865425
C25   C     C_R   0.937184 0.471083 0.405462 -0.022611
C26   C     C_R   0.063405 0.517852 0.597280 0.020431
C27   C     C_2   0.475313 0.459009 0.032335 -0.298945
C28   C     C_2   0.523863 0.542186 0.967710 -0.297006
C29   C     C_1   0.521325 0.527902 0.852370 0.229726
C30   C     C_1   0.478144 0.472749 0.147636 0.243905
C31   C     C_R   0.703281 0.202180 0.831452 0.254177
C32   C     C_R   0.282868 0.771655 0.181240 0.241046
C33   C     C_R   0.676388 0.171767 0.725551 0.398140
C34   C     C_R   0.312491 0.811956 0.284435 0.368440
C35   C     C_R   0.559866 0.121150 0.696935 -0.184757
C36   C     C_R   0.424079 0.877142 0.304785 -0.172603
C37   C     C_R   0.470854 0.104623 0.775103 0.391101
C38   C     C_R   0.503250 0.900832 0.220226 0.395726
C39   C     C_R   0.499448 0.135407 0.879900 0.432910
C40   C     C_R   0.472525 0.857866 0.118743 0.401452
C41   C     C_R   0.615862 0.181688 0.907641 -0.460502
C42   C     C_R   0.362845 0.793450 0.099992 -0.411021
C43   C     C_R   0.553549 0.936058 0.582801 0.404656
C44   C     C_R   0.437294 0.064401 0.417892 0.393736
Cu1   Cu    Cu3+1 0.492140 0.492110 0.395880 1.007496
Cu2   Cu    Cu3+1 0.507860 0.507890 0.604120 1.005065
H1    H     H_    0.638474 0.200851 0.989294 0.175086
H2    H     H_    0.338241 0.761598 0.021236 0.188767
H3    H     H_    0.068875 0.715159 0.727796 0.154859
H4    H     H_    0.862275 0.254075 0.323842 0.138301
H5    H     H_    0.142834 0.725237 0.911565 0.161461
H6    H     H_    0.764019 0.214202 0.149971 0.166664
H7    H     H_    0.888018 0.552610 0.660343 0.167520
H8    H     H_    0.112384 0.449496 0.338776 0.168969
H9    H     H_    0.567054 0.623863 0.001561 0.177152
H10   H     H_    0.433773 0.376508 0.998752 0.174417
H11   H     H_    0.230363 0.541376 0.996550 0.177561
H12   H     H_    0.724674 0.386445 0.029354 0.163633
H13   H     H_    0.252182 0.348384 0.894152 0.163015
H14   H     H_    0.784499 0.596157 0.079393 0.137434
N1    N     N_1   0.480320 0.480250 0.239400 -0.154882
N2    N     N_1   0.519680 0.519750 0.760600 -0.158302
O1    O     O_R   0.313000 0.493330 0.412070 -0.574617
O2    O     O_R   0.687000 0.506670 0.587930 -0.579656
O3    O     O_R   0.326280 0.506660 0.587930 -0.584212
O4    O     O_R   0.673720 0.493340 0.412070 -0.584955
O5    O     O_R   0.493370 0.312980 0.412070 -0.513296
O6    O     O_R   0.506630 0.687020 0.587930 -0.508590
O7    O     O_R   0.506650 0.326310 0.587930 -0.602528
O8    O     O_R   0.493350 0.673690 0.412070 -0.603235
N3    N     N_2   0.821602 0.246982 0.862567 -0.395683
H15   H     H_    0.846282 0.231753 0.939956 0.251059
C45   C     C_3   0.846951 0.370848 0.830815 -0.639239
H16   H     H_    0.939712 0.398736 0.860002 0.226648
H17   H     H_    0.778895 0.435835 0.862900 0.206201
H18   H     H_    0.843758 0.376153 0.744323 0.269995
N4    N     N_2   0.168856 0.713708 0.156585 -0.426581
H19   H     H_    0.138507 0.656298 0.213813 0.288329
C46   C     C_3   0.075128 0.797146 0.119229 -0.624138
H20   H     H_    0.996103 0.743968 0.085773 0.239160
H21   H     H_    0.110317 0.856389 0.056713 0.225477
H22   H     H_    0.043852 0.856433 0.185022 0.253499
O9    O     O_3   0.768917 0.184271 0.654457 -0.739650
H23   H     H_    0.736401 0.171013 0.581958 0.317356
O10   O     O_3   0.227758 0.790764 0.360919 -0.747764
H24   H     H_    0.258111 0.822998 0.429788 0.324074
O11   O     O_3   0.357099 0.052309 0.753748 -0.692874
H25   H     H_    0.340221 0.048292 0.677124 0.319214
O12   O     O_3   0.609241 0.970050 0.231976 -0.704245
H26   H     H_    0.632213 0.980837 0.307141 0.318707
O13   O     O_3   0.412188 0.116133 0.954331 -0.683176
H27   H     H_    0.446438 0.140619 0.024549 0.336912
O14   O     O_3   0.551134 0.882364 0.038632 -0.686063
H28   H     H_    0.515404 0.849195 0.971526 0.335806
O15   O     O_3   0.616001 0.871252 0.660147 -0.702494
H29   H     H_    0.673015 0.925906 0.700533 0.332601
O16   O     O_3   0.374691 0.129973 0.341187 -0.699740
H30   H     H_    0.317984 0.075361 0.300319 0.328328
N5    N     N_2   0.190750 0.311189 0.692139 -0.456373
H31   H     H_    0.270671 0.266601 0.712706 0.274463
C47   C     C_3   0.086433 0.229459 0.686164 -0.593238
H32   H     H_    0.108845 0.147530 0.637503 0.228064
H33   H     H_    0.006509 0.275291 0.648479 0.261053
H34   H     H_    0.062863 0.199141 0.765943 0.257603
N6    N     N_2   0.886482 0.670741 0.262870 -0.470888
H35   H     H_    0.950270 0.681328 0.323486 0.277703
C48   C     C_3   0.784957 0.754493 0.271659 -0.636861
H36   H     H_    0.820700 0.847989 0.289959 0.237689
H37   H     H_    0.724806 0.726362 0.335854 0.230706
H38   H     H_    0.731108 0.757564 0.196606 0.261197

loop_
_geom_bond_atom_site_label_1
_geom_bond_atom_site_label_2
_ccdc_geom_bond_type
O11   H25   S    
O14   H28   S    
C48   H37   S    
C45   H16   S    
C23   O7    A    
O15   H29   S    
C40   O14   S    
O16   H30   S    
C24   O8    A    
C39   C41   A    
O10   H24   S    
N6    C48   S    
C38   O12   S    
C3    C43   A    
C47   H32   S    
Cu2   N2    S    
C28   C29   S    
C35   C37   A    
C20   C25   A    
C23   O5    A    
C5    C36   S    
C6    C35   S    
C7    C9    A    
C7    H13   S    
C19   C26   A    
Cu2   O7    S    
C32   N4    S    
C18   H12   S    
O9    H23   S    
C7    C17   A    
Cu1   O5    S    
C1    O3    A    
C48   H36   S    
C31   C33   A    
C15   H5    S    
N4    H19   S    
C19   H7    S    
C40   C42   A    
C1    C22   S    
C47   H33   S    
C27   C30   S    
C45   H17   S    
C3    C24   S    
C1    O1    A    
C39   O13   S    
C28   H9    S    
C2    O2    A    
N4    C46   S    
Cu2   O3    S    
C20   H8    S    
O13   H27   S    
C46   H21   S    
C4    C23   S    
C27   H10   S    
C4    C44   A    
C11   C26   S    
C3    C5    A    
Cu1   Cu2   S    
Cu1   O1    S    
C8    C18   A    
Cu2   O2    S    
C34   O10   S    
C32   C34   A    
Cu2   O6    S    
C9    C11   A    
C44   O16   S    
C43   O15   S    
N5    H31   S    
C2    C21   S    
C41   H1    S    
C16   C18   A    
C42   H2    S    
C33   O9    S    
C10   C12   A    
C13   H3    S    
C4    C6    A    
N5    C47   S    
C5    C44   A    
C20   C22   A    
C47   H34   S    
C6    C43   A    
C13   C15   A    
C48   H38   S    
C14   C16   A    
Cu1   O4    S    
N3    C45   S    
C15   C17   A    
C21   C25   A    
C29   N2    T    
C31   C41   A    
C19   C21   A    
Cu1   O8    S    
C37   O11   S    
C16   H6    S    
C12   C14   A    
C2    O4    A    
C46   H22   S    
N6    H35   S    
C9    N5    S    
C12   C25   S    
C36   C38   A    
N3    H15   S    
C37   C39   A    
C8    H14   S    
C38   C40   A    
C11   C13   A    
C14   H4    S    
Cu1   N1    S    
C33   C35   A    
C34   C36   A    
C24   O6    A    
C46   H20   S    
C45   H18   S    
C8    C10   A    
C22   C26   A    
C30   N1    T    
C27   C28   D    
C32   C42   A    
C10   N6    S    
O12   H26   S    
C17   H11   S    
C31   N3    S    
