data_mof_unit_22159.cif
_audit_creation_date              2012-12-11T17:00:21-0500
_audit_creation_method            fapswitch 2.2
_symmetry_space_group_name_H-M    P1
_symmetry_Int_Tables_number       1
_space_group_crystal_system       triclinic
_cell_length_a                    6.96016
_cell_length_b                    13.542061
_cell_length_c                    20.280338
_cell_angle_alpha                 103.095502
_cell_angle_beta                  90.080667
_cell_angle_gamma                 90.494314
_cell_volume                      1861.72958363

loop_
_atom_site_label
_atom_site_type_symbol
_atom_type_description
_atom_site_fract_x
_atom_site_fract_y
_atom_site_fract_z
_atom_type_partial_charge
O1    O     O_R   0.506770 0.599700 0.449550 -0.538254
O2    O     O_R   0.179980 0.595740 0.587960 -0.545585
O3    O     O_R   0.004580 0.400300 0.550450 -0.537928
C1    C     C_R   0.348413 0.617753 0.615058 0.693289
O4    O     O_R   0.177380 0.611700 0.452380 -0.540433
O5    O     O_R   0.001970 0.416370 0.413900 -0.541024
C2    C     C_R   0.346377 0.638369 0.435703 0.696422
O6    O     O_R   0.509390 0.583630 0.586100 -0.537714
O7    O     O_3   0.337530 0.435890 0.487530 -0.371206
V1    V     V_3+5 0.064660 0.511890 0.502310 1.409511
O8    O     O_R   0.671950 0.404260 0.412040 -0.541584
C3    C     C_R   0.840325 0.382626 0.384825 0.693264
O9    O     O_R   0.674540 0.388300 0.547620 -0.540440
C4    C     C_R   0.842927 0.361672 0.564316 0.696145
V2    V     V_3+5 0.564030 0.488110 0.497690 1.413012
O10   O     O_3   0.841030 0.564110 0.512470 -0.371376
C5    C     C_R   0.859405 0.108655 0.610305 -0.159235
H1    H     H_    0.852860 0.158576 0.517193 0.103031
H2    H     H_    0.869093 0.982763 0.693073 0.117759
H3    H     H_    0.862587 0.029342 0.584381 0.112331
C6    C     C_R   0.850246 0.284416 0.604125 -0.031091
C7    C     C_R   0.857575 0.317565 0.930735 -0.170288
C8    C     C_R   0.851445 0.394118 0.895374 -0.119840
C9    C     C_R   0.850519 0.370619 0.824828 -0.158631
C10   C     C_R   0.855784 0.268598 0.787479 0.076637
C11   C     C_R   0.861285 0.190394 0.824181 0.070582
C12   C     C_R   0.855722 0.241569 0.715109 0.071901
C13   C     C_R   0.860263 0.137326 0.681332 0.143851
C14   C     C_R   0.865451 0.062319 0.718501 -0.207008
C15   C     C_R   0.866085 0.088248 0.788720 -0.196949
C16   C     C_R   0.851252 0.314231 0.674807 -0.212923
C17   C     C_R   0.854026 0.181845 0.571952 -0.177633
C18   C     C_R   0.862286 0.216055 0.895914 -0.074672
H4    H     H_    0.847948 0.394576 0.696437 0.090398
H5    H     H_    0.858557 0.337512 0.985598 0.101356
H6    H     H_    0.845511 0.434278 0.801305 0.105860
H7    H     H_    0.847514 0.472571 0.922878 0.118529
H8    H     H_    0.870257 0.027159 0.815064 0.107806
C19   C     C_R   0.714760 0.254341 0.202708 0.096829
C20   C     C_R   0.867632 0.187679 0.182886 -0.109039
C21   C     C_R   0.020719 0.192491 0.229122 -0.167952
H9    H     H_    0.141782 0.142524 0.216134 0.128638
C22   C     C_R   0.012575 0.256446 0.294451 -0.181587
H10   H     H_    0.128305 0.254520 0.329729 0.127030
C23   C     C_R   0.850553 0.316977 0.315622 -0.109035
C24   C     C_R   0.706302 0.317212 0.267418 0.105167
C25   C     C_3   0.495451 0.300679 0.272228 -0.411668
C26   C     C_3   0.504624 0.232571 0.201615 -0.398368
H11   H     H_    0.412837 0.371241 0.274403 0.167850
H12   H     H_    0.459708 0.258977 0.311975 0.168875
H13   H     H_    0.427816 0.263876 0.162897 0.172095
H14   H     H_    0.473640 0.151574 0.200367 0.165528
C27   C     C_R   0.499703 0.678915 0.730082 0.101865
C28   C     C_R   0.351885 0.683826 0.684194 -0.110292
C29   C     C_R   0.196488 0.748391 0.708038 -0.175919
C30   C     C_R   0.197911 0.811160 0.773746 -0.172100
H15   H     H_    0.081518 0.863677 0.788845 0.125834
C31   C     C_R   0.354997 0.811457 0.817524 -0.109934
C32   C     C_R   0.501740 0.741593 0.794923 0.100315
C33   C     C_3   0.713178 0.758850 0.792557 -0.398939
C34   C     C_3   0.710757 0.690374 0.721988 -0.406380
H16   H     H_    0.792293 0.726128 0.830113 0.171225
H17   H     H_    0.749154 0.839089 0.792976 0.166004
H18   H     H_    0.787974 0.617912 0.718767 0.165935
H19   H     H_    0.745493 0.730764 0.681461 0.168183
C35   C     C_R   0.364299 0.891403 0.389623 -0.159078
H20   H     H_    0.360533 0.841514 0.482765 0.102884
H21   H     H_    0.369063 0.017308 0.306795 0.118186
H22   H     H_    0.368108 0.970758 0.415520 0.112382
C36   C     C_R   0.355455 0.715591 0.395868 -0.031163
C37   C     C_R   0.351882 0.682264 0.069233 -0.170358
C38   C     C_R   0.347038 0.605681 0.104620 -0.119692
C39   C     C_R   0.348499 0.629206 0.175167 -0.158617
C40   C     C_R   0.354431 0.731293 0.212489 0.076585
C41   C     C_R   0.358097 0.809511 0.175761 0.070637
C42   C     C_R   0.357079 0.758379 0.284857 0.071818
C43   C     C_R   0.362403 0.862682 0.318599 0.143864
C44   C     C_R   0.365270 0.937697 0.281400 -0.207126
C45   C     C_R   0.363217 0.911706 0.211189 -0.196891
C46   C     C_R   0.354245 0.685725 0.325189 -0.213169
C47   C     C_R   0.360319 0.818209 0.428007 -0.177812
C48   C     C_R   0.357290 0.783833 0.104031 -0.074673
H23   H     H_    0.349856 0.605348 0.303584 0.091173
H24   H     H_    0.344984 0.565515 0.198711 0.105809
H25   H     H_    0.342724 0.527177 0.077132 0.118519
H26   H     H_    0.365427 0.972767 0.184807 0.107705
O11   O     O_R   0.203450 0.916320 0.913910 -0.541622
O12   O     O_R   0.535520 0.888300 0.047620 -0.539428
O13   O     O_R   0.710860 0.083650 0.086100 -0.538624
C49   C     C_R   0.366533 0.861655 0.064316 0.688391
O14   O     O_R   0.532860 0.904250 0.912040 -0.542462
O15   O     O_R   0.708190 0.099710 0.949550 -0.537428
C50   C     C_R   0.364230 0.882648 0.884797 0.697557
O16   O     O_R   0.206120 0.900260 0.050460 -0.538288
O17   O     O_3   0.375280 0.064080 0.012470 -0.370772
V3    V     V_3+5 0.648180 0.988110 0.997690 1.414651
O18   O     O_R   0.038220 0.111740 0.952370 -0.540057
C51   C     C_R   0.869819 0.138249 0.935624 0.688460
O19   O     O_R   0.040880 0.095790 0.087940 -0.545339
C52   C     C_R   0.872834 0.117060 0.115301 0.696291
V4    V     V_3+5 0.148800 0.011950 0.002300 1.410216
O20   O     O_3   0.871820 0.935920 0.987530 -0.370552
H27   H     H_    0.077943 0.754099 0.674665 0.128660
H28   H     H_    0.351808 0.662286 0.014370 0.101333

loop_
_geom_bond_atom_site_label_1
_geom_bond_atom_site_label_2
_ccdc_geom_bond_type
C37   H28   S    
O12   V3    S    
V4    O20   S    
V3    O20   S    
C39   C40   A    
C28   C29   A    
O17   V3    S    
C1    O6    A    
C2    C36   S    
C38   H25   S    
C27   C32   A    
O15   C51   A    
C25   H11   S    
C43   C44   A    
C7    H5    S    
C6    C16   A    
C9    H6    S    
C40   C42   A    
C33   H17   S    
C4    C6    S    
C13   C14   A    
C31   C50   S    
O5    C3    A    
C35   H22   S    
V2    O10   S    
O18   C51   A    
O15   V3    S    
C5    H3    S    
C30   H15   S    
C15   H8    S    
C33   H16   S    
C18   C51   S    
C21   H9    S    
C7    C18   A    
C36   C47   A    
O14   V3    S    
O11   V4    S    
C27   C34   S    
C26   H13   S    
C25   C26   S    
O16   V4    S    
C8    C9    A    
O1    V2    S    
O7    V1    S    
C39   H24   S    
C37   C48   A    
C32   C33   S    
O9    C4    A    
C21   C22   A    
O8    V2    S    
C46   H23   S    
C49   O16   A    
C25   H12   S    
H21   C44   S    
C6    C17   A    
C40   C41   A    
O13   C52   A    
C36   C46   A    
C42   C43   A    
C19   C20   A    
O4    C2    A    
C44   C45   A    
C3    C23   S    
C10   C11   A    
C8    H7    S    
C12   C16   A    
C33   C34   S    
C34   H18   S    
O2    C1    A    
C22   H10   S    
C20   C52   S    
C14   C15   A    
H20   C47   S    
O14   C50   A    
C11   C18   A    
O19   C52   A    
C29   C30   A    
C16   H4    S    
C9    C10   A    
C29   H27   S    
C22   C23   A    
O3    C4    A    
C19   C24   A    
C20   C21   A    
O19   V4    S    
O12   C49   A    
C11   C15   A    
O6    V2    S    
O9    V2    S    
H1    C17   S    
O2    V1    S    
C35   C43   A    
C24   C25   S    
C1    C28   S    
O1    C2    A    
C5    C13   A    
C42   C46   A    
C38   C39   A    
O5    V1    S    
O8    C3    A    
C41   C48   A    
C27   C28   A    
C10   C12   A    
C48   C49   S    
O13   V3    S    
C31   C32   A    
O4    V1    S    
O3    V1    S    
V1    O10   S    
C35   C47   A    
O11   C50   A    
C30   C31   A    
C34   H19   S    
O7    V2    S    
C23   C24   A    
C26   H14   S    
C37   C38   A    
C12   C13   A    
C5    C17   A    
C7    C8    A    
C41   C45   A    
C45   H26   S    
O18   V4    S    
O17   V4    S    
C19   C26   S    
H2    C14   S    
