data_mof_unit_34815.cif
_audit_creation_date              2012-12-10T20:51:26-0500
_audit_creation_method            fapswitch 2.2
_symmetry_space_group_name_H-M    P1
_symmetry_Int_Tables_number       1
_space_group_crystal_system       triclinic
_cell_length_a                    17.701077
_cell_length_b                    8.916426
_cell_length_c                    8.084243
_cell_angle_alpha                 90.023624
_cell_angle_beta                  89.943817
_cell_angle_gamma                 89.995165
_cell_volume                      1275.93812065

loop_
_atom_site_label
_atom_site_type_symbol
_atom_type_description
_atom_site_fract_x
_atom_site_fract_y
_atom_site_fract_z
_atom_type_partial_charge
C1    C     C_R   0.499925 0.217942 0.499975 1.009224
C2    C     C_R   0.849578 0.564339 0.374816 0.313518
C3    C     C_R   0.768262 0.398037 0.612454 0.265297
C4    C     C_R   0.231794 0.398265 0.386962 0.325143
C5    C     C_R   0.228888 0.582725 0.615788 0.332600
C6    C     C_R   0.771089 0.583141 0.384505 0.319855
C7    C     C_R   0.729707 0.493889 0.499361 -0.396512
C8    C     C_R   0.270300 0.493839 0.500542 -0.422952
C9    C     C_R   0.886617 0.482728 0.497812 -0.224516
C10   C     C_R   0.113401 0.482566 0.501965 -0.241637
C11   C     C_1   0.966494 0.480028 0.499173 0.256944
C12   C     C_R   0.499956 0.782050 0.500022 1.011764
C13   C     C_1   0.033523 0.479971 0.500510 0.261694
C14   C     C_1   0.499906 0.065191 0.499966 -0.070698
C15   C     C_1   0.499916 0.934818 0.500033 -0.123642
C16   C     C_R   0.353033 0.499212 0.500113 1.066960
C17   C     C_R   0.646969 0.499203 0.499872 1.063775
C18   C     C_R   0.847129 0.406060 0.621034 0.310676
C19   C     C_R   0.152913 0.406190 0.378459 0.338215
C20   C     C_R   0.150409 0.563843 0.625337 0.318489
Cl1   Cl    Cl    0.898017 0.324698 0.787323 -0.357386
Cl2   Cl    Cl    0.102002 0.325148 0.211958 -0.338369
Cl3   Cl    Cl    0.096775 0.638382 0.791820 -0.344546
Cl4   Cl    Cl    0.903183 0.639389 0.208655 -0.344615
H1    H     H_    0.787270 0.064822 0.684359 0.380388
H2    H     H_    0.255665 0.055576 0.135018 0.406273
H3    H     H_    0.360457 0.889312 0.702500 0.381557
H4    H     H_    0.639300 0.889616 0.299268 0.385813
N1    N     N_1   0.500000 0.500000 0.073640 0.033321
N2    N     N_1   0.500000 0.500000 0.926360 0.032914
O1    O     O_R   0.500000 0.285350 0.636850 -0.607334
O2    O     O_2   0.654535 0.197652 0.639661 -0.348311
O3    O     O_3   0.775748 0.117496 0.789336 -0.403313
O4    O     O_2   0.310649 0.337277 0.110989 -0.236950
O5    O     O_2   0.344767 0.197224 0.361004 -0.343847
O6    O     O_3   0.224076 0.119272 0.207917 -0.425249
O7    O     O_2   0.218703 0.842188 0.793999 -0.188686
O8    O     O_2   0.307544 0.650740 0.890136 -0.237744
O9    O     O_3   0.341749 0.807915 0.629850 -0.581293
O10   O     O_2   0.781176 0.842985 0.207188 -0.170819
O11   O     O_2   0.692171 0.651884 0.110824 -0.226415
O12   O     O_R   0.500000 0.714650 0.363150 -0.613693
O13   O     O_3   0.658312 0.808513 0.371873 -0.590265
O14   O     O_R   0.500000 0.714650 0.636850 -0.611594
O15   O     O_R   0.500000 0.285350 0.363150 -0.608672
O16   O     O_R   0.389120 0.500000 0.636930 -0.579722
O17   O     O_R   0.610880 0.500000 0.363070 -0.579963
O18   O     O_R   0.610880 0.500000 0.636930 -0.574356
O19   O     O_R   0.389120 0.500000 0.363070 -0.574736
O20   O     O_2   0.690399 0.335406 0.889235 -0.188216
S1    S     S_3+6 0.719714 0.261587 0.734859 0.123725
S2    S     S_3+6 0.280483 0.262352 0.263930 0.110918
S3    S     S_3+6 0.273554 0.723196 0.739765 0.111327
S4    S     S_3+6 0.726355 0.723949 0.261273 0.116557
Zn1   Zn    Zn3+2 0.500000 0.500000 0.682780 1.140370
Zn2   Zn    Zn3+2 0.500000 0.500000 0.317220 1.138734

loop_
_geom_bond_atom_site_label_1
_geom_bond_atom_site_label_2
_ccdc_geom_bond_type
O16   Zn1   S    
O18   Zn1   S    
C12   O12   A    
C4    C19   A    
C17   O18   A    
O2    S1    D    
C6    C7    A    
N1    Zn2   S    
O3    S1    S    
O19   Zn2   S    
C11   C13   T    
N2    Zn1   S    
H4    O13   S    
O10   S4    D    
O6    S2    S    
C20   Cl3   S    
C10   C19   A    
C4    C8    A    
O7    S3    D    
O20   S1    D    
C8    C16   S    
C5    C20   A    
C2    C6    A    
C9    C11   S    
O14   Zn1   S    
C1    O15   A    
O9    S3    S    
O8    S3    D    
H3    O9    S    
C6    S4    S    
O1    Zn1   S    
C5    S3    S    
C4    S2    S    
C12   C15   S    
C3    C7    A    
C2    Cl4   S    
O11   S4    D    
C5    C8    A    
N1    N2    T    
C18   Cl1   S    
C9    C18   A    
C1    O1    A    
C19   Cl2   S    
C16   O19   A    
C3    C18   A    
C12   O14   A    
H1    O3    S    
O5    S2    D    
H2    O6    S    
C14   C15   T    
C16   O16   A    
C3    S1    S    
C1    C14   S    
O13   S4    S    
O12   Zn2   S    
C2    C9    A    
O4    S2    D    
C17   O17   A    
O15   Zn2   S    
C10   C20   A    
O17   Zn2   S    
C7    C17   S    
C10   C13   S    
