data_mof_unit_52241.cif
_audit_creation_date              2012-12-10T18:57:12-0500
_audit_creation_method            fapswitch 2.2
_symmetry_space_group_name_H-M    P1
_symmetry_Int_Tables_number       1
_space_group_crystal_system       triclinic
_cell_length_a                    8.760413
_cell_length_b                    10.827487
_cell_length_c                    9.568006
_cell_angle_alpha                 89.757276
_cell_angle_beta                  97.491652
_cell_angle_gamma                 89.272009
_cell_volume                      899.720992539

loop_
_atom_site_label
_atom_site_type_symbol
_atom_type_description
_atom_site_fract_x
_atom_site_fract_y
_atom_site_fract_z
_atom_type_partial_charge
C1    C     C_R   0.501872 0.262866 0.500601 0.796060
C2    C     C_R   0.383181 0.941217 0.402104 0.335729
C3    C     C_R   0.487510 0.871886 0.499501 -0.180887
C4    C     C_R   0.577879 0.935267 0.606870 0.062613
C5    C     C_3   0.747684 0.927211 0.653529 -0.416228
C6    C     C_3   0.748188 0.067055 0.656429 -0.442522
C7    C     C_R   0.605384 0.567900 0.085827 0.199884
C8    C     C_R   0.406108 0.424569 0.063526 -0.031704
C9    C     C_R   0.406449 0.424302 0.914838 -0.049817
C10   C     C_R   0.603147 0.568751 0.938080 0.202583
C11   C     C_3   0.617497 0.704673 0.930914 -0.529773
C12   C     C_R   0.204113 0.498007 0.464185 0.910964
C13   C     C_3   0.621384 0.705406 0.089621 0.204587
C14   C     C_R   0.496374 0.737810 0.499345 0.906901
C15   C     C_R   0.795953 0.499395 0.535938 0.901736
C16   C     C_2   0.038595 0.496333 0.444491 -0.290615
C17   C     C_2   0.961525 0.499113 0.555853 -0.386277
C18   C     C_R   0.579516 0.062663 0.608934 0.125937
C19   C     C_R   0.494674 0.130443 0.501609 -0.121144
C20   C     C_R   0.391753 0.070145 0.401861 -0.275249
Cu1   Cu    Cu3+1 0.499990 0.499980 0.640670 0.966727
Cu2   Cu    Cu3+1 0.500010 0.500020 0.359330 1.031837
H1    H     H_    0.979738 0.493352 0.337338 0.214519
H2    H     H_    0.328485 0.364702 0.850178 0.139444
H3    H     H_    0.727297 0.729054 0.892654 0.225400
H4    H     H_    0.513051 0.751425 0.875354 0.206834
H5    H     H_    0.522078 0.754227 0.125686 0.173195
H6    H     H_    0.020344 0.501727 0.663105 0.183969
H7    H     H_    0.316426 0.123907 0.324944 0.173888
H8    H     H_    0.776820 0.886719 0.760109 0.213167
H9    H     H_    0.813427 0.887990 0.572332 0.226937
H10   H     H_    0.774040 0.105321 0.764439 0.213650
H11   H     H_    0.813616 0.108813 0.576380 0.204525
H12   H     H_    0.327828 0.365234 0.110103 0.139479
N1    N     N_R   0.500980 0.500930 0.148050 -0.212556
N2    N     N_R   0.500990 0.500890 0.852140 -0.186958
O1    O     O_R   0.500000 0.319640 0.618810 -0.589311
O2    O     O_R   0.500020 0.319680 0.381230 -0.595932
O3    O     O_R   0.274830 0.499980 0.591380 -0.592548
O4    O     O_R   0.274850 0.500020 0.353800 -0.550714
O5    O     O_R   0.499980 0.680320 0.618770 -0.598464
O6    O     O_R   0.500000 0.680360 0.381190 -0.522349
O7    O     O_R   0.725150 0.499980 0.646200 -0.588725
O8    O     O_R   0.725170 0.500020 0.408620 -0.548391
S1    S     S_3+6 0.802869 0.755522 0.175247 0.055677
O9    O     O_2   0.930024 0.675277 0.132418 -0.252043
O10   O     O_2   0.824608 0.886652 0.130749 -0.225510
O11   O     O_3   0.804907 0.749150 0.350664 -0.551757
H13   H     H_    0.912145 0.767353 0.390350 0.392781
S2    S     S_3+6 0.230846 0.877012 0.287602 0.030781
O12   O     O_2   0.193185 0.750269 0.334925 -0.270495
O13   O     O_2   0.091294 0.959017 0.287897 -0.257922
O14   O     O_3   0.276292 0.870522 0.122555 -0.507038
H14   H     H_    0.299186 0.956783 0.098343 0.335121

loop_
_geom_bond_atom_site_label_1
_geom_bond_atom_site_label_2
_ccdc_geom_bond_type
C12   O4    A    
C7    C10   A    
S2    O13   D    
C9    H2    S    
C9    N2    A    
C6    H10   S    
C19   C20   A    
Cu1   O3    S    
C6    H11   S    
C1    O1    A    
C14   O6    A    
Cu2   O4    S    
C12   O3    A    
C2    C3    A    
C4    C18   A    
Cu1   N2    S    
C8    H12   S    
O14   H14   S    
C13   S1    S    
Cu2   N1    S    
C11   C13   S    
Cu2   O6    S    
C3    C14   S    
C1    O2    A    
C14   O5    A    
Cu1   O5    S    
C4    C5    S    
O11   H13   S    
C15   O8    A    
S2    O12   D    
C16   H1    S    
C20   H7    S    
S1    O10   D    
C5    C6    S    
C6    C18   S    
Cu2   O8    S    
C1    C19   S    
S2    O14   S    
C16   C17   D    
C10   C11   S    
C11   H3    S    
C15   O7    A    
C3    C4    A    
Cu2   O2    S    
S1    O9    D    
C7    C13   S    
Cu1   O1    S    
C18   C19   A    
C5    H8    S    
S1    O11   S    
C15   C17   S    
C2    C20   A    
C13   H5    S    
C10   N2    A    
C2    S2    S    
C11   H4    S    
Cu1   Cu2   S    
C17   H6    S    
C7    N1    A    
Cu1   O7    S    
C12   C16   S    
C8    C9    A    
C5    H9    S    
C8    N1    A    
