data_mof_unit_50556.cif
_audit_creation_date              2012-12-10T19:10:35-0500
_audit_creation_method            fapswitch 2.2
_symmetry_space_group_name_H-M    P1
_symmetry_Int_Tables_number       1
_space_group_crystal_system       triclinic
_cell_length_a                    10.632935
_cell_length_b                    9.698404
_cell_length_c                    15.722375
_cell_angle_alpha                 89.964381
_cell_angle_beta                  89.991963
_cell_angle_gamma                 89.817598
_cell_volume                      1621.32206079

loop_
_atom_site_label
_atom_site_type_symbol
_atom_type_description
_atom_site_fract_x
_atom_site_fract_y
_atom_site_fract_z
_atom_type_partial_charge
C1    C     C_R   0.257796 0.500389 0.501858 0.849139
C2    C     C_3   0.928032 0.396055 0.566264 -0.418312
C3    C     C_3   0.076563 0.468262 0.409352 -0.409590
C4    C     C_3   0.121721 0.501061 0.500740 0.123131
C5    C     C_3   0.879392 0.498835 0.497637 0.089355
C6    C     C_R   0.500226 0.500005 0.338206 0.924117
C7    C     C_3   0.929731 0.453089 0.406813 0.435671
C8    C     C_3   0.378640 0.082418 0.465473 0.398300
C9    C     C_3   0.378072 0.918499 0.466482 0.394366
C10   C     C_3   0.602706 0.080903 0.444622 -0.238626
C11   C     C_3   0.601762 0.918546 0.443811 -0.223786
C12   C     C_3   0.619737 0.506489 0.953461 -0.421371
C13   C     C_3   0.517973 0.081053 0.585044 -0.381292
C14   C     C_3   0.519215 0.918679 0.584927 -0.380370
C15   C     C_R   0.742666 0.499790 0.499475 0.841005
C16   C     C_R   0.499848 0.499949 0.661872 0.901510
C17   C     C_3   0.411717 0.634258 0.048707 0.569474
C18   C     C_3   0.408282 0.364351 0.048569 0.559305
C19   C     C_3   0.422314 0.364403 0.949074 -0.523473
C20   C     C_3   0.407441 0.623556 0.949301 -0.475476
C21   C     C_1   0.495347 0.499749 0.750787 -0.218494
C22   C     C_3   0.476593 0.498148 0.082987 0.226249
C23   C     C_3   0.615476 0.495732 0.050780 -0.411441
C24   C     C_3   0.485169 0.498634 0.917633 0.238464
C25   C     C_3   0.893796 0.504862 0.252574 -0.819132
C26   C     C_3   0.965809 0.204673 0.354120 -0.864311
C27   C     C_3   0.213581 0.773478 0.061512 -0.826958
C28   C     C_3   0.238302 0.323901 0.157867 -0.760218
C29   C     C_1   0.490548 0.499301 0.826106 -0.064074
C30   C     C_1   0.484668 0.498808 0.174544 0.001898
C31   C     C_1   0.493115 0.499795 0.249622 -0.160732
C32   C     C_3   0.071016 0.645036 0.526623 -0.421858
C33   C     C_3   0.071758 0.391580 0.564122 -0.404856
C34   C     C_3   0.928394 0.644597 0.523697 -0.458747
H1    H     H_    0.308937 0.610326 0.926833 0.171027
H2    H     H_    0.591437 0.880961 0.377405 0.209020
H3    H     H_    0.607672 0.119995 0.612272 0.186184
H4    H     H_    0.610135 0.880561 0.611105 0.184901
H5    H     H_    0.441786 0.118458 0.627780 0.161653
H6    H     H_    0.444640 0.880288 0.628462 0.163114
H7    H     H_    0.695150 0.117082 0.468830 0.147075
H8    H     H_    0.694472 0.879707 0.466245 0.133907
H9    H     H_    0.480298 0.274717 0.928203 0.191965
H10   H     H_    0.443218 0.719893 0.919458 0.165089
H11   H     H_    0.670696 0.582009 0.078674 0.209550
H12   H     H_    0.329971 0.352684 0.916624 0.143213
H13   H     H_    0.663463 0.398990 0.071159 0.211933
H14   H     H_    0.664147 0.605733 0.934557 0.191124
H15   H     H_    0.678877 0.421462 0.927399 0.178564
H16   H     H_    0.105966 0.726257 0.482508 0.176436
H17   H     H_    0.102832 0.286517 0.544626 0.179508
H18   H     H_    0.103424 0.671860 0.591906 0.173629
H19   H     H_    0.109474 0.411162 0.629054 0.156265
H20   H     H_    0.891684 0.672708 0.587800 0.183617
H21   H     H_    0.895760 0.428762 0.630587 0.160997
H22   H     H_    0.895602 0.647687 0.349716 0.213638
H23   H     H_    0.895240 0.726719 0.479766 0.167958
H24   H     H_    0.852646 0.585631 0.210795 0.240071
H25   H     H_    0.843673 0.407289 0.238778 0.259223
H26   H     H_    0.995112 0.493812 0.236841 0.243470
H27   H     H_    0.794225 0.303589 0.371502 0.242566
H28   H     H_    0.908323 0.112064 0.339842 0.233940
H29   H     H_    0.038903 0.172318 0.400410 0.233158
H30   H     H_    0.008812 0.241003 0.293876 0.254449
H31   H     H_    0.263967 0.127692 0.373074 0.303405
H32   H     H_    0.259792 0.871476 0.376757 0.301162
H33   H     H_    0.277360 0.630724 0.147736 0.237861
H34   H     H_    0.891052 0.290195 0.555765 0.194125
H35   H     H_    0.113243 0.758129 0.078512 0.246522
H36   H     H_    0.218597 0.796275 0.992486 0.229946
H37   H     H_    0.249280 0.863366 0.097915 0.254296
H38   H     H_    0.218563 0.308081 0.028681 0.207936
H39   H     H_    0.134904 0.308696 0.160929 0.214117
H40   H     H_    0.260369 0.407313 0.203183 0.231097
H41   H     H_    0.284040 0.226265 0.178194 0.282630
H42   H     H_    0.425024 0.164040 0.058801 0.330461
H43   H     H_    0.455249 0.831723 0.044611 0.340089
H44   H     H_    0.106438 0.554554 0.367228 0.145367
H45   H     H_    0.128498 0.378136 0.384308 0.177341
H46   H     H_    0.301418 0.118774 0.508156 0.001744
H47   H     H_    0.302028 0.884622 0.510771 -0.000083
H48   H     H_    0.594951 0.120659 0.378500 0.205317
N1    N     N_3   0.499750 0.138610 0.498180 -0.054527
N2    N     N_3   0.499750 0.861390 0.498180 -0.054318
N3    N     N_2   0.877631 0.544413 0.340907 -0.332209
N4    N     N_2   0.886557 0.310714 0.391101 -0.289164
N5    N     N_2   0.284336 0.650279 0.083514 -0.293891
N6    N     N_2   0.273880 0.360845 0.071535 -0.324956
O1    O     O_R   0.314910 0.616040 0.499980 -0.616286
O2    O     O_3   0.352135 0.864729 0.385284 -0.712266
O3    O     O_3   0.469428 0.246264 0.081351 -0.768678
O4    O     O_3   0.486027 0.747722 0.074106 -0.770146
O5    O     O_R   0.314910 0.383960 0.499980 -0.619754
O6    O     O_R   0.500120 0.616090 0.377110 -0.565427
O7    O     O_R   0.500120 0.383910 0.377110 -0.573871
O8    O     O_R   0.685320 0.616040 0.499960 -0.634922
O9    O     O_R   0.685320 0.383960 0.499960 -0.644273
O10   O     O_R   0.500110 0.615990 0.622830 -0.628628
O11   O     O_R   0.500110 0.384010 0.622830 -0.627069
O12   O     O_3   0.355868 0.134049 0.383220 -0.714998
Zn1   Zn    Zn3+2 0.500150 0.654960 0.499960 0.945805
Zn2   Zn    Zn3+2 0.500150 0.345040 0.499960 0.940137

loop_
_geom_bond_atom_site_label_1
_geom_bond_atom_site_label_2
_ccdc_geom_bond_type
H43   O4    S    
C16   C21   S    
C23   H11   S    
N1    Zn2   S    
C8    N1    S    
C14   N2    S    
C12   H14   S    
C3    H45   S    
C12   H15   S    
C19   H12   S    
H32   O2    S    
C12   C23   S    
C18   O3    S    
C11   H2    S    
C3    C7    S    
C2    H21   S    
C30   C31   T    
C7    N4    S    
C10   N1    S    
C17   C20   S    
C11   H8    S    
C18   C19   S    
C26   H30   S    
C24   C29   S    
C32   H18   S    
H38   N6    S    
C20   H1    S    
C20   C24   S    
O6    Zn1   S    
C8    C9    S    
C6    O6    A    
C28   N6    S    
C34   H23   S    
C25   H26   S    
C13   H3    S    
O9    Zn2   S    
C27   H35   S    
O7    Zn2   S    
C6    C31   S    
C28   H40   S    
C18   C22   S    
C13   C14   S    
C10   H7    S    
N2    Zn1   S    
C17   O4    S    
C15   O9    A    
C28   H39   S    
C20   H10   S    
C19   H9    S    
C33   H19   S    
C23   H13   S    
H27   N4    S    
C15   O8    A    
C5    C7    S    
C9    N2    S    
C21   C29   T    
C10   H48   S    
C18   N6    S    
C32   C34   S    
C9    O2    S    
C26   H29   S    
C14   H4    S    
C26   N4    S    
C5    C15   S    
C5    C34   S    
C25   N3    S    
C27   N5    S    
C32   H16   S    
C4    C32   S    
C27   H36   S    
C2    C33   S    
C34   H20   S    
C2    C5    S    
C25   H24   S    
C3    C4    S    
C27   H37   S    
C12   C24   S    
C4    C33   S    
C1    O1    A    
C22   C30   S    
O1    Zn1   S    
C17   N5    S    
H33   N5    S    
H31   O12   S    
O5    Zn2   S    
C16   O11   A    
C11   N2    S    
C33   H17   S    
O10   Zn1   S    
C13   N1    S    
C2    H34   S    
C17   C22   S    
C1    C4    S    
C19   C24   S    
C26   H28   S    
C28   H41   S    
C16   O10   A    
H22   N3    S    
C7    N3    S    
C8    O12   S    
C13   H5    S    
C10   C11   S    
H42   O3    S    
C14   H6    S    
O11   Zn2   S    
C1    O5    A    
C6    O7    A    
C8    H46   S    
C22   C23   S    
C25   H25   S    
O8    Zn1   S    
C3    H44   S    
C9    H47   S    
