data_mof_unit_18775.cif
_audit_creation_date              2013-03-05T16:36:37-0500
_audit_creation_method            fapswitch 2.2
_symmetry_space_group_name_H-M    P1
_symmetry_Int_Tables_number       1
_space_group_crystal_system       triclinic
_cell_length_a                    17.752275
_cell_length_b                    9.096495
_cell_length_c                    7.781952
_cell_angle_alpha                 89.998339
_cell_angle_beta                  89.997341
_cell_angle_gamma                 90.002067
_cell_volume                      1256.65669349

loop_
_atom_site_label
_atom_site_type_symbol
_atom_site_description
_atom_site_fract_x
_atom_site_fract_y
_atom_site_fract_z
_atom_type_partial_charge
O1    O     O_R   0.500000 0.288390 0.642760 -0.576703
O2    O     O_R   0.500000 0.711610 0.357240 -0.575130
O3    O     O_R   0.500000 0.711610 0.642760 -0.576757
O4    O     O_R   0.500000 0.288390 0.357240 -0.576282
C1    C     C_R   0.499995 0.220000 0.500001 0.840762
C2    C     C_R   0.499999 0.780000 0.499998 0.841797
O5    O     O_R   0.391250 0.500000 0.642840 -0.540613
O6    O     O_R   0.608750 0.500000 0.357160 -0.539009
O7    O     O_R   0.608750 0.500000 0.642840 -0.538350
O8    O     O_R   0.391250 0.500000 0.357160 -0.540067
C3    C     C_1   0.499994 0.065361 0.500001 -0.098051
C4    C     C_1   0.499995 0.934638 0.499997 -0.097446
C5    C     C_R   0.355281 0.500848 0.499943 0.937538
C6    C     C_R   0.644759 0.499680 0.499914 0.934106
Cu1   Cu    Cu3+1 0.500000 0.500000 0.669080 1.129209
Cu2   Cu    Cu3+1 0.500000 0.500000 0.330920 1.130165
C7    C     C_R   0.846296 0.581288 0.623904 0.228131
C8    C     C_R   0.155731 0.589447 0.368509 0.231528
C9    C     C_R   0.152647 0.432726 0.625280 0.224468
C10   C     C_R   0.845601 0.433500 0.359949 0.231033
C11   C     C_R   0.767418 0.574080 0.628555 0.516791
C12   C     C_R   0.234586 0.584563 0.371561 0.517182
C13   C     C_R   0.231623 0.430388 0.626302 0.522047
C14   C     C_R   0.766758 0.429955 0.365799 0.524269
C15   C     C_R   0.727522 0.500424 0.498901 -0.392004
C16   C     C_R   0.272615 0.504913 0.499232 -0.389252
C17   C     C_R   0.885387 0.511118 0.488488 -0.297483
C18   C     C_R   0.114684 0.511326 0.494604 -0.295981
C19   C     C_1   0.966245 0.510637 0.488412 0.267001
C20   C     C_1   0.033852 0.511152 0.490251 0.266026
N1    N     N_1   0.500000 0.500000 0.076820 0.002389
N2    N     N_1   0.500000 0.500000 0.923180 0.001735
N3    N     N_R   0.885881 0.659556 0.757252 0.202582
O9    O     O_R   0.861318 0.656666 0.914813 -0.190247
O10   O     O_R   0.943323 0.742640 0.720256 -0.269461
N4    N     N_R   0.118430 0.675675 0.238619 0.186476
O11   O     O_R   0.146458 0.801340 0.190663 -0.203651
O12   O     O_R   0.059463 0.625140 0.159068 -0.231568
N5    N     N_R   0.111805 0.355398 0.757331 0.182161
O13   O     O_R   0.136365 0.229941 0.814934 -0.199736
O14   O     O_R   0.053209 0.414818 0.829897 -0.245171
N6    N     N_R   0.884328 0.355961 0.224869 0.184603
O15   O     O_R   0.858991 0.230168 0.170044 -0.208644
O16   O     O_R   0.941957 0.414687 0.147917 -0.229704
F1    F     F_    0.729351 0.645825 0.754775 -0.573304
F2    F     F_    0.274389 0.658099 0.249566 -0.574176
F3    F     F_    0.268593 0.355177 0.751444 -0.572209
F4    F     F_    0.728173 0.357490 0.240941 -0.571002

loop_
_geom_bond_atom_site_label_1
_geom_bond_atom_site_label_2
_geom_bond_distance
_ccdc_geom_bond_type
O4    Cu2   1.935771 S    
C9    C13   1.402176 A    
O7    C6    1.282833 A    
C19   C20   1.200282 T    
O1    Cu1   1.935783 S    
C10   C17   1.413496 A    
C17   C19   1.435422 S    
O2    Cu2   1.935782 S    
C10   N6    1.440531 S    
N1    N2    1.195620 T    
C3    C4    1.189127 T    
O3    C2    1.273273 A    
C18   C20   1.435349 S    
N3    O9    1.301602 A    
O7    Cu1   1.941320 S    
C8    C18   1.413755 A    
Cu1   N2    1.977393 S    
N5    O14   1.301190 A    
O8    Cu2   1.941320 S    
Cu2   N1    1.977393 S    
C7    N3    1.441396 S    
C9    C18   1.414061 A    
O2    C2    1.273279 A    
N6    O16   1.300185 A    
O1    C1    1.273284 A    
Cu1   Cu2   2.631546 S    
C9    N5    1.440947 S    
O5    Cu1   1.941338 S    
N4    O11   1.301335 A    
C12   F2    1.359373 S    
C1    C3    1.406669 S    
C11   F1    1.359183 S    
C6    C15   1.469259 S    
C2    C4    1.406660 S    
C5    C16   1.467991 S    
C13   F3    1.359133 S    
N6    O15   1.301429 A    
N4    O12   1.300138 A    
C7    C17   1.414039 A    
O5    C5    1.282355 A    
O3    Cu1   1.935770 S    
C14   C15   1.403190 A    
O6    Cu2   1.941338 S    
C12   C16   1.402812 A    
C13   C16   1.402432 A    
N5    O13   1.301318 A    
C11   C15   1.403074 A    
O6    C6    1.281728 A    
N3    O10   1.301482 A    
C8    C12   1.400759 A    
C8    N4    1.440656 S    
C7    C11   1.402258 A    
C10   C14   1.400756 A    
O4    C1    1.273269 A    
O8    C5    1.281529 A    
C14   F4    1.359353 S    
