data_mof_unit_64476.cif
_audit_creation_date              2012-12-10T16:53:15-0500
_audit_creation_method            fapswitch 2.2
_symmetry_space_group_name_H-M    P1
_symmetry_Int_Tables_number       1
_space_group_crystal_system       triclinic
_cell_length_a                    7.854774
_cell_length_b                    8.639602
_cell_length_c                    14.137806
_cell_angle_alpha                 91.329017
_cell_angle_beta                  84.92416
_cell_angle_gamma                 92.781763
_cell_volume                      954.360732732

loop_
_atom_site_label
_atom_site_type_symbol
_atom_type_description
_atom_site_fract_x
_atom_site_fract_y
_atom_site_fract_z
_atom_type_partial_charge
Br1   Br    Br    0.040426 0.315519 0.385597 -0.254598
Br2   Br    Br    0.959573 0.684481 0.614403 -0.254598
C1    C     C_R   0.544526 0.793895 0.497896 0.855233
C2    C     C_1   0.499858 0.499940 0.042655 0.033910
C3    C     C_2   0.568504 0.955971 0.497844 0.288494
C4    C     C_2   0.431496 0.044029 0.502156 0.288494
C5    C     C_R   0.455474 0.206105 0.502104 0.855233
C6    C     C_R   0.500146 0.500261 0.670600 0.857313
C7    C     C_R   0.499854 0.499739 0.329400 0.857313
C8    C     C_1   0.500427 0.500249 0.772106 -0.132500
C9    C     C_1   0.499572 0.499751 0.227894 -0.132501
C10   C     C_1   0.500403 0.500187 0.857407 0.018094
C11   C     C_1   0.499597 0.499813 0.142593 0.018094
C12   C     C_1   0.500142 0.500060 0.957345 0.033910
F1    F     F_    0.733551 0.014313 0.494226 -0.586475
F2    F     F_    0.266449 0.985687 0.505774 -0.586475
N1    N     N_2   0.950330 0.457950 0.476740 0.092679
N2    N     N_2   0.049670 0.542050 0.523260 0.092679
O1    O     O_R   0.389250 0.738570 0.505710 -0.561066
O2    O     O_R   0.610750 0.261430 0.494290 -0.561066
O3    O     O_R   0.678390 0.711630 0.490800 -0.550746
O4    O     O_R   0.321610 0.288370 0.509200 -0.550745
O5    O     O_R   0.355390 0.513480 0.633740 -0.592417
O6    O     O_R   0.644610 0.486520 0.366260 -0.592416
O7    O     O_R   0.644540 0.486530 0.618830 -0.584031
O8    O     O_R   0.355460 0.513470 0.381170 -0.584030
Zn1   Zn    Zn3+2 0.306930 0.517990 0.509950 1.116110
Zn2   Zn    Zn3+2 0.693070 0.482010 0.490050 1.116110

loop_
_geom_bond_atom_site_label_1
_geom_bond_atom_site_label_2
_ccdc_geom_bond_type
C7    O6    A    
C1    O1    A    
C4    C5    S    
O5    Zn1   S    
Br2   N2    S    
C5    O4    A    
C9    C11   T    
Br1   N1    S    
N1    N2    D    
O7    Zn2   S    
C6    O7    A    
C7    C9    S    
O8    Zn1   S    
C8    C10   T    
O3    Zn2   S    
C10   C12   S    
C7    O8    A    
O4    Zn1   S    
C2    C12   T    
C3    C4    D    
C1    O3    A    
C3    F1    S    
C4    F2    S    
C6    O5    A    
O1    Zn1   S    
C6    C8    S    
C5    O2    A    
C2    C11   S    
O2    Zn2   S    
N1    Zn2   S    
N2    Zn1   S    
O6    Zn2   S    
C1    C3    S    
