data_mof_unit_41780.cif
_audit_creation_date              2013-03-05T15:50:58-0500
_audit_creation_method            fapswitch 2.2
_symmetry_space_group_name_H-M    P1
_symmetry_Int_Tables_number       1
_space_group_crystal_system       triclinic
_cell_length_a                    11.697518
_cell_length_b                    10.850158
_cell_length_c                    9.645449
_cell_angle_alpha                 90.061136
_cell_angle_beta                  90.139055
_cell_angle_gamma                 94.485822
_cell_volume                      1220.4449684

loop_
_atom_site_label
_atom_site_type_symbol
_atom_site_description
_atom_site_fract_x
_atom_site_fract_y
_atom_site_fract_z
_atom_type_partial_charge
O1    O     O_R   0.499990 0.319640 0.618810 -0.603993
O2    O     O_R   0.500000 0.319660 0.381240 -0.546688
C1    C     C_R   0.508213 0.262659 0.499664 0.783936
O3    O     O_R   0.337190 0.500000 0.618790 -0.566701
O4    O     O_R   0.337200 0.500030 0.381210 -0.570695
C2    C     C_R   0.284198 0.499107 0.499868 0.789054
Cu1   Cu    Cu3+1 0.499990 0.499990 0.640660 0.991358
Cu2   Cu    Cu3+1 0.500010 0.500010 0.359340 0.982357
O5    O     O_R   0.500000 0.680340 0.618760 -0.559054
O6    O     O_R   0.500010 0.680360 0.381190 -0.604361
O7    O     O_R   0.662800 0.499970 0.618790 -0.537316
O8    O     O_R   0.662810 0.500000 0.381210 -0.585873
C3    C     C_R   0.487516 0.735754 0.500468 0.817064
C4    C     C_R   0.715504 0.496870 0.499874 0.859816
C5    C     C_1   0.162375 0.498430 0.499643 -0.153466
C6    C     C_1   0.059774 0.497643 0.499635 0.027731
C7    C     C_1   0.939842 0.496730 0.499704 0.039502
C8    C     C_1   0.837278 0.496349 0.499781 -0.116739
C9    C     C_R   0.559777 0.113247 0.749175 -0.116666
H1    H     H_    0.614977 0.197995 0.750017 0.170905
C10   C     C_R   0.538607 0.053447 0.874480 -0.205737
H2    H     H_    0.576566 0.093374 0.967310 0.203833
C11   C     C_R   0.465725 0.945887 0.879593 -0.144089
H3    H     H_    0.440876 0.907465 0.979670 0.167563
C12   C     C_R   0.428038 0.887048 0.756146 0.013350
C13   C     C_R   0.469319 0.936878 0.627365 0.022577
C14   C     C_R   0.514682 0.060988 0.625072 0.081601
C15   C     C_R   0.515735 0.127020 0.498509 -0.135699
C16   C     C_R   0.504294 0.059455 0.372687 0.010061
H4    H     H_    0.484541 0.881250 0.279052 0.163627
C17   C     C_R   0.485049 0.931875 0.376130 -0.280263
C18   C     C_R   0.472522 0.868869 0.501958 -0.130145
H5    H     H_    0.384239 0.342967 0.127450 0.123376
C19   C     C_R   0.635869 0.679245 0.152069 -0.229825
H6    H     H_    0.656234 0.669371 0.257962 0.210689
C20   C     C_R   0.681539 0.787840 0.094122 -0.111177
C21   C     C_R   0.678348 0.799237 0.952691 -0.164489
H7    H     H_    0.720316 0.882810 0.908217 0.229960
C22   C     C_R   0.636999 0.700347 0.868285 0.259622
C23   C     C_R   0.567626 0.594047 0.926720 0.159663
C24   C     C_R   0.567020 0.590138 0.076741 0.188260
N1    N     N_R   0.501070 0.501210 0.147910 -0.181508
C25   C     C_R   0.436642 0.413834 0.073150 0.008226
H8    H     H_    0.385419 0.342047 0.870945 0.136665
C26   C     C_R   0.437203 0.413347 0.925853 -0.026975
N2    N     N_R   0.501110 0.501290 0.852040 -0.184299
C27   C     C_2   0.519647 0.115513 0.234432 0.392174
H9    H     H_    0.456192 0.092560 0.154509 0.021081
O9    O     O_2   0.605189 0.183112 0.207685 -0.501628
Br1   Br    Br    0.724448 0.731986 0.700693 -0.523661
C28   C     C_2   0.335832 0.785083 0.762590 0.426793
H10   H     H_    0.290122 0.754862 0.668975 0.049569
O10   O     O_2   0.309586 0.734177 0.872186 -0.544616
C29   C     C_2   0.738651 0.885919 0.183112 0.414500
H11   H     H_    0.741426 0.873597 0.294758 0.085596
O11   O     O_2   0.782576 0.981658 0.133417 -0.504843

loop_
_geom_bond_atom_site_label_1
_geom_bond_atom_site_label_2
_geom_bond_distance
_ccdc_geom_bond_type
O4    Cu2   1.916647 S    
Cu1   O7    1.916646 S    
C11   H3    1.083208 S    
C12   C28   1.484925 S    
C13   C18   1.418338 A    
C21   H7    1.086044 S    
C9    C14   1.407601 A    
C24   N1    1.372918 A    
C4    C8    1.424908 S    
C3    C18   1.468554 S    
C17   C18   1.395980 A    
Cu2   O8    1.915502 S    
C10   C11   1.391378 A    
O2    C1    1.306425 A    
C2    C5    1.424478 S    
Cu1   Cu2   2.713459 S    
C16   C17   1.385415 A    
O1    Cu1   1.967919 S    
C10   H2    1.074113 S    
C23   N2    1.417887 A    
C25   C26   1.420783 A    
C15   C16   1.417793 A    
C13   C14   1.408463 A    
O4    C2    1.302647 A    
C19   C24   1.408948 A    
C16   C27   1.471839 S    
O3    Cu1   1.915504 S    
C5    C6    1.199534 T    
O3    C2    1.302168 A    
C20   C21   1.370572 A    
C9    C10   1.386026 A    
Cu2   N1    2.039454 S    
C7    C8    1.199437 T    
C19   C20   1.374953 A    
C11   C12   1.404098 A    
H4    C17   1.084848 S    
C21   C22   1.401097 A    
O7    C4    1.305147 A    
C29   O11   1.221306 D    
C20   C29   1.483111 S    
N1    C25   1.367807 A    
C28   O10   1.221928 D    
C28   H10   1.085520 S    
H5    C25   1.081662 S    
Cu1   N2    2.038893 S    
C14   C15   1.415725 A    
C22   Br1   1.931735 S    
H8    C26   1.081734 S    
C1    C15   1.481221 S    
C27   O9    1.221730 D    
C19   H6    1.055696 S    
C22   C23   1.470940 A    
Cu1   O5    1.968409 S    
O5    C3    1.303471 A    
C29   H11   1.086010 S    
C23   C24   1.447707 A    
O1    C1    1.311679 A    
C12   C13   1.425456 A    
C26   N2    1.366994 A    
Cu2   O6    1.967919 S    
O2    Cu2   1.968409 S    
C9    H1    1.081484 S    
O8    C4    1.300402 A    
C6    C7    1.402168 S    
C27   H9    1.084051 S    
O6    C3    1.311226 A    
