data_mof_unit_66407.cif
_audit_creation_date              2012-10-26T17:58:34-0400
_audit_creation_method            fapswitch 2.2
_symmetry_space_group_name_H-M    P1
_symmetry_Int_Tables_number       1
_space_group_crystal_system       triclinic
_cell_length_a                    37.50244
_cell_length_b                    30.382492
_cell_length_c                    21.706402
_cell_angle_alpha                 89.579919
_cell_angle_beta                  54.154872
_cell_angle_gamma                 89.707859
_cell_volume                      20047.8124374

loop_
_atom_site_label
_atom_site_type_symbol
_atom_type_description
_atom_site_fract_x
_atom_site_fract_y
_atom_site_fract_z
_atom_type_partial_charge
C1    C     C_R   0.085203 0.499880 0.414982 0.560507
C2    C     C_R   0.995750 0.500941 0.318539 0.009058
C3    C     C_R   0.013937 0.797168 0.934328 -0.094498
C4    C     C_R   0.999976 0.585047 0.000199 0.540059
C5    C     C_R   0.499978 0.085026 0.000261 0.539716
C6    C     C_R   0.499956 0.414795 0.000243 0.554437
C7    C     C_R   0.000148 0.914853 0.000050 0.579670
C8    C     C_R   0.414982 0.499644 0.085263 0.544726
C9    C     C_R   0.585014 0.499740 0.914753 0.544438
C10   C     C_R   0.914938 0.999586 0.085328 0.549683
C11   C     C_R   0.085217 0.999715 0.914449 0.564535
C12   C     C_R   0.491668 0.342532 0.064081 0.304938
C13   C     C_R   0.504243 0.999027 0.681465 0.009487
C14   C     C_R   0.507909 0.342636 0.937957 0.304588
C15   C     C_R   0.986899 0.842666 0.066663 0.306330
C16   C     C_R   0.013984 0.843008 0.933883 0.323498
C17   C     C_R   0.500041 0.585125 0.999755 0.536349
C18   C     C_R   0.000046 0.085124 0.999748 0.544889
C19   C     C_R   0.038888 0.297533 0.944201 0.234080
C20   C     C_R   0.961311 0.297240 0.051922 0.233839
C21   C     C_R   0.538873 0.797529 0.944220 0.234257
C22   C     C_R   0.461308 0.797246 0.051994 0.233598
C23   C     C_R   0.500145 0.633522 0.999183 0.012207
C24   C     C_R   0.495765 0.000934 0.318537 0.008136
C25   C     C_R   0.000158 0.133519 0.999159 0.012869
C26   C     C_R   0.038268 0.343488 0.944064 -0.127351
C27   C     C_R   0.961835 0.343151 0.053052 -0.116893
C28   C     C_R   0.538259 0.843484 0.944074 -0.126967
C29   C     C_R   0.461837 0.843156 0.053108 -0.117164
C30   C     C_R   0.000059 0.366531 0.998963 -0.078025
C31   C     C_R   0.500058 0.866532 0.998987 -0.077644
C32   C     C_R   0.499746 0.273673 0.001598 -0.089109
C33   C     C_R   0.999900 0.773871 0.000818 -0.087283
C34   C     C_R   0.499855 0.366175 0.000775 0.014233
C35   C     C_R   0.975545 0.526460 0.742669 -0.138547
C36   C     C_R   0.000337 0.866337 0.000244 0.029520
C37   C     C_R   0.000156 0.274143 0.997963 0.017240
C38   C     C_R   0.500144 0.774145 0.998013 0.017454
C39   C     C_R   0.491516 0.702676 0.061787 -0.100613
C40   C     C_R   0.509042 0.702739 0.935099 -0.101402
C41   C     C_R   0.991476 0.202679 0.061784 -0.100455
C42   C     C_R   0.009121 0.202729 0.935014 -0.101805
C43   C     C_R   0.491646 0.656826 0.062168 -0.130836
C44   C     C_R   0.508765 0.656871 0.935669 -0.131542
C45   C     C_R   0.991603 0.156829 0.062178 -0.131175
C46   C     C_R   0.024475 0.473526 0.257310 -0.136814
C47   C     C_R   0.008843 0.156861 0.935594 -0.130976
C48   C     C_R   0.064423 0.443914 0.621895 -0.086808
C49   C     C_R   0.935533 0.555996 0.378163 -0.090503
C50   C     C_R   0.564499 0.944013 0.621793 -0.084621
C51   C     C_R   0.435281 0.055678 0.378491 -0.091769
C52   C     C_R   0.090227 0.413643 0.628127 -0.096290
C53   C     C_R   0.909704 0.586249 0.371966 -0.109384
C54   C     C_R   0.590357 0.913783 0.627959 -0.093649
C55   C     C_R   0.409286 0.085802 0.372493 -0.108048
C56   C     C_R   0.085061 0.408591 0.696654 -0.114515
C57   C     C_R   0.475488 0.026408 0.742725 -0.133134
C58   C     C_R   0.914865 0.591312 0.303447 -0.113061
C59   C     C_R   0.585203 0.908717 0.696475 -0.114769
C60   C     C_R   0.414423 0.090921 0.304000 -0.112720
C61   C     C_R   0.055189 0.434893 0.758551 -0.096898
C62   C     C_R   0.944759 0.565040 0.241521 -0.094892
C63   C     C_R   0.555288 0.934965 0.758426 -0.095854
C64   C     C_R   0.444455 0.064820 0.241905 -0.095954
C65   C     C_R   0.029775 0.466975 0.752774 0.028669
C66   C     C_R   0.970199 0.532974 0.247261 0.029754
C67   C     C_R   0.529821 0.967010 0.752715 0.029611
C68   C     C_R   0.524622 0.973665 0.257167 -0.138955
C69   C     C_R   0.470052 0.032862 0.247448 0.029392
C70   C     C_3   0.381011 0.415036 0.197529 0.039738
C71   C     C_3   0.346636 0.378767 0.241619 -0.240997
C72   C     C_3   0.366067 0.333452 0.208708 -0.475031
C73   C     C_3   0.619161 0.413832 0.807415 0.037808
C74   C     C_3   0.653478 0.377317 0.765228 -0.238762
C75   C     C_3   0.634012 0.332304 0.800623 -0.473921
C76   C     C_3   0.879072 0.919956 0.210213 0.045585
C77   C     C_3   0.843129 0.885475 0.257832 -0.244373
C78   C     C_3   0.861242 0.838884 0.232649 -0.466736
C79   C     C_R   0.974002 0.524958 0.807875 -0.142665
C80   C     C_3   0.135209 0.950237 0.733940 0.054416
C81   C     C_3   0.115079 0.947127 0.689908 -0.236025
C82   C     C_3   0.067699 0.963838 0.736179 -0.354960
C83   C     C_3   0.100164 0.262155 0.919136 0.017441
C84   C     C_3   0.134690 0.296539 0.901766 -0.272141
C85   C     C_3   0.163033 0.280533 0.926786 -0.465381
C86   C     C_3   0.900464 0.262058 0.075763 0.017163
C87   C     C_3   0.866247 0.296770 0.091923 -0.271457
C88   C     C_3   0.838413 0.281328 0.065901 -0.462311
C89   C     C_3   0.600155 0.762127 0.919087 0.017414
C90   C     C_R   0.026014 0.475029 0.192107 -0.141059
C91   C     C_3   0.634740 0.796469 0.901581 -0.272695
C92   C     C_3   0.663093 0.780448 0.926572 -0.465138
C93   C     C_3   0.400438 0.762072 0.075916 0.016798
C94   C     C_3   0.366210 0.796786 0.092133 -0.272732
C95   C     C_3   0.338344 0.781349 0.066173 -0.458415
C96   C     C_R   0.473951 0.024902 0.807924 -0.140101
C97   C     C_R   0.914787 0.499932 0.585194 0.563086
C98   C     C_R   0.526149 0.975185 0.191977 -0.142360
C99   C     C_R   0.000989 0.495850 0.813338 0.005551
C100  C     C_R   0.999010 0.504126 0.186667 0.006016
C101  C     C_R   0.500989 0.995840 0.813332 0.006133
C102  C     C_R   0.499001 0.004156 0.186689 0.005619
C103  C     C_R   0.203023 0.459418 0.299931 0.474132
C104  C     C_R   0.796877 0.459809 0.704429 0.475942
C105  C     C_R   0.702982 0.959939 0.304075 0.473277
C106  C     C_R   0.297232 0.964424 0.729534 0.477740
C107  C     C_R   0.157196 0.459356 0.345657 0.401724
C108  C     C_R   0.585180 0.999897 0.415040 0.560445
C109  C     C_R   0.842706 0.459615 0.658910 0.415204
C110  C     C_R   0.657162 0.959776 0.350113 0.401202
C111  C     C_R   0.343097 0.963965 0.683034 0.412463
C112  C     C_R   0.133719 0.499423 0.366889 -0.047647
C113  C     C_R   0.866253 0.499617 0.633535 -0.046775
C114  C     C_R   0.633653 0.999546 0.366861 -0.046673
C115  C     C_R   0.366618 0.000001 0.634893 -0.040249
C116  C     C_R   0.157154 0.539261 0.341458 -0.202806
C117  C     C_R   0.842866 0.539530 0.654949 -0.212844
C118  C     C_R   0.657000 0.039209 0.336733 -0.202784
C119  C     C_R   0.414913 0.999991 0.585628 0.569913
C120  C     C_R   0.343570 0.036315 0.634147 -0.209091
C121  C     C_R   0.202995 0.539182 0.295801 -0.140161
C122  C     C_R   0.797012 0.539578 0.700591 -0.142737
C123  C     C_R   0.702830 0.039240 0.290745 -0.140116
C124  C     C_R   0.297747 0.036462 0.680008 -0.142964
C125  C     C_R   0.001830 0.499794 0.616965 0.529742
C126  C     C_R   0.998180 0.500190 0.383026 0.532119
C127  C     C_R   0.501821 0.999794 0.616973 0.535331
C128  C     C_R   0.498196 0.000188 0.383013 0.529547
C129  C     C_R   0.226125 0.499320 0.274999 0.050981
C130  C     C_R   0.032696 0.469823 0.684788 0.023064
C131  C     C_R   0.773840 0.499764 0.725265 0.052049
C132  C     C_R   0.726002 0.999677 0.274412 0.052093
C133  C     C_R   0.274456 0.000612 0.727916 0.055046
C134  C     C_R   0.297201 0.478958 0.252588 0.392836
C135  C     C_R   0.702887 0.478307 0.748730 0.392342
C136  C     C_R   0.796829 0.982712 0.254958 0.390551
C137  C     C_R   0.204359 0.998844 0.740545 0.340445
C138  C     C_R   0.343138 0.477054 0.205789 0.266610
C139  C     C_R   0.656947 0.476394 0.795551 0.266631
C140  C     C_R   0.842736 0.980501 0.208619 0.264376
C141  C     C_R   0.967282 0.530119 0.315241 0.030553
C142  C     C_R   0.158359 0.996906 0.785010 0.255749
C143  C     C_R   0.366712 0.498260 0.134008 -0.103508
C144  C     C_R   0.633279 0.498551 0.866062 -0.102758
C145  C     C_R   0.866584 0.998414 0.134208 -0.104858
C146  C     C_R   0.133847 0.999316 0.865237 -0.100900
C147  C     C_R   0.343725 0.518445 0.108660 -0.148367
C148  C     C_R   0.656155 0.519888 0.890183 -0.148837
C149  C     C_R   0.843723 0.015617 0.106382 -0.150093
C150  C     C_R   0.156388 0.001276 0.898921 -0.149903
C151  C     C_R   0.297941 0.518977 0.154608 0.325274
C152  C     C_R   0.532733 0.969867 0.684737 0.022536
C153  C     C_R   0.701944 0.520584 0.844173 0.325810
C154  C     C_R   0.797940 0.016253 0.152026 0.324028
C155  C     C_R   0.202163 0.001550 0.854329 0.371920
C156  C     C_R   0.274446 0.499343 0.226878 0.025127
C157  C     C_R   0.725529 0.499859 0.773188 0.025331
C158  C     C_R   0.774286 0.999839 0.226547 0.025802
C159  C     C_R   0.226270 0.000599 0.775030 0.030168
C160  C     C_R   0.999942 0.633308 0.000615 0.016782
C161  C     C_R   0.499955 0.133247 0.000900 0.018316
C162  C     C_R   0.037413 0.702485 0.943918 -0.105507
C163  C     C_R   0.467153 0.029974 0.315410 0.030013
C164  C     C_R   0.962447 0.702286 0.058011 -0.109276
C165  C     C_R   0.536236 0.202497 0.941666 -0.107805
C166  C     C_R   0.463660 0.202102 0.061579 -0.107625
C167  C     C_R   0.500283 0.725777 0.998236 0.051021
C168  C     C_R   0.000301 0.225775 0.998188 0.050894
C169  C     C_R   0.037551 0.656655 0.944042 -0.118535
C170  C     C_R   0.962349 0.656432 0.057558 -0.127100
C171  C     C_R   0.536441 0.156658 0.941591 -0.118528
C172  C     C_R   0.463511 0.156247 0.060842 -0.126162
C173  C     C_R   0.999903 0.725546 0.000955 0.038340
C174  C     C_R   0.004254 0.499027 0.681459 0.007704
C175  C     C_R   0.499902 0.225413 0.001732 0.038561
C176  C     C_R   0.000022 0.414877 0.999714 0.546614
C177  C     C_R   0.500022 0.914877 0.999720 0.546759
C178  C     C_R   0.000203 0.498250 0.881020 0.539852
C179  C     C_R   0.999797 0.501737 0.118981 0.541420
C180  C     C_R   0.500203 0.998242 0.881018 0.539895
C181  C     C_R   0.499795 0.001765 0.118986 0.540983
C182  C     C_R   0.491172 0.296686 0.064537 -0.105354
C183  C     C_R   0.508288 0.296814 0.938333 -0.105511
C184  C     C_R   0.986278 0.796832 0.066923 -0.101609
Cu1   Cu    Cu3+1 0.000000 0.544050 0.500000 0.945232
Cu2   Cu    Cu3+1 0.500000 0.500010 0.938200 1.039550
Cu3   Cu    Cu3+1 1.000000 0.000010 0.061800 1.037326
Cu4   Cu    Cu3+1 1.000000 0.000010 0.938200 0.962238
Cu5   Cu    Cu3+1 0.500000 0.044050 0.500000 0.949692
Cu6   Cu    Cu3+1 0.000000 0.455950 0.500000 1.101042
Cu7   Cu    Cu3+1 0.500000 0.955950 0.500000 1.094855
Cu8   Cu    Cu3+1 0.955950 0.499980 0.044050 0.953479
Cu9   Cu    Cu3+1 0.044050 0.499980 0.955950 0.952156
Cu10  Cu    Cu3+1 0.455950 0.999980 0.044050 0.955164
Cu11  Cu    Cu3+1 0.544050 0.999980 0.955950 0.950083
Cu12  Cu    Cu3+1 0.500000 0.500010 0.061800 1.038309
F1    F     F_    0.274786 0.460886 0.323318 -0.580118
F2    F     F_    0.515699 0.363596 0.875746 -0.630695
F3    F     F_    0.974150 0.863584 0.131593 -0.647459
F4    F     F_    0.028222 0.864294 0.868024 -0.640508
F5    F     F_    0.224930 0.420430 0.278766 -0.564911
F6    F     F_    0.774888 0.420944 0.729397 -0.561760
F7    F     F_    0.724966 0.921171 0.287445 -0.569137
F8    F     F_    0.274969 0.929295 0.775253 -0.546177
F9    F     F_    0.136122 0.419983 0.368694 -0.572762
F10   F     F_    0.863713 0.420190 0.640359 -0.557665
F11   F     F_    0.636108 0.920648 0.378243 -0.576248
F12   F     F_    0.725430 0.459067 0.679241 -0.577634
F13   F     F_    0.364359 0.928670 0.686159 -0.559483
F14   F     F_    0.774207 0.968015 0.327902 -0.582559
F15   F     F_    0.227674 0.997983 0.663568 -0.613759
F16   F     F_    0.276538 0.538268 0.128246 -0.611562
F17   F     F_    0.723272 0.541063 0.869255 -0.612938
F18   F     F_    0.776696 0.032471 0.123221 -0.613220
F19   F     F_    0.222996 0.003555 0.888488 -0.579477
F20   F     F_    0.483906 0.363422 0.125903 -0.633587
H1    H     H_    0.066899 0.639515 0.899464 0.138211
H2    H     H_    0.779551 0.570656 0.716235 0.167700
H3    H     H_    0.859612 0.274971 0.003784 0.160981
H4    H     H_    0.814100 0.307211 0.078097 0.167447
H5    H     H_    0.820369 0.250760 0.096630 0.160742
H6    H     H_    0.617196 0.730794 0.890805 0.165788
H7    H     H_    0.578419 0.754878 0.981378 0.123096
H8    H     H_    0.656212 0.803388 0.839490 0.183976
H9    H     H_    0.618187 0.827553 0.931800 0.161499
H10   H     H_    0.642314 0.773940 0.988759 0.159619
H11   H     H_    0.687662 0.806079 0.913423 0.163596
H12   H     H_    0.680852 0.749850 0.895941 0.160763
H13   H     H_    0.720271 0.070156 0.268335 0.171205
H14   H     H_    0.383119 0.730800 0.104418 0.166918
H15   H     H_    0.422515 0.754909 0.013756 0.123505
H16   H     H_    0.344353 0.803565 0.154126 0.187237
H17   H     H_    0.383058 0.827852 0.061761 0.164583
H18   H     H_    0.359518 0.774997 0.004055 0.164395
H19   H     H_    0.314023 0.807234 0.078411 0.170723
H20   H     H_    0.320308 0.750780 0.096910 0.161107
H21   H     H_    0.280386 0.064520 0.678322 0.160690
H22   H     H_    0.361271 0.534377 0.053475 0.179802
H23   H     H_    0.638505 0.536595 0.944401 0.178173
H24   H     H_    0.861341 0.029078 0.049355 0.180957
H25   H     H_    0.138618 0.002733 0.960076 0.186089
H26   H     H_    0.066727 0.719972 0.899793 0.124174
H27   H     H_    0.933142 0.719636 0.102273 0.112507
H28   H     H_    0.564553 0.220124 0.895281 0.115991
H29   H     H_    0.933051 0.639091 0.102058 0.125061
H30   H     H_    0.435305 0.219430 0.108201 0.113351
H31   H     H_    0.484735 0.279059 0.113669 0.154190
H32   H     H_    0.514701 0.279292 0.889482 0.155831
H33   H     H_    0.975789 0.779193 0.118523 0.151568
H34   H     H_    0.024503 0.779785 0.882816 0.154361
H35   H     H_    0.953721 0.548800 0.740362 0.141065
H36   H     H_    0.046315 0.451200 0.259601 0.147930
H37   H     H_    0.453626 0.048712 0.740458 0.142924
H38   H     H_    0.546569 0.951442 0.259344 0.146115
H39   H     H_    0.067868 0.361074 0.901109 0.145031
H40   H     H_    0.564847 0.139542 0.894714 0.135537
H41   H     H_    0.932150 0.360440 0.096273 0.156865
H42   H     H_    0.567856 0.861066 0.901098 0.144858
H43   H     H_    0.432159 0.860449 0.096343 0.155978
H44   H     H_    0.484883 0.720208 0.110776 0.142204
H45   H     H_    0.515688 0.720320 0.885793 0.141884
H46   H     H_    0.984797 0.220214 0.110803 0.143140
H47   H     H_    0.015813 0.220304 0.885671 0.141027
H48   H     H_    0.484805 0.639668 0.111925 0.142412
H49   H     H_    0.515549 0.639733 0.886278 0.141858
H50   H     H_    0.984712 0.139675 0.111973 0.142579
H51   H     H_    0.435156 0.138785 0.107439 0.122020
H52   H     H_    0.015676 0.139716 0.886173 0.140861
H53   H     H_    0.070148 0.447083 0.567136 0.155633
H54   H     H_    0.929811 0.552814 0.432918 0.137313
H55   H     H_    0.570210 0.947193 0.567046 0.159048
H56   H     H_    0.429600 0.052458 0.433210 0.133574
H57   H     H_    0.114113 0.393795 0.579702 0.155878
H58   H     H_    0.885803 0.606075 0.420410 0.121821
H59   H     H_    0.614274 0.893979 0.579494 0.158849
H60   H     H_    0.385282 0.105489 0.421066 0.122517
H61   H     H_    0.104524 0.384419 0.701740 0.129872
H62   H     H_    0.140109 0.570553 0.356762 0.166249
H63   H     H_    0.895383 0.615470 0.298388 0.117706
H64   H     H_    0.604707 0.884575 0.701511 0.129477
H65   H     H_    0.394818 0.114993 0.299088 0.118047
H66   H     H_    0.051932 0.429295 0.810860 0.135393
H67   H     H_    0.948013 0.570651 0.189219 0.133176
H68   H     H_    0.552040 0.929351 0.810723 0.135612
H69   H     H_    0.447688 0.070482 0.189634 0.132435
H70   H     H_    0.951972 0.547105 0.854079 0.138832
H71   H     H_    0.048056 0.452897 0.145886 0.138159
H72   H     H_    0.451886 0.047012 0.854166 0.139508
H73   H     H_    0.859961 0.570776 0.636363 0.159479
H74   H     H_    0.548294 0.953160 0.145646 0.137702
H75   H     H_    0.409851 0.407479 0.197949 0.225766
H76   H     H_    0.393183 0.414776 0.136733 0.106175
H77   H     H_    0.334454 0.379406 0.302208 0.216759
H78   H     H_    0.318363 0.384605 0.238764 0.226147
H79   H     H_    0.378564 0.332091 0.148011 0.159154
H80   H     H_    0.340272 0.307930 0.240772 0.167146
H81   H     H_    0.393455 0.326093 0.213356 0.183611
H82   H     H_    0.590226 0.405824 0.807710 0.225908
H83   H     H_    0.607144 0.414485 0.868119 0.104985
H84   H     H_    0.639891 0.070264 0.348490 0.166168
H85   H     H_    0.665593 0.377109 0.704661 0.219557
H86   H     H_    0.681800 0.383599 0.767633 0.227216
H87   H     H_    0.621523 0.331799 0.861365 0.159286
H88   H     H_    0.659782 0.306618 0.769949 0.171338
H89   H     H_    0.606611 0.324478 0.796404 0.181201
H90   H     H_    0.906690 0.913168 0.214396 0.228990
H91   H     H_    0.892641 0.916579 0.149003 0.114774
H92   H     H_    0.829553 0.889370 0.318759 0.217648
H93   H     H_    0.816047 0.890297 0.251486 0.225281
H94   H     H_    0.875081 0.834288 0.171753 0.160134
H95   H     H_    0.360986 0.064303 0.597287 0.148372
H96   H     H_    0.834358 0.814678 0.267051 0.164663
H97   H     H_    0.887351 0.832511 0.240978 0.193563
H98   H     H_    0.114591 0.930951 0.787776 0.153470
H99   H     H_    0.168540 0.934987 0.698287 0.165147
H100  H     H_    0.135273 0.966566 0.636400 0.186587
H101  H     H_    0.115553 0.912187 0.674613 0.139315
H102  H     H_    0.046958 0.944634 0.789718 0.216336
H103  H     H_    0.054183 0.959989 0.702684 0.125695
H104  H     H_    0.066342 0.999231 0.749838 0.188810
H105  H     H_    0.117258 0.230850 0.890805 0.165446
H106  H     H_    0.220482 0.570230 0.277046 0.171592
H107  H     H_    0.078408 0.254861 0.981410 0.123108
H108  H     H_    0.156177 0.303509 0.839693 0.184520
H109  H     H_    0.118084 0.327591 0.932053 0.161900
H110  H     H_    0.142238 0.273969 0.988956 0.159504
H111  H     H_    0.187553 0.306197 0.913745 0.164924
H112  H     H_    0.180850 0.249971 0.896084 0.158477
H113  H     H_    0.883139 0.230787 0.104260 0.166905
H114  H     H_    0.922563 0.254889 0.013606 0.122211
H115  H     H_    0.844366 0.303552 0.153912 0.188900
H116  H     H_    0.883103 0.327834 0.061557 0.162902
O1    O     O_R   0.064270 0.537190 0.435730 -0.522407
O2    O     O_R   0.564280 0.500010 0.987920 -0.517409
O3    O     O_R   0.935720 0.000010 0.012080 -0.521951
O4    O     O_R   0.064280 0.000010 0.987920 -0.517482
O5    O     O_R   0.500010 0.564280 0.052190 -0.518099
O6    O     O_R   0.499990 0.564280 0.947810 -0.518347
O7    O     O_R   0.000010 0.064280 0.052190 -0.514273
O8    O     O_R   0.999990 0.064280 0.947810 -0.518215
O9    O     O_R   0.064270 0.462800 0.435730 -0.443520
O10   O     O_R   0.935730 0.462800 0.564270 -0.425050
O11   O     O_R   0.564270 0.962800 0.435730 -0.444689
O12   O     O_R   0.935730 0.537190 0.564270 -0.538198
O13   O     O_R   0.435730 0.962800 0.564270 -0.434742
O14   O     O_R   0.000010 0.537190 0.590170 -0.513000
O15   O     O_R   0.999990 0.537190 0.409830 -0.520389
O16   O     O_R   0.500010 0.037190 0.590170 -0.513312
O17   O     O_R   0.499990 0.037190 0.409830 -0.520073
O18   O     O_R   1.000000 0.462800 0.590170 -0.510012
O19   O     O_R   0.000000 0.462800 0.409830 -0.500314
O20   O     O_R   0.500000 0.962800 0.590170 -0.500451
O21   O     O_R   0.500000 0.962800 0.409830 -0.507625
O22   O     O_R   0.962800 0.435720 0.037190 -0.505762
O23   O     O_R   0.564270 0.037190 0.435730 -0.522887
O24   O     O_R   0.037200 0.435720 0.962810 -0.520335
O25   O     O_R   0.462800 0.935720 0.037190 -0.505513
O26   O     O_R   0.537200 0.935720 0.962810 -0.520616
O27   O     O_R   0.962790 0.499990 0.947030 -0.503217
O28   O     O_R   0.037210 0.499990 0.052970 -0.503027
O29   O     O_R   0.462790 0.999990 0.947030 -0.501265
O30   O     O_R   0.537210 0.999990 0.052970 -0.503321
O31   O     O_R   0.037190 0.500000 0.872640 -0.512593
O32   O     O_R   0.962810 0.500000 0.127360 -0.510640
O33   O     O_R   0.537190 0.000000 0.872640 -0.513497
O34   O     O_R   0.435730 0.037190 0.564270 -0.534544
O35   O     O_R   0.462810 0.000000 0.127360 -0.511671
O36   O     O_R   0.962790 0.564250 0.037210 -0.519732
O37   O     O_R   0.037210 0.564250 0.962790 -0.505319
O38   O     O_R   0.462790 0.064250 0.037210 -0.518643
O39   O     O_R   0.537210 0.064250 0.962790 -0.505282
O40   O     O_R   0.500000 0.435740 0.052190 -0.456154
O41   O     O_R   0.500000 0.435740 0.947810 -0.454585
O42   O     O_R   1.000000 0.935740 0.052190 -0.454407
O43   O     O_R   0.000000 0.935740 0.947810 -0.475571
O44   O     O_3   0.364339 0.456418 0.233106 -0.506536
O45   O     O_R   0.435730 0.500010 0.116460 -0.466960
O46   O     O_3   0.635819 0.454787 0.769403 -0.505881
O47   O     O_3   0.863594 0.962913 0.238798 -0.509260
O48   O     O_3   0.137799 0.994841 0.749096 -0.506405
O49   O     O_3   0.077057 0.275772 0.889012 -0.569574
O50   O     O_3   0.923148 0.275180 0.106616 -0.564621
O51   O     O_3   0.577029 0.775761 0.889005 -0.569803
O52   O     O_3   0.423152 0.775189 0.106718 -0.565931
O53   O     O_R   0.564270 0.500010 0.883540 -0.467307
O54   O     O_R   0.935730 0.000010 0.116460 -0.463911
O55   O     O_R   0.064270 0.000010 0.883540 -0.476021
O56   O     O_R   0.435720 0.500010 0.012080 -0.517632

loop_
_geom_bond_atom_site_label_1
_geom_bond_atom_site_label_2
_ccdc_geom_bond_type
C93   H14   S    
C105  C110  A    
C10   O54   A    
C22   C29   A    
C176  O22   A    
C107  C112  A    
C142  C146  A    
Cu1   O12   S    
C136  C140  A    
C153  F17   S    
C18   O7    A    
Cu1   Cu6   S    
C130  C174  A    
C135  C139  A    
C124  C133  A    
C84   H108  S    
Cu4   O55   S    
C79   C99   A    
C154  C158  A    
C138  C143  A    
C43   H48   S    
C22   C38   A    
C23   C43   A    
C73   C74   S    
Cu5   O17   S    
C80   H98   S    
C19   C37   A    
Cu9   O28   S    
C146  C150  A    
C161  C172  A    
C106  C133  A    
Cu11  O26   S    
Cu8   O27   S    
C10   O3    A    
C3    H34   S    
C106  C111  A    
C55   C60   A    
C93   H15   S    
C79   H70   S    
C59   H64   S    
Cu6   O10   S    
C18   C25   S    
Cu12  O5    S    
C30   C176  S    
C37   C168  S    
C76   H90   S    
C9    O2    A    
Cu2   O6    S    
C38   C167  S    
C27   H41   S    
Cu8   O36   S    
C11   O4    A    
C62   H67   S    
C65   C99   A    
Cu4   O43   S    
C121  C129  A    
C82   H104  S    
C98   C102  A    
C97   O12   A    
C5    C161  S    
C103  F5    S    
C108  O23   A    
C15   C184  A    
C181  O35   A    
C178  O27   A    
C72   H80   S    
C136  F14   S    
Cu5   O34   S    
C21   C28   A    
C176  O24   A    
C120  H95   S    
Cu1   O14   S    
C12   F20   S    
C75   H87   S    
C147  H22   S    
C177  O26   A    
C119  O13   A    
C179  O28   A    
C42   H47   S    
C140  C145  A    
C8    O56   A    
C129  C156  S    
C53   C58   A    
Cu3   O54   S    
C44   H49   S    
C6    O41   A    
C59   C63   A    
C88   H3    S    
C118  H84   S    
C60   C64   A    
C184  H33   S    
Cu7   O13   S    
C116  H62   S    
C70   H75   S    
C122  C131  A    
C162  C169  A    
C83   O49   S    
C49   C53   A    
C180  O29   A    
C51   C55   A    
C183  H32   S    
C1    O9    A    
C178  O31   A    
C68   C98   A    
C107  F9    S    
C139  O46   S    
C39   H44   S    
C13   C127  S    
C61   C65   A    
C48   C52   A    
C126  O15   A    
C41   C45   A    
C60   H65   S    
C103  C107  A    
C91   H8    S    
C164  H27   S    
Cu9   O37   S    
C78   H96   S    
Cu3   O4    S    
C165  C171  A    
C77   H93   S    
C137  C142  A    
C20   O50   S    
C135  C157  A    
C123  C132  A    
C73   H83   S    
C86   H114  S    
C164  C170  A    
C72   H81   S    
C65   C130  A    
C94   H16   S    
Cu7   O21   S    
C66   C141  A    
C82   H102  S    
C55   H60   S    
C17   C23   S    
C140  O47   S    
Cu2   Cu12  S    
C41   H46   S    
Cu12  O40   S    
C127  O16   A    
C26   H39   S    
C1    C112  S    
C77   H92   S    
C13   C57   A    
C74   H85   S    
C71   H77   S    
C66   C100  A    
Cu5   Cu7   S    
C76   O47   S    
C150  H25   S    
C21   C38   A    
C92   H11   S    
C104  C131  A    
C11   O55   A    
C171  H40   S    
C110  F11   S    
C9    O53   A    
C89   C91   S    
C110  C114  A    
C16   F4    S    
C136  C158  A    
C51   H56   S    
C125  C174  S    
C63   H68   S    
C54   C59   A    
C32   C175  S    
C134  C156  A    
C151  F16   S    
C62   C66   A    
C155  C159  A    
C166  H30   S    
C99   C178  S    
C73   O46   S    
C91   C92   S    
C147  C151  A    
C117  C122  A    
C119  O34   A    
C50   C152  A    
C5    O38   A    
C1    O1    A    
C40   H45   S    
C81   H100  S    
C83   C84   S    
Cu5   O16   S    
C33   C184  A    
C64   C69   A    
C58   H63   S    
Cu10  O25   S    
C113  C117  A    
C87   H115  S    
C53   H58   S    
C26   C30   A    
C28   H42   S    
C150  C155  A    
C8    O45   A    
C142  O48   S    
C95   H20   S    
C25   C45   A    
C85   H110  S    
C112  C116  A    
C67   C101  A    
C117  H73   S    
C56   H61   S    
C56   C61   A    
Cu2   O41   S    
C14   C34   A    
C18   O8    A    
C11   C146  S    
Cu8   O32   S    
C21   O51   S    
Cu10  O38   S    
C115  C119  S    
C4    O36   A    
C71   C72   S    
C101  C180  S    
C16   C36   A    
C20   C37   A    
C7    O42   A    
C35   C79   A    
Cu3   O42   S    
Cu6   O18   S    
C57   H37   S    
Cu10  O29   S    
C161  C171  A    
C40   C44   A    
C50   H55   S    
C35   H35   S    
C24   C128  S    
C96   C101  A    
C19   O49   S    
C3    C16   A    
C64   H69   S    
C58   C62   A    
C134  F1    S    
C169  H1    S    
C87   C88   S    
C7    C36   S    
C15   C36   A    
C32   C183  A    
C154  F18   S    
C14   C183  A    
C162  C173  A    
C77   C78   S    
C166  C172  A    
C166  C175  A    
C50   C54   A    
C180  O33   A    
C98   H74   S    
C105  F7    S    
C138  O44   S    
C3    C33   A    
C41   C168  A    
C108  C114  S    
C131  C157  S    
C19   C26   A    
C40   C167  A    
C22   O52   S    
Cu9   O31   S    
C12   C182  A    
C42   C168  A    
C78   H94   S    
C57   C96   A    
C49   C141  A    
C160  C169  A    
C51   C163  A    
C70   C71   S    
C95   H18   S    
C162  H26   S    
C25   C47   A    
C85   H112  S    
C17   O5    A    
C49   H54   S    
Cu10  Cu11  S    
C67   C152  A    
C92   H10   S    
C125  O18   A    
C48   C130  A    
C127  O20   A    
C9    C144  S    
Cu3   O7    S    
C105  C132  A    
C177  O25   A    
C137  C159  A    
C84   C85   S    
C116  C121  A    
C86   C87   S    
C132  C158  S    
C23   C44   A    
C88   H4    S    
C133  C159  S    
C128  O17   A    
C149  C154  A    
C89   H7    S    
Cu10  O35   S    
C86   O50   S    
C14   F2    S    
Cu8   O22   S    
C29   H43   S    
C151  C156  A    
C155  F19   S    
C103  C129  A    
Cu5   O23   S    
C45   H50   S    
C31   C177  S    
C83   H107  S    
Cu6   O9    S    
C24   C163  A    
C12   C34   A    
Cu1   O1    S    
C17   O6    A    
C73   H82   S    
C102  C181  S    
C28   C31   A    
C13   C152  A    
C70   O44   S    
C94   H17   S    
C46   C90   A    
C20   C27   A    
C82   H103  S    
C61   H66   S    
Cu3   Cu4   S    
C96   H72   S    
C74   H86   S    
C118  C123  A    
C153  C157  A    
C94   C95   S    
C72   H79   S    
C24   C68   A    
Cu2   O53   S    
C106  F8    S    
C7    O43   A    
C4    O37   A    
C92   H12   S    
C90   H71   S    
C88   H5    S    
Cu1   O15   S    
Cu7   O11   S    
C75   H88   S    
C145  C149  A    
Cu9   O24   S    
C70   H76   S    
C47   H52   S    
Cu11  O30   S    
C93   C94   S    
C84   H109  S    
C148  H23   S    
C144  C148  A    
C6    C34   S    
C81   C82   S    
C69   C102  A    
C2    C46   A    
C143  C147  A    
Cu4   O8    S    
C6    O40   A    
C137  F15   S    
C32   C182  A    
C80   H99   S    
C172  H51   S    
C80   O48   S    
C104  C109  A    
C75   H89   S    
C149  H24   S    
C89   O51   S    
C54   H59   S    
C83   H105  S    
Cu4   O3    S    
C8    C143  S    
C33   C173  S    
C109  C113  A    
C97   O10   A    
C76   H91   S    
C93   O52   S    
C78   H97   S    
C91   H9    S    
C27   C30   A    
C86   H113  S    
C95   H19   S    
C90   C100  A    
C63   C67   A    
C74   C75   S    
Cu12  O45   S    
C164  C173  A    
C76   C77   S    
C89   H6    S    
Cu11  O39   S    
C39   C43   A    
C181  O30   A    
Cu11  O33   S    
C179  O32   A    
C71   H78   S    
C104  F6    S    
C111  F13   S    
C15   F3    S    
C139  C144  A    
C87   H116  S    
C123  H13   S    
C125  O14   A    
C170  H29   S    
C165  H28   S    
Cu6   O19   S    
C46   H36   S    
C114  C118  A    
C2    C126  S    
C48   H53   S    
C97   C113  S    
C126  O19   A    
C122  H2    S    
C35   C174  A    
Cu7   O20   S    
C69   C163  A    
C80   C81   S    
C134  C138  A    
C52   H57   S    
C165  C175  A    
Cu8   Cu9   S    
C29   C31   A    
C68   H38   S    
C182  H31   S    
C5    O39   A    
Cu12  O2    S    
C124  H21   S    
C81   H101  S    
C4    C160  S    
C42   C47   A    
C39   C167  A    
C109  F10   S    
C10   C145  S    
C108  O11   A    
C52   C56   A    
C121  H106  S    
C115  C120  A    
C148  C153  A    
C2    C141  A    
C160  C170  A    
C128  O21   A    
C111  C115  A    
C100  C179  S    
C85   H111  S    
C120  C124  A    
Cu2   O56   S    
C135  F12   S    
