data_mof_unit_45416.cif
_audit_creation_date              2012-12-10T19:10:25-0500
_audit_creation_method            fapswitch 2.2
_symmetry_space_group_name_H-M    P1
_symmetry_Int_Tables_number       1
_space_group_crystal_system       triclinic
_cell_length_a                    10.7612
_cell_length_b                    9.847038
_cell_length_c                    15.71724
_cell_angle_alpha                 89.273028
_cell_angle_beta                  88.927397
_cell_angle_gamma                 89.199222
_cell_volume                      1664.90910712

loop_
_atom_site_label
_atom_site_type_symbol
_atom_type_description
_atom_site_fract_x
_atom_site_fract_y
_atom_site_fract_z
_atom_type_partial_charge
C1    C     C_R   0.258569 0.500142 0.504225 0.893417
C2    C     C_3   0.641594 0.460549 0.947760 0.527549
C3    C     C_3   0.640102 0.453854 0.049110 0.688125
C4    C     C_1   0.503765 0.496828 0.825447 0.215171
C5    C     C_1   0.504797 0.501969 0.174420 0.115173
C6    C     C_1   0.502322 0.502153 0.249744 -0.189349
C7    C     C_3   0.068950 0.640790 0.536137 -0.223618
C8    C     C_3   0.072074 0.386899 0.572593 -0.329110
C9    C     C_3   0.928358 0.647013 0.519310 -0.311115
C10   C     C_3   0.929196 0.408805 0.583899 -0.230801
C11   C     C_3   0.075089 0.462241 0.416864 0.745343
C12   C     C_3   0.122203 0.498196 0.508626 -0.065104
C13   C     C_3   0.879480 0.498089 0.506758 -0.155293
C14   C     C_R   0.500208 0.500735 0.338584 0.896834
C15   C     C_3   0.933048 0.439883 0.422344 -0.407852
C16   C     C_3   0.384041 0.082495 0.538287 0.276601
C17   C     C_3   0.388413 0.920571 0.544179 0.301928
C18   C     C_3   0.512641 0.084358 0.409987 -0.157588
C19   C     C_3   0.497661 0.924021 0.409523 -0.109450
C20   C     C_3   0.601787 0.077308 0.549660 -0.320716
C21   C     C_3   0.608514 0.917373 0.542683 -0.334747
C22   C     C_R   0.742269 0.499255 0.503320 0.886957
C23   C     C_R   0.500138 0.499235 0.661378 0.885303
C24   C     C_3   0.477539 0.644934 0.048126 -0.579186
C25   C     C_3   0.405545 0.403485 0.052022 -0.604827
C26   C     C_3   0.415718 0.387758 0.954341 0.218530
C27   C     C_3   0.466301 0.641175 0.949870 0.220068
C28   C     C_1   0.501794 0.497524 0.750171 -0.105635
C29   C     C_3   0.507903 0.500254 0.082840 0.099386
C30   C     C_3   0.506280 0.497055 0.917121 0.048089
H1    H     H_    0.886048 0.484549 0.365959 0.150349
H2    H     H_    0.912992 0.329428 0.420139 0.223981
H3    H     H_    0.375863 0.120822 0.604540 0.122300
H4    H     H_    0.392474 0.889373 0.612646 0.122650
H5    H     H_    0.436293 0.128401 0.371367 0.100433
H6    H     H_    0.404748 0.904030 0.382652 0.124451
H7    H     H_    0.691515 0.120804 0.530628 0.242333
H8    H     H_    0.695745 0.887817 0.509530 0.269060
H9    H     H_    0.589322 0.105496 0.617694 0.179288
H10   H     H_    0.614631 0.871323 0.607475 0.158951
H11   H     H_    0.390415 0.685213 0.078369 0.212833
H12   H     H_    0.312369 0.445719 0.070239 0.238039
H13   H     H_    0.412079 0.302025 0.083654 0.174907
H14   H     H_    0.552025 0.716386 0.065227 0.211100
H15   H     H_    0.454322 0.284677 0.940002 0.152888
H16   H     H_    0.529269 0.718816 0.921798 0.150417
H17   H     H_    0.113935 0.718888 0.495615 0.261415
H18   H     H_    0.090479 0.286529 0.542816 0.242021
H19   H     H_    0.877259 0.691744 0.574834 0.152580
H20   H     H_    0.909533 0.466938 0.643169 0.190077
N1    N     N_3   0.499750 0.138610 0.498180 -0.102802
N2    N     N_3   0.499750 0.861390 0.498180 -0.075440
O1    O     O_R   0.314910 0.616040 0.499980 -0.525010
O2    O     O_R   0.314910 0.383960 0.499980 -0.576483
O3    O     O_R   0.500120 0.616090 0.377110 -0.592962
O4    O     O_R   0.500120 0.383910 0.377110 -0.652253
O5    O     O_R   0.685320 0.616040 0.499960 -0.610046
O6    O     O_R   0.685320 0.383960 0.499960 -0.619963
O7    O     O_R   0.500110 0.615990 0.622830 -0.609727
O8    O     O_R   0.500110 0.384010 0.622830 -0.620241
Zn1   Zn    Zn3+2 0.500150 0.654960 0.499960 1.023829
Zn2   Zn    Zn3+2 0.500150 0.345040 0.499960 0.976333
O9    O     O_3   0.346261 0.679232 0.922926 -0.677940
H21   H     H_    0.283632 0.637287 0.961714 0.393482
O10   O     O_3   0.297720 0.399157 0.917638 -0.707813
H22   H     H_    0.251831 0.315833 0.934223 0.359108
C31   C     C_2   0.906020 0.743961 0.445213 0.591182
H23   H     H_    0.889297 0.707131 0.382031 0.141792
O11   O     O_2   0.916096 0.866167 0.454883 -0.546703
C32   C     C_2   0.869873 0.271915 0.595993 0.520887
H24   H     H_    0.885634 0.193619 0.548934 0.090160
O12   O     O_2   0.807286 0.247032 0.659757 -0.542191
O13   O     O_3   0.101924 0.570354 0.359747 -0.826096
H25   H     H_    0.079039 0.541082 0.301930 0.343062
O14   O     O_3   0.131322 0.340731 0.386992 -0.759734
H26   H     H_    0.210068 0.363835 0.356553 0.348828
O15   O     O_3   0.276862 0.131971 0.497275 -0.719055
H27   H     H_    0.267603 0.085407 0.442366 0.370588
O16   O     O_3   0.279180 0.868855 0.511767 -0.728011
H28   H     H_    0.210090 0.903999 0.548461 0.366315
C33   C     C_2   0.629205 0.135178 0.363113 0.460332
H29   H     H_    0.619612 0.198780 0.306670 0.083753
O17   O     O_2   0.733669 0.100460 0.384128 -0.542618
C34   C     C_2   0.584320 0.859879 0.344442 0.539902
H30   H     H_    0.562451 0.869223 0.277440 0.009864
O18   O     O_2   0.679396 0.801038 0.364456 -0.553977
O19   O     O_3   0.729154 0.542154 0.081596 -0.761693
H31   H     H_    0.812473 0.503083 0.067394 0.378185
O20   O     O_3   0.668707 0.321691 0.080302 -0.758703
H32   H     H_    0.612664 0.255488 0.054484 0.329870
O21   O     O_3   0.727312 0.556659 0.914779 -0.748639
H33   H     H_    0.716004 0.643921 0.944690 0.333471
O22   O     O_3   0.677016 0.333203 0.914345 -0.750997
H34   H     H_    0.766451 0.318615 0.926680 0.398269
C35   C     C_2   0.094956 0.676114 0.628217 0.363937
H35   H     H_    0.021001 0.675972 0.676116 0.106501
O23   O     O_2   0.200072 0.700570 0.650847 -0.552201
C36   C     C_2   0.136619 0.378138 0.657574 0.472391
H36   H     H_    0.218918 0.436659 0.669359 0.093977
O24   O     O_2   0.099944 0.299498 0.712912 -0.508876

loop_
_geom_bond_atom_site_label_1
_geom_bond_atom_site_label_2
_ccdc_geom_bond_type
O6    Zn2   S    
C14   O4    A    
O19   H31   S    
O22   H34   S    
O13   H25   S    
C35   H35   S    
C24   C27   S    
C1    O2    A    
C25   H13   S    
C22   O5    A    
C9    C31   S    
C33   H29   S    
C15   H2    S    
O15   H27   S    
C23   O7    A    
N1    Zn2   S    
C34   O18   D    
C18   C19   S    
C20   N1    S    
N2    Zn1   S    
C5    C6    T    
C17   O16   S    
C18   C33   S    
O8    Zn2   S    
C16   O15   S    
C3    C29   S    
C1    O1    A    
C24   C29   S    
C9    C13   S    
C26   H15   S    
C4    C28   T    
O1    Zn1   S    
C19   N2    S    
C21   H8    S    
C16   C17   S    
C16   N1    S    
C32   H24   S    
C18   H5    S    
C14   O3    A    
C27   C30   S    
C24   H11   S    
C7    C12   S    
C1    C12   S    
C11   C15   S    
C17   N2    S    
C33   O17   D    
C18   N1    S    
C5    C29   S    
C25   C29   S    
C23   O8    A    
O7    Zn1   S    
C3    O19   S    
C31   H23   S    
C9    H19   S    
C34   H30   S    
C11   O13   S    
O21   H33   S    
C20   H9    S    
C2    C30   S    
O2    Zn2   S    
C25   C26   S    
C15   H1    S    
O9    H21   S    
C31   O11   D    
C7    H17   S    
O14   H26   S    
C8    H18   S    
C16   H3    S    
C6    C14   S    
C8    C12   S    
C23   C28   S    
C8    C36   S    
C27   O9    S    
C10   C32   S    
C27   H16   S    
O10   H22   S    
C36   O24   D    
C13   C15   S    
C24   H14   S    
O4    Zn2   S    
C17   H4    S    
C19   C34   S    
C10   H20   S    
C7    C9    S    
C26   O10   S    
C2    O22   S    
C10   C13   S    
C25   H12   S    
C22   O6    A    
C11   C12   S    
C35   O23   D    
O5    Zn1   S    
C7    C35   S    
C3    O20   S    
C19   H6    S    
C2    C3    S    
C11   O14   S    
C20   H7    S    
C21   H10   S    
O3    Zn1   S    
C13   C22   S    
C2    O21   S    
O16   H28   S    
C20   C21   S    
C8    C10   S    
C36   H36   S    
C32   O12   D    
O20   H32   S    
C21   N2    S    
C4    C30   S    
C26   C30   S    
