data_mof_unit_6936.cif
_audit_creation_date              2013-03-05T16:03:00-0500
_audit_creation_method            fapswitch 2.2
_symmetry_space_group_name_H-M    P1
_symmetry_Int_Tables_number       1
_space_group_crystal_system       triclinic
_cell_length_a                    14.91815
_cell_length_b                    14.218862
_cell_length_c                    10.557398
_cell_angle_alpha                 89.42876
_cell_angle_beta                  90.172137
_cell_angle_gamma                 90.221307
_cell_volume                      2239.28807839

loop_
_atom_site_label
_atom_site_type_symbol
_atom_site_description
_atom_site_fract_x
_atom_site_fract_y
_atom_site_fract_z
_atom_type_partial_charge
O1    O     O_R   0.367850 0.580280 0.500030 -0.554421
O2    O     O_R   0.632150 0.419720 0.499970 -0.565511
O3    O     O_R   0.632150 0.580280 0.499970 -0.566316
O4    O     O_R   0.367850 0.419720 0.500030 -0.570188
C1    C     C_R   0.327517 0.499945 0.503167 0.881282
C2    C     C_R   0.672457 0.500125 0.497824 0.871230
O5    O     O_R   0.499970 0.580260 0.313950 -0.644207
O6    O     O_R   0.500030 0.419740 0.686050 -0.639346
O7    O     O_R   0.500030 0.580260 0.686050 -0.595797
O8    O     O_R   0.499970 0.419740 0.313950 -0.604327
C3    C     C_R   0.501034 0.500647 0.258041 0.923270
C4    C     C_R   0.501536 0.499387 0.742176 0.920927
Zn1   Zn    Zn3+2 0.500000 0.607200 0.500000 1.002358
Zn2   Zn    Zn3+2 0.500000 0.392800 0.500000 0.991191
C5    C     C_3   0.513047 0.590203 0.037945 0.060865
C6    C     C_3   0.493311 0.410034 0.963142 0.069873
C7    C     C_3   0.581290 0.535589 0.958311 0.061260
C8    C     C_3   0.424877 0.464514 0.042459 0.024273
C9    C     C_3   0.435336 0.552034 0.956700 0.529645
C10   C     C_3   0.570682 0.448396 0.044388 0.541117
C11   C     C_3   0.503281 0.497848 0.876952 -0.227276
C12   C     C_3   0.502645 0.502348 0.123684 -0.223231
C13   C     C_R   0.813489 0.527424 0.382491 0.136650
C14   C     C_R   0.186290 0.479403 0.621289 0.127360
C15   C     C_R   0.767626 0.500256 0.492869 -0.033547
C16   C     C_R   0.232251 0.500395 0.508589 -0.007388
C17   C     C_R   0.811604 0.472255 0.602403 -0.302202
C18   C     C_R   0.188260 0.524963 0.397642 -0.294002
C19   C     C_R   0.904329 0.474289 0.608924 0.114320
C20   C     C_R   0.095522 0.526017 0.392270 0.114657
C21   C     C_R   0.952982 0.500966 0.499131 -0.024075
C22   C     C_R   0.046843 0.501524 0.502907 -0.021416
C23   C     C_R   0.907727 0.526822 0.385405 0.065262
C24   C     C_R   0.092076 0.478035 0.617559 0.068294
C25   C     C_R   0.949196 0.450807 0.722782 0.217269
C26   C     C_R   0.050664 0.550498 0.278758 0.214638
C27   C     C_R   0.042279 0.453726 0.725832 -0.224483
C28   C     C_R   0.957527 0.551306 0.277173 -0.219342
H1    H     H_    0.771909 0.449961 0.682969 0.154384
H2    H     H_    0.227972 0.543675 0.315682 0.136934
H3    H     H_    0.075204 0.435916 0.814163 0.163523
H4    H     H_    0.924567 0.571027 0.189584 0.161721
C29   C     C_R   0.579225 0.799768 0.512781 0.486150
C30   C     C_R   0.420367 0.199848 0.500195 0.494751
C31   C     C_R   0.421022 0.799294 0.483955 0.511768
C32   C     C_R   0.579700 0.200674 0.496285 0.471421
N1    N     N_R   0.500000 0.750030 0.500000 -0.190487
N2    N     N_R   0.500000 0.249970 0.500000 -0.190508
C33   C     C_R   0.419497 0.899298 0.488470 -0.086392
C34   C     C_R   0.581082 0.100571 0.502521 -0.078461
C35   C     C_R   0.581003 0.899849 0.506923 -0.080277
C36   C     C_R   0.419327 0.099829 0.493317 -0.082149
C37   C     C_R   0.500243 0.949665 0.498074 0.008246
C38   C     C_R   0.500216 0.050090 0.498455 0.012479
C39   C     C_R   0.338715 0.950039 0.481315 -0.168144
C40   C     C_R   0.661929 0.049839 0.509467 -0.176195
C41   C     C_R   0.661894 0.951234 0.511634 -0.172785
C42   C     C_R   0.338664 0.048481 0.482998 -0.176110
H5    H     H_    0.274861 0.913954 0.474502 0.182236
H6    H     H_    0.725800 0.086118 0.513813 0.178838
H7    H     H_    0.725796 0.915521 0.516484 0.179405
H8    H     H_    0.274780 0.084083 0.476199 0.180077
O9    O     O_3   0.364891 0.602258 0.897797 -0.593874
C43   C     C_3   0.320371 0.658869 0.986297 -0.304397
H9    H     H_    0.353017 0.728995 0.990437 0.178444
H10   H     H_    0.316683 0.627108 0.082793 0.138166
H11   H     H_    0.250517 0.669744 0.953175 0.192398
O10   O     O_3   0.641602 0.398930 0.103127 -0.631069
C44   C     C_3   0.687776 0.344381 0.013905 -0.366914
H12   H     H_    0.690763 0.376928 0.917651 0.180829
H13   H     H_    0.657000 0.273385 0.008702 0.184367
H14   H     H_    0.757810 0.335299 0.047276 0.191860
C45   C     C_3   0.528707 0.691364 0.079589 -0.844121
H15   H     H_    0.532239 0.738152 0.994984 0.234428
H16   H     H_    0.473594 0.715019 0.141260 0.225181
H17   H     H_    0.592819 0.696030 0.132828 0.256721
C46   C     C_3   0.480285 0.308065 0.923934 -0.850066
H18   H     H_    0.484002 0.261727 0.008976 0.239999
H19   H     H_    0.413402 0.299538 0.879802 0.233548
H20   H     H_    0.532823 0.287359 0.855642 0.244172
C47   C     C_3   0.670590 0.574480 0.911527 -0.918198
H21   H     H_    0.723662 0.560112 0.982622 0.259748
H22   H     H_    0.688632 0.541420 0.820702 0.218870
H23   H     H_    0.666090 0.651543 0.898366 0.241969
C48   C     C_3   0.337776 0.422869 0.093084 -0.851261
H24   H     H_    0.291489 0.408058 0.013297 0.246983
H25   H     H_    0.351960 0.356504 0.145458 0.263977
H26   H     H_    0.305991 0.472786 0.158410 0.214351
C49   C     C_3   0.763043 0.554110 0.262159 -0.862946
H27   H     H_    0.779492 0.627678 0.234406 0.235565
H28   H     H_    0.782396 0.505774 0.185141 0.248526
H29   H     H_    0.689309 0.549435 0.270651 0.255058
C50   C     C_3   0.236469 0.462295 0.744861 -0.888667
H30   H     H_    0.310140 0.467508 0.735717 0.255481
H31   H     H_    0.215691 0.515309 0.815293 0.272564
H32   H     H_    0.221088 0.391053 0.782782 0.204115
C51   C     C_3   0.899735 0.423475 0.842543 -0.968071
H33   H     H_    0.855464 0.481851 0.871796 0.244202
H34   H     H_    0.859090 0.359157 0.826058 0.244837
H35   H     H_    0.946106 0.408322 0.922648 0.244306
C52   C     C_3   0.100122 0.575625 0.158074 -0.967377
H36   H     H_    0.141998 0.515460 0.128227 0.247617
H37   H     H_    0.053657 0.592433 0.078671 0.246324
H38   H     H_    0.143206 0.638315 0.173488 0.230674
O11   O     O_3   0.658744 0.752394 0.529555 -0.573577
C53   C     C_3   0.675388 0.744484 0.660723 -0.289029
H39   H     H_    0.733076 0.696595 0.675755 0.193441
H40   H     H_    0.616796 0.714168 0.711808 0.184569
H41   H     H_    0.693409 0.813686 0.701923 0.138831
O12   O     O_3   0.339706 0.246559 0.500030 -0.573465
C54   C     C_3   0.306577 0.247385 0.625067 -0.302711
H42   H     H_    0.347121 0.295729 0.684065 0.189020
H43   H     H_    0.304714 0.176347 0.670353 0.134014
H44   H     H_    0.236674 0.273504 0.622200 0.195933
O13   O     O_3   0.340961 0.751843 0.469588 -0.558425
C55   C     C_3   0.321067 0.745485 0.339120 -0.335175
H45   H     H_    0.250339 0.722582 0.328622 0.186828
H46   H     H_    0.363685 0.691643 0.294323 0.185655
H47   H     H_    0.328053 0.813906 0.287680 0.133227
O14   O     O_3   0.659963 0.248250 0.485743 -0.590031
C56   C     C_3   0.682418 0.254284 0.356015 -0.226184
H48   H     H_    0.742470 0.299978 0.345478 0.197358
H49   H     H_    0.627494 0.286490 0.299018 0.217266
H50   H     H_    0.699403 0.184133 0.317408 0.125043

loop_
_geom_bond_atom_site_label_1
_geom_bond_atom_site_label_2
_geom_bond_distance
_ccdc_geom_bond_type
C42   H8    1.082713 S    
C46   H18   1.109711 S    
C6    C11   1.544625 S    
C39   H5    1.082762 S    
C1    C16   1.422551 S    
C17   C19   1.384993 A    
C24   C27   1.404713 A    
C45   H15   1.109655 S    
C54   H42   1.108766 S    
O3    C2    1.291087 A    
C47   H23   1.105411 S    
C51   H33   1.109546 S    
C37   C38   1.427982 A    
C40   C41   1.402018 A    
C5    C9    1.540346 S    
C50   H30   1.105697 S    
O1    C1    1.289173 A    
C9    C11   1.534268 S    
C14   C16   1.403963 A    
C28   H4    1.081048 S    
C48   H24   1.108885 S    
C48   H26   1.103895 S    
C2    C15   1.420869 S    
C53   H39   1.109512 S    
C18   H2    1.080619 S    
O13   C55   1.411851 S    
C7    C10   1.537799 S    
C55   H45   1.108599 S    
C6    C46   1.523351 S    
C29   O11   1.376554 S    
C31   N1    1.382144 A    
C44   H13   1.109159 S    
O7    Zn1   1.997454 S    
O12   C54   1.411113 S    
C56   H50   1.111726 S    
C47   H22   1.106511 S    
C5    C12   1.542952 S    
C17   H1    1.082050 S    
O10   C44   1.409236 S    
C13   C23   1.406153 A    
C14   C24   1.406001 A    
C13   C49   1.520218 S    
C35   C41   1.409287 A    
C49   H28   1.109472 S    
O3    Zn1   2.009701 S    
C6    C10   1.537538 S    
C30   C36   1.424750 A    
C46   H19   1.106674 S    
C50   H31   1.109765 S    
C27   H3    1.080986 S    
C45   H16   1.105779 S    
O2    C2    1.289729 A    
C51   H34   1.110216 S    
C52   H36   1.110005 S    
C36   C38   1.401675 A    
C47   H21   1.107506 S    
C48   H25   1.109682 S    
C32   N2    1.383389 A    
C8    C48   1.522041 S    
C43   H11   1.109116 S    
O8    Zn2   1.997455 S    
C9    O9    1.412138 S    
Zn1   N1    2.030880 S    
C8    C9    1.539347 S    
Zn2   N2    2.030881 S    
C33   C39   1.408420 A    
C4    C11   1.422990 S    
C7    C11   1.542220 S    
C40   H6    1.082829 S    
C26   C52   1.513254 S    
C35   C37   1.402342 A    
C43   H10   1.111656 S    
C44   H14   1.109176 S    
O5    C3    1.282035 A    
C31   O13   1.378208 S    
C21   C22   1.400674 A    
C31   C33   1.423487 A    
O6    C4    1.283458 A    
C21   C23   1.421534 A    
C32   O14   1.377235 S    
C54   H43   1.113492 S    
C34   C38   1.402137 A    
C49   H29   1.105582 S    
C56   H48   1.109837 S    
C36   C42   1.409605 A    
C5    C45   1.525217 S    
C10   C12   1.530830 S    
C50   H32   1.108933 S    
C15   C17   1.383636 A    
C45   H17   1.109996 S    
O1    Zn1   2.006799 S    
C51   H35   1.110938 S    
O14   C56   1.412636 S    
C52   H37   1.110914 S    
C46   H20   1.109145 S    
C5    C7    1.539661 S    
C32   C34   1.424437 A    
O6    Zn2   2.004950 S    
C25   C27   1.389372 A    
C8    C12   1.539191 S    
C10   O10   1.411291 S    
O4    C1    1.292493 A    
C41   H7    1.082675 S    
C52   H38   1.109951 S    
O11   C53   1.409613 S    
C19   C25   1.411832 A    
C3    C12   1.418702 S    
C16   C18   1.383354 A    
C23   C28   1.404968 A    
C55   H47   1.114129 S    
C20   C26   1.412016 A    
C43   H9    1.109197 S    
C18   C20   1.384615 A    
C19   C21   1.417189 A    
C14   C50   1.520113 S    
C20   C22   1.417043 A    
C29   C35   1.423906 A    
C53   H40   1.111760 S    
C33   C37   1.402938 A    
C26   C28   1.389568 A    
C55   H46   1.107611 S    
C54   H44   1.108559 S    
C7    C47   1.522270 S    
C13   C15   1.403229 A    
O4    Zn2   2.009703 S    
C44   H12   1.113345 S    
O2    Zn2   2.006797 S    
O7    C4    1.288588 A    
C34   C40   1.409083 A    
C56   H49   1.112473 S    
O8    C3    1.287808 A    
O9    C43   1.408850 S    
O5    Zn1   2.004951 S    
C6    C8    1.538745 S    
C39   C42   1.400025 A    
C49   H27   1.110243 S    
C25   C51   1.512510 S    
C29   N1    1.381924 A    
C30   N2    1.382990 A    
C22   C24   1.421547 A    
C53   H41   1.111500 S    
C30   O12   1.376680 S    
