data_mof_unit_54163.cif
_audit_creation_date              2012-12-10T18:58:14-0500
_audit_creation_method            fapswitch 2.2
_symmetry_space_group_name_H-M    P1
_symmetry_Int_Tables_number       1
_space_group_crystal_system       triclinic
_cell_length_a                    10.65682
_cell_length_b                    9.953063
_cell_length_c                    15.811571
_cell_angle_alpha                 89.331028
_cell_angle_beta                  91.863072
_cell_angle_gamma                 87.833163
_cell_volume                      1674.87679965

loop_
_atom_site_label
_atom_site_type_symbol
_atom_type_description
_atom_site_fract_x
_atom_site_fract_y
_atom_site_fract_z
_atom_type_partial_charge
C1    C     C_R   0.871464 0.491838 0.502792 -0.191085
C2    C     C_R   0.517192 0.375898 0.957924 0.103272
C3    C     C_R   0.502664 0.498351 0.912767 -0.012665
C4    C     C_R   0.504743 0.501363 0.087312 -0.015953
C5    C     C_1   0.503528 0.497450 0.823541 0.018827
C6    C     C_1   0.500854 0.501996 0.176456 0.062431
C7    C     C_1   0.499017 0.501977 0.251283 -0.122255
C8    C     C_1   0.502879 0.497727 0.748674 -0.173617
C9    C     C_R   0.570134 0.068114 0.558962 0.012336
C10   C     C_R   0.438212 0.932153 0.436728 -0.024063
C11   C     C_R   0.433391 0.076216 0.439106 0.007435
C12   C     C_R   0.127049 0.508471 0.504091 -0.201257
C13   C     C_R   0.566116 0.924588 0.561338 0.002332
C14   C     C_R   0.071444 0.448601 0.574051 0.150631
C15   C     C_R   0.927086 0.544043 0.431369 0.152513
C16   C     C_R   0.941123 0.449363 0.575959 0.158820
C17   C     C_R   0.055045 0.565737 0.435931 0.114328
C18   C     C_2   0.658212 0.135836 0.616321 0.516741
C19   C     C_2   0.376327 0.861617 0.366401 0.407829
C20   C     C_2   0.351243 0.155168 0.378700 0.541957
C21   C     C_2   0.634786 0.848249 0.630319 0.486900
C22   C     C_3   0.589340 0.804011 0.117937 -0.718879
C23   C     C_R   0.260134 0.502640 0.499537 0.912384
C24   C     C_3   0.421030 0.189466 0.887957 -0.787997
C25   C     C_3   0.347114 0.776153 0.873452 -0.743857
C26   C     C_3   0.663128 0.221962 0.121159 -0.723154
C27   C     C_3   0.154074 0.250400 0.650634 -0.675227
C28   C     C_3   0.833898 0.463146 0.301576 -0.806543
C29   C     C_3   0.883785 0.510529 0.717781 -0.755297
C30   C     C_3   0.085753 0.790564 0.387291 -0.802736
C31   C     C_R   0.739159 0.497425 0.503028 0.919692
C32   C     C_R   0.498823 0.500713 0.339615 0.917783
C33   C     C_R   0.501267 0.499256 0.660362 0.859128
C34   C     C_R   0.487502 0.622208 0.953717 0.131782
C35   C     C_R   0.518863 0.377629 0.046278 0.148704
C36   C     C_R   0.490514 0.623933 0.042446 0.096705
H1    H     H_    0.624256 0.194343 0.668620 0.070113
H2    H     H_    0.444244 0.089406 0.861078 0.251689
H3    H     H_    0.370247 0.252437 0.838425 0.240958
H4    H     H_    0.358884 0.175316 0.942142 0.243564
H5    H     H_    0.516805 0.825360 0.931309 0.239867
H6    H     H_    0.284481 0.798148 0.926770 0.220976
H7    H     H_    0.309698 0.691618 0.836318 0.249216
H8    H     H_    0.347232 0.865998 0.831208 0.244814
H9    H     H_    0.490421 0.174797 0.068421 0.257651
H10   H     H_    0.720804 0.200333 0.065251 0.232375
H11   H     H_    0.665771 0.131409 0.162940 0.246817
H12   H     H_    0.330409 0.769614 0.378651 0.148829
H13   H     H_    0.703870 0.305695 0.157276 0.237306
H14   H     H_    0.229549 0.440075 0.656280 0.213805
H15   H     H_    0.207542 0.219259 0.709508 0.216736
H16   H     H_    0.203803 0.208443 0.595605 0.230406
H17   H     H_    0.059229 0.208218 0.652816 0.275847
H18   H     H_    0.876182 0.660656 0.323330 0.239765
H19   H     H_    0.925510 0.423827 0.278630 0.238299
H20   H     H_    0.773521 0.495867 0.246066 0.228100
H21   H     H_    0.786753 0.381797 0.335494 0.266722
H22   H     H_    0.794211 0.372138 0.643659 0.242179
H23   H     H_    0.263462 0.200186 0.399348 0.026155
H24   H     H_    0.840552 0.469716 0.775177 0.237201
H25   H     H_    0.829325 0.602764 0.696555 0.225391
H26   H     H_    0.981631 0.536624 0.734958 0.263050
H27   H     H_    0.090965 0.619524 0.312782 0.232530
H28   H     H_    0.983837 0.815453 0.391815 0.243485
H29   H     H_    0.120667 0.849295 0.333408 0.246694
H30   H     H_    0.133703 0.822126 0.446853 0.248586
H31   H     H_    0.688591 0.757547 0.617437 0.098121
H32   H     H_    0.412782 0.817110 0.058163 0.239404
H33   H     H_    0.646950 0.834224 0.064087 0.216268
H34   H     H_    0.644593 0.730646 0.159033 0.242645
H35   H     H_    0.566812 0.894306 0.155965 0.272188
H36   H     H_    0.600043 0.254917 0.868062 0.239101
N1    N     N_R   0.500000 0.857200 0.500000 -0.175468
N2    N     N_2   0.110273 0.647891 0.374210 -0.313277
N3    N     N_R   0.500000 0.142800 0.500000 -0.173234
N4    N     N_2   0.473951 0.746852 0.087106 -0.279120
N5    N     N_2   0.535752 0.251542 0.915352 -0.299464
N6    N     N_2   0.473779 0.743955 0.905081 -0.274785
N7    N     N_2   0.534613 0.255633 0.094434 -0.262317
N8    N     N_2   0.144969 0.395671 0.644814 -0.293351
N9    N     N_2   0.852595 0.576269 0.356488 -0.293907
N10   N     N_2   0.881728 0.410962 0.651852 -0.275388
O1    O     O_R   0.316770 0.614620 0.499990 -0.628349
O2    O     O_2   0.379942 0.902176 0.293433 -0.545788
O3    O     O_2   0.381135 0.170595 0.305443 -0.521507
O4    O     O_2   0.631144 0.886352 0.703372 -0.602556
O5    O     O_R   0.683230 0.385380 0.500010 -0.614078
O6    O     O_R   0.683230 0.614620 0.500010 -0.632090
O7    O     O_R   0.316770 0.385380 0.499990 -0.648753
O8    O     O_R   0.499980 0.614630 0.378020 -0.625669
O9    O     O_R   0.500020 0.385370 0.621980 -0.657203
O10   O     O_R   0.500020 0.614630 0.621980 -0.618705
O11   O     O_R   0.499980 0.385370 0.378020 -0.584593
O12   O     O_2   0.771207 0.119720 0.607867 -0.600148
Zn1   Zn    Zn3+2 0.500000 0.653120 0.500000 0.938595
Zn2   Zn    Zn3+2 0.500000 0.346880 0.500000 0.946354

loop_
_geom_bond_atom_site_label_1
_geom_bond_atom_site_label_2
_ccdc_geom_bond_type
C2    C35   A    
C4    C36   A    
C30   H28   S    
C22   N4    S    
C25   H7    S    
C28   H20   S    
O8    Zn1   S    
C15   N9    S    
C28   H21   S    
C12   C23   S    
C23   O1    A    
C18   H1    S    
C33   O9    A    
C30   N2    S    
C10   N1    A    
C1    C31   S    
C24   H3    S    
C9    C13   A    
C36   N4    S    
O9    Zn2   S    
C29   H26   S    
C32   O8    A    
C12   C17   A    
C24   H2    S    
C23   O7    A    
C1    C15   A    
C14   N8    S    
C22   H33   S    
C32   O11   A    
C4    C35   A    
C20   O3    D    
C25   H8    S    
C28   H19   S    
C27   H15   S    
N3    Zn2   S    
C7    C32   S    
C29   H25   S    
C11   C20   S    
C31   O5    A    
C25   N6    S    
C4    C6    S    
C27   N8    S    
C26   H13   S    
H5    N6    S    
C19   H12   S    
C3    C34   A    
O10   Zn1   S    
H36   N5    S    
C24   N5    S    
C29   H24   S    
C10   C19   S    
O1    Zn1   S    
O5    Zn2   S    
C16   N10   S    
C13   C21   S    
H9    N7    S    
C1    C16   A    
C20   H23   S    
C30   H30   S    
C26   H11   S    
C12   C14   A    
O11   Zn2   S    
C17   N2    S    
C18   O12   D    
C14   C16   A    
C33   O10   A    
N1    Zn1   S    
C19   O2    D    
C22   H35   S    
C27   H16   S    
C15   C17   A    
C21   O4    D    
C31   O6    A    
C28   N9    S    
C13   N1    A    
C3    C5    S    
H14   N8    S    
C25   H6    S    
C5    C8    T    
C27   H17   S    
C6    C7    T    
H27   N2    S    
H32   N4    S    
C26   N7    S    
O7    Zn2   S    
H22   N10   S    
C2    C3    A    
C29   N10   S    
C2    N5    S    
C11   N3    A    
C34   N6    S    
C35   N7    S    
C24   H4    S    
C34   C36   A    
C8    C33   S    
O6    Zn1   S    
C30   H29   S    
C10   C11   A    
C26   H10   S    
C9    C18   S    
C9    N3    A    
C22   H34   S    
H18   N9    S    
C21   H31   S    
