data_mof_unit_67938.cif
_audit_creation_date              2012-12-10T19:24:06-0500
_audit_creation_method            fapswitch 2.2
_symmetry_space_group_name_H-M    P1
_symmetry_Int_Tables_number       1
_space_group_crystal_system       triclinic
_cell_length_a                    10.774239
_cell_length_b                    10.620433
_cell_length_c                    9.979069
_cell_angle_alpha                 90.014874
_cell_angle_beta                  88.401308
_cell_angle_gamma                 89.605721
_cell_volume                      1141.40414597

loop_
_atom_site_label
_atom_site_type_symbol
_atom_type_description
_atom_site_fract_x
_atom_site_fract_y
_atom_site_fract_z
_atom_type_partial_charge
C1    C     C_R   0.494994 0.258722 0.499988 0.912302
C2    C     C_R   0.499184 0.741807 0.500156 0.916364
C3    C     C_3   0.394956 0.959217 0.570497 0.147295
C4    C     C_3   0.588054 0.042199 0.428738 0.123626
C5    C     C_3   0.457055 0.396259 0.049090 0.408076
C6    C     C_3   0.543525 0.604852 0.950795 0.404240
C7    C     C_3   0.567310 0.409365 0.950510 0.451875
C8    C     C_3   0.432789 0.591772 0.051064 0.428208
C9    C     C_3   0.389861 0.487324 0.957744 -0.035863
C10   C     C_3   0.609771 0.513542 0.043704 -0.068492
C11   C     C_R   0.258524 0.496890 0.500885 0.963055
C12   C     C_R   0.742224 0.505022 0.498550 0.951701
C13   C     C_3   0.035782 0.440326 0.608734 0.422978
C14   C     C_3   0.968033 0.564133 0.387065 0.453120
C15   C     C_3   0.956695 0.386461 0.496930 0.415617
C16   C     C_3   0.047064 0.619342 0.498550 0.408740
C17   C     C_3   0.878425 0.509559 0.496570 -0.363770
C18   C     C_3   0.123965 0.496313 0.500090 -0.350514
C19   C     C_3   0.960172 0.564665 0.608504 -0.028240
C20   C     C_3   0.043992 0.441334 0.388581 -0.002727
C21   C     C_3   0.495532 0.043824 0.628925 -0.376564
C22   C     C_3   0.487456 0.957842 0.371166 -0.334921
C23   C     C_3   0.596442 0.962693 0.555664 0.553885
C24   C     C_3   0.387837 0.040304 0.444316 0.595033
C25   C     C_3   0.495459 0.877161 0.500332 -0.222349
C26   C     C_3   0.489371 0.124002 0.499875 -0.210865
H1    H     H_    0.496400 0.080339 0.733130 0.188206
H2    H     H_    0.487916 0.921157 0.267602 0.174808
N1    N     N_3   0.499910 0.500030 0.863290 -0.174062
N2    N     N_3   0.500090 0.499970 0.136710 -0.187405
O1    O     O_R   0.500010 0.313960 0.616610 -0.600557
O2    O     O_R   0.499990 0.686040 0.383390 -0.605909
O3    O     O_R   0.500060 0.313950 0.383350 -0.563601
O4    O     O_R   0.499940 0.686050 0.616650 -0.590559
O5    O     O_R   0.313930 0.499970 0.616610 -0.589023
O6    O     O_R   0.686070 0.500030 0.383390 -0.616733
O7    O     O_R   0.313980 0.499960 0.383350 -0.591674
O8    O     O_R   0.686020 0.500040 0.616650 -0.604280
Zn1   Zn    Zn3+2 0.499970 0.500010 0.655740 1.036681
Zn2   Zn    Zn3+2 0.500030 0.499990 0.344260 1.037610
O9    O     O_3   0.901364 0.267166 0.496436 -0.647121
C27   C     C_3   0.992362 0.171794 0.504418 -0.288862
H3    H     H_    0.994242 0.134519 0.607342 0.173755
H4    H     H_    0.087721 0.201608 0.475039 0.226204
H5    H     H_    0.966064 0.094025 0.437617 0.172962
O10   O     O_3   0.103615 0.738738 0.495713 -0.621053
C28   C     C_3   0.013375 0.833897 0.477710 -0.267041
H6    H     H_    0.916562 0.806129 0.505496 0.210700
H7    H     H_    0.015087 0.866210 0.372398 0.160220
H8    H     H_    0.037712 0.914778 0.541089 0.196253
O11   O     O_3   0.085050 0.365222 0.711283 -0.590775
C29   C     C_3   0.990004 0.317950 0.796489 -0.326757
H9    H     H_    0.011640 0.218478 0.820858 0.160575
H10   H     H_    0.895061 0.321869 0.755181 0.214953
H11   H     H_    0.991066 0.369789 0.891432 0.173188
O12   O     O_3   0.931260 0.634415 0.275300 -0.622359
C30   C     C_3   0.036867 0.664010 0.194891 -0.300645
H12   H     H_    0.077221 0.578167 0.148313 0.212187
H13   H     H_    0.111029 0.711083 0.250376 0.222304
H14   H     H_    0.008416 0.729378 0.114815 0.152389
N3    N     N_2   0.911917 0.633340 0.724987 -0.289425
H15   H     H_    0.817514 0.648556 0.726498 0.300482
C31   C     C_3   0.979611 0.742094 0.771017 -0.818416
H16   H     H_    0.933021 0.828579 0.739466 0.252913
H17   H     H_    0.076846 0.743071 0.733721 0.290709
H18   H     H_    0.982252 0.744357 0.881325 0.209655
N4    N     N_2   0.093961 0.373642 0.272683 -0.277305
H19   H     H_    0.173426 0.322423 0.290237 0.288272
C32   C     C_3   0.005127 0.305345 0.195428 -0.773291
H20   H     H_    0.989022 0.211137 0.238839 0.239555
H21   H     H_    0.043210 0.291505 0.092461 0.206935
H22   H     H_    0.915015 0.356110 0.192736 0.283518
O13   O     O_3   0.709580 0.923213 0.610268 -0.612402
C33   C     C_3   0.753371 0.020698 0.692732 -0.305281
H23   H     H_    0.853274 0.008133 0.708402 0.144748
H24   H     H_    0.705526 0.017393 0.792499 0.175243
H25   H     H_    0.742744 0.116036 0.647741 0.207915
O14   O     O_3   0.277507 0.091229 0.393929 -0.624676
C34   C     C_3   0.231931 0.010648 0.295177 -0.340747
H26   H     H_    0.287741 0.020524 0.201251 0.177659
H27   H     H_    0.135616 0.039002 0.273017 0.160956
H28   H     H_    0.231079 0.910473 0.327848 0.214374
N5    N     N_2   0.287795 0.912026 0.644656 -0.253468
H29   H     H_    0.304658 0.828650 0.693596 0.235724
C35   C     C_3   0.224824 0.004113 0.729409 -0.813271
H30   H     H_    0.133056 0.967652 0.763201 0.221773
H31   H     H_    0.210289 0.093504 0.674114 0.282048
H32   H     H_    0.280259 0.022717 0.819210 0.217459
N6    N     N_2   0.689151 0.092579 0.347801 -0.275256
H33   H     H_    0.739854 0.158391 0.396807 0.283870
C36   C     C_3   0.762298 0.000693 0.273184 -0.796943
H34   H     H_    0.840291 0.047793 0.219011 0.214981
H35   H     H_    0.704437 0.954680 0.197787 0.233684
H36   H     H_    0.799725 0.928479 0.341532 0.262079
O15   O     O_3   0.641777 0.313798 0.890192 -0.603007
C37   C     C_3   0.689589 0.232823 0.988747 -0.317188
H37   H     H_    0.712143 0.281001 0.083870 0.210198
H38   H     H_    0.777070 0.189870 0.948740 0.152636
H39   H     H_    0.623876 0.155205 0.010242 0.188104
O16   O     O_3   0.355217 0.682097 0.116661 -0.575879
C38   C     C_3   0.341350 0.792217 0.039028 -0.385557
H40   H     H_    0.359807 0.779215 0.929833 0.193316
H41   H     H_    0.401829 0.866734 0.076459 0.163630
H42   H     H_    0.244624 0.827378 0.052264 0.160060
O17   O     O_3   0.411063 0.284472 0.108056 -0.558701
C39   C     C_3   0.368059 0.201408 0.009073 -0.334027
H43   H     H_    0.408785 0.106792 0.025716 0.153680
H44   H     H_    0.391984 0.228317 0.903580 0.186285
H45   H     H_    0.265682 0.193266 0.020110 0.173094
O18   O     O_3   0.593751 0.712821 0.886965 -0.559342
C40   C     C_3   0.632314 0.803241 0.980525 -0.328423
H46   H     H_    0.732436 0.822454 0.963659 0.179299
H47   H     H_    0.615735 0.777081 0.087566 0.157481
H48   H     H_    0.583724 0.893413 0.960915 0.160612
N7    N     N_2   0.266491 0.465363 0.911743 -0.230804
H49   H     H_    0.214516 0.410356 0.976768 0.242333
C41   C     C_3   0.200562 0.577457 0.875923 -0.674951
H50   H     H_    0.111592 0.550854 0.835439 0.289788
H51   H     H_    0.254710 0.633884 0.802094 0.248335
H52   H     H_    0.177726 0.634708 0.964607 0.211647
N8    N     N_2   0.730952 0.526621 0.097473 -0.267866
H53   H     H_    0.732805 0.596794 0.168340 0.300230
C42   C     C_3   0.827135 0.540287 0.996726 -0.718317
H54   H     H_    0.916293 0.509850 0.036391 0.243852
H55   H     H_    0.833055 0.639868 0.969731 0.253850
H56   H     H_    0.808409 0.483636 0.906508 0.275170

loop_
_geom_bond_atom_site_label_1
_geom_bond_atom_site_label_2
_ccdc_geom_bond_type
C7    C10   S    
C14   O12   S    
C21   C26   S    
C31   H17   S    
C11   C18   S    
C38   H40   S    
C7    N1    S    
O13   C33   S    
C20   N4    S    
O15   C37   S    
C10   N8    S    
C1    O3    A    
C42   H54   S    
C28   H7    S    
C5    O17   S    
C35   H30   S    
C33   H24   S    
C13   C18   S    
C22   C24   S    
C24   C26   S    
C5    N2    S    
O7    Zn2   S    
C41   H51   S    
O8    Zn1   S    
C42   H55   S    
C39   H43   S    
N7    H49   S    
C37   H39   S    
C1    O1    A    
O12   C30   S    
C2    O2    A    
O9    C27   S    
C32   H21   S    
O18   C40   S    
C13   O11   S    
C28   H6    S    
C8    C9    S    
N7    C41   S    
C33   H25   S    
C37   H38   S    
C12   C17   S    
N6    C36   S    
C29   H11   S    
C9    N1    S    
C2    O4    A    
O2    Zn2   S    
C21   H1    S    
C31   H18   S    
C38   H41   S    
C22   H2    S    
C6    O18   S    
C14   C17   S    
C3    C24   S    
N3    H15   S    
C27   H4    S    
C23   O13   S    
C29   H10   S    
C28   H8    S    
C35   H31   S    
C15   C20   S    
O3    Zn2   S    
C33   H23   S    
C13   C19   S    
N4    H19   S    
C9    N7    S    
C14   C20   S    
C3    C25   S    
C15   O9    S    
C41   H52   S    
C16   O10   S    
C36   H34   S    
C5    C7    S    
C4    C23   S    
O14   C34   S    
C42   H56   S    
C6    C8    S    
C40   H48   S    
C22   C25   S    
O4    Zn1   S    
N4    C32   S    
C27   H5    S    
C32   H22   S    
O5    Zn1   S    
C5    C9    S    
C36   H35   S    
C4    C22   S    
C10   N2    S    
N5    H29   S    
O6    Zn2   S    
C37   H37   S    
N1    Zn1   S    
N3    C31   S    
N2    Zn2   S    
C40   H47   S    
N8    H53   S    
C24   O14   S    
N5    C35   S    
C38   H42   S    
C13   C15   S    
C3    N5    S    
C1    C26   S    
C14   C16   S    
C3    C21   S    
C12   O6    A    
C27   H3    S    
C29   H9    S    
C11   O7    A    
C4    N6    S    
C35   H32   S    
C15   C17   S    
O10   C28   S    
C40   H46   S    
C31   H16   S    
C30   H14   S    
C6    C10   S    
C34   H28   S    
C4    C26   S    
C7    O15   S    
O17   C39   S    
C34   H27   S    
C8    N2    S    
C21   C23   S    
C8    O16   S    
O11   C29   S    
C41   H50   S    
C36   H36   S    
C30   H12   S    
C39   H44   S    
C19   N3    S    
C16   C19   S    
C11   O5    A    
O16   C38   S    
C17   C19   S    
O1    Zn1   S    
C2    C25   S    
C18   C20   S    
C23   C25   S    
C12   O8    A    
C32   H20   S    
N8    C42   S    
C30   H13   S    
C34   H26   S    
C6    N1    S    
C16   C18   S    
N6    H33   S    
C39   H45   S    
