data_mof_unit_38525.cif
_audit_creation_date              2012-12-10T18:59:59-0500
_audit_creation_method            fapswitch 2.2
_symmetry_space_group_name_H-M    P1
_symmetry_Int_Tables_number       1
_space_group_crystal_system       triclinic
_cell_length_a                    10.76942
_cell_length_b                    10.588586
_cell_length_c                    10.27358
_cell_angle_alpha                 88.464368
_cell_angle_beta                  93.973127
_cell_angle_gamma                 90.946049
_cell_volume                      1168.1649656

loop_
_atom_site_label
_atom_site_type_symbol
_atom_type_description
_atom_site_fract_x
_atom_site_fract_y
_atom_site_fract_z
_atom_type_partial_charge
C1    C     C_R   0.498983 0.261476 0.501062 0.855143
C2    C     C_R   0.565541 0.063133 0.602230 -0.185622
C3    C     C_R   0.502343 0.871706 0.497718 0.010111
C4    C     C_R   0.497708 0.128294 0.502269 0.010098
C5    C     C_R   0.525120 0.607811 0.067394 0.050676
C6    C     C_R   0.474910 0.392185 0.932606 0.050711
C7    C     C_R   0.525529 0.606525 0.926960 -0.127849
C8    C     C_R   0.474473 0.393475 0.073037 -0.127857
C9    C     C_R   0.260951 0.506014 0.496107 0.880521
C10   C     C_R   0.739047 0.493973 0.503893 0.880810
C11   C     C_R   0.130452 0.610157 0.089495 -0.171574
C12   C     C_R   0.501033 0.738523 0.498937 0.855379
C13   C     C_R   0.869545 0.389773 0.910515 -0.171555
C14   C     C_R   0.088955 0.584571 0.210749 -0.126173
C15   C     C_R   0.911026 0.415354 0.789253 -0.126272
C16   C     C_R   0.087385 0.460210 0.261644 0.066242
C17   C     C_R   0.912603 0.539715 0.738363 0.066237
C18   C     C_R   0.121955 0.357784 0.187632 -0.033014
C19   C     C_R   0.878061 0.642141 0.812385 -0.032841
C20   C     C_R   0.160465 0.385443 0.062803 -0.262269
C21   C     C_R   0.839586 0.614495 0.937227 -0.262335
C22   C     C_R   0.166852 0.511168 0.015763 0.028167
C23   C     C_R   0.873369 0.487022 0.510180 -0.122954
C24   C     C_R   0.833176 0.488767 0.984259 0.028212
C25   C     C_R   0.929595 0.426218 0.412453 -0.134212
C26   C     C_R   0.070400 0.573729 0.587564 -0.134604
C27   C     C_2   0.211298 0.539617 0.888965 0.865528
C28   C     C_2   0.788727 0.460323 0.111053 0.865510
C29   C     C_2   0.122833 0.224132 0.237364 0.888965
C30   C     C_2   0.877164 0.775780 0.762636 0.888798
C31   C     C_2   0.555496 0.730500 0.126409 0.932150
C32   C     C_2   0.444672 0.269478 0.873595 0.932634
C33   C     C_R   0.126628 0.512938 0.489826 -0.122929
C34   C     C_R   0.946204 0.551794 0.604683 0.079018
C35   C     C_R   0.053794 0.448147 0.395331 0.078851
C36   C     C_R   0.432397 0.066214 0.399860 -0.133122
C37   C     C_R   0.567670 0.933786 0.600117 -0.132684
C38   C     C_R   0.434539 0.936870 0.397735 -0.185609
H1    H     H_    0.547213 0.692915 0.873902 0.168905
H2    H     H_    0.867228 0.292852 0.946979 0.199517
H3    H     H_    0.149128 0.040657 0.199294 0.354375
H4    H     H_    0.851634 0.959324 0.800922 0.354417
H5    H     H_    0.875663 0.369937 0.343455 0.176474
H6    H     H_    0.124328 0.630006 0.656570 0.176330
H7    H     H_    0.379576 0.117653 0.322634 0.169732
H8    H     H_    0.620496 0.882347 0.677342 0.169559
H9    H     H_    0.381803 0.887842 0.320320 0.169454
H10   H     H_    0.618304 0.112165 0.679621 0.169500
H11   H     H_    0.519995 0.917007 0.125639 0.358160
H12   H     H_    0.452805 0.307079 0.126092 0.168907
H13   H     H_    0.480557 0.083065 0.874213 0.358086
H14   H     H_    0.060541 0.662794 0.267349 0.172786
H15   H     H_    0.939421 0.337130 0.732643 0.172748
H16   H     H_    0.189034 0.309786 0.003126 0.222702
H17   H     H_    0.811022 0.690160 0.996900 0.222552
H18   H     H_    0.299363 0.667491 0.774682 0.357530
H19   H     H_    0.700630 0.332470 0.225331 0.357519
H20   H     H_    0.132752 0.707078 0.053025 0.199580
N1    N     N_R   0.499970 0.499970 0.857200 -0.133112
N2    N     N_R   0.500030 0.500030 0.142800 -0.133053
O1    O     O_R   0.499990 0.316750 0.614620 -0.591525
O2    O     O_R   0.259183 0.660341 0.860644 -0.808131
O3    O     O_2   0.794256 0.543049 0.191015 -0.583601
O4    O     O_R   0.740812 0.339610 0.139369 -0.808056
O5    O     O_2   0.100714 0.197919 0.350127 -0.615452
O6    O     O_R   0.150311 0.127149 0.154516 -0.798449
O7    O     O_2   0.898422 0.801897 0.649623 -0.615550
O8    O     O_R   0.850603 0.872849 0.845742 -0.798166
O9    O     O_2   0.645735 0.741931 0.204172 -0.540745
O10   O     O_R   0.486905 0.836504 0.083685 -0.804916
O11   O     O_2   0.354302 0.257882 0.796050 -0.541029
O12   O     O_R   0.500010 0.683250 0.385380 -0.591460
O13   O     O_R   0.513588 0.163633 0.916076 -0.804889
O14   O     O_R   0.499990 0.316780 0.385290 -0.654420
O15   O     O_R   0.500010 0.683220 0.614710 -0.654431
O16   O     O_R   0.316760 0.500000 0.614660 -0.549003
O17   O     O_R   0.683240 0.500000 0.385340 -0.548939
O18   O     O_R   0.316760 0.500020 0.385330 -0.627848
O19   O     O_R   0.683240 0.499980 0.614670 -0.627804
O20   O     O_2   0.205794 0.456883 0.809006 -0.583571
Zn1   Zn    Zn3+2 0.500000 0.499980 0.653120 0.997509
Zn2   Zn    Zn3+2 0.500000 0.500020 0.346880 0.997522

loop_
_geom_bond_atom_site_label_1
_geom_bond_atom_site_label_2
_ccdc_geom_bond_type
C6    C32   S    
C4    C36   A    
C25   H5    S    
N1    Zn1   S    
C26   H6    S    
C1    O14   A    
C15   H15   S    
C19   C21   A    
C16   C35   S    
C11   C14   A    
C13   H2    S    
C3    C12   S    
C17   C19   A    
N2    Zn2   S    
C26   C34   A    
C31   O10   S    
C14   H14   S    
C3    C38   A    
C9    O16   A    
C11   H20   S    
C30   O7    D    
H18   O2    S    
C23   C25   A    
C12   O12   A    
C9    C33   S    
O14   Zn2   S    
C7    N1    A    
C10   O17   A    
C32   O11   D    
C5    C7    A    
H13   O13   S    
C20   H16   S    
C27   O20   D    
C32   O13   S    
O19   Zn1   S    
O15   Zn1   S    
C6    C8    A    
C2    H10   S    
C13   C24   A    
C2    C4    A    
C27   O2    S    
O18   Zn2   S    
C26   C33   A    
C23   C34   A    
C36   H7    S    
C18   C29   S    
C38   H9    S    
C25   C35   A    
C29   O5    D    
C28   O4    S    
C20   C22   A    
C22   C27   S    
C13   C15   A    
C14   C16   A    
C12   O15   A    
C17   C34   S    
C8    H12   S    
H19   O4    S    
C21   H17   S    
C15   C17   A    
C5    N2    A    
C6    N1    A    
C24   C28   S    
C1    O1    A    
O16   Zn1   S    
C10   O19   A    
H3    O6    S    
C10   C23   S    
C11   C22   A    
H11   O10   S    
C1    C4    S    
C36   C38   A    
O1    Zn1   S    
C8    N2    A    
C2    C37   A    
O17   Zn2   S    
C33   C35   A    
C18   C20   A    
C9    O18   A    
H4    O8    S    
O12   Zn2   S    
C29   O6    S    
C28   O3    D    
C31   O9    D    
C3    C37   A    
C16   C18   A    
C21   C24   A    
C7    H1    S    
C37   H8    S    
C19   C30   S    
C30   O8    S    
C5    C31   S    
