data_mof_unit_34923.cif
_audit_creation_date              2012-12-10T17:39:03-0500
_audit_creation_method            fapswitch 2.2
_symmetry_space_group_name_H-M    P1
_symmetry_Int_Tables_number       1
_space_group_crystal_system       triclinic
_cell_length_a                    12.092469
_cell_length_b                    12.888175
_cell_length_c                    22.960494
_cell_angle_alpha                 90.952615
_cell_angle_beta                  86.232842
_cell_angle_gamma                 93.975001
_cell_volume                      3561.80633488

loop_
_atom_site_label
_atom_site_type_symbol
_atom_type_description
_atom_site_fract_x
_atom_site_fract_y
_atom_site_fract_z
_atom_type_partial_charge
C1    C     C_R   0.522662 0.699882 0.493879 0.928308
C2    C     C_R   0.477579 0.299836 0.505770 0.896157
C3    C     C_R   0.482583 0.456231 0.773214 0.253474
C4    C     C_R   0.567380 0.606642 0.238438 0.235814
C5    C     C_R   0.491037 0.436482 0.712535 0.089820
C6    C     C_R   0.566380 0.595572 0.299308 0.088253
C7    C     C_R   0.501162 0.520600 0.673658 -0.160312
C8    C     C_R   0.503349 0.511165 0.325676 -0.153296
C9    C     C_R   0.502423 0.623863 0.694849 -0.109898
C10   C     C_R   0.454666 0.433125 0.290195 -0.128039
C11   C     C_R   0.484257 0.643060 0.754717 -0.037516
C12   C     C_R   0.444558 0.453457 0.230764 -0.014799
C13   C     C_R   0.475641 0.559771 0.793979 0.172412
C14   C     C_R   0.481314 0.552994 0.208370 0.101234
C15   C     C_R   0.463310 0.187001 0.512707 -0.213367
C16   C     C_R   0.538217 0.811766 0.483733 -0.191450
C17   C     C_R   0.651829 0.973199 0.486593 0.165094
C18   C     C_R   0.349160 0.027465 0.499281 0.166203
C19   C     C_R   0.644165 0.865004 0.483262 -0.078610
C20   C     C_R   0.357817 0.133703 0.513244 -0.058078
C21   C     C_R   0.444383 0.867281 0.475226 -0.070662
C22   C     C_R   0.558390 0.130838 0.514373 -0.060256
C23   C     C_R   0.500222 0.501856 0.610856 0.883817
C24   C     C_R   0.500297 0.500189 0.389017 0.933122
C25   C     C_R   0.447805 0.973830 0.488896 0.020547
C26   C     C_R   0.553407 0.026335 0.496978 0.023479
C27   C     C_R   0.951348 0.403595 0.442883 -0.120032
C28   C     C_R   0.049633 0.607498 0.549631 -0.126020
C29   C     C_R   0.836025 0.413942 0.449163 0.072596
C30   C     C_R   0.164076 0.593102 0.546503 0.070105
C31   C     C_R   0.858004 0.541799 0.523852 0.050195
C32   C     C_R   0.142027 0.456618 0.476780 0.051074
C33   C     C_R   0.976567 0.539224 0.518010 -0.018083
C34   C     C_R   0.023980 0.464989 0.478685 -0.017543
C35   C     C_R   0.348310 0.549334 0.130268 0.560882
C36   C     C_R   0.537629 0.636871 0.883889 0.529375
C37   C     C_R   0.492853 0.677924 0.126712 0.600523
C38   C     C_R   0.361246 0.542093 0.884263 0.573206
C39   C     C_R   0.498889 0.680816 0.065578 -0.092745
C40   C     C_R   0.350050 0.545443 0.945799 -0.077648
C41   C     C_R   0.423882 0.612688 0.036429 -0.111070
C42   C     C_R   0.430793 0.606972 0.975242 -0.107401
C43   C     C_R   0.339656 0.553310 0.069177 -0.078850
C44   C     C_R   0.520318 0.661120 0.943498 -0.073159
C45   C     C_R   0.579011 0.746022 0.033536 0.149312
C46   C     C_R   0.261265 0.490285 0.978311 0.163794
C47   C     C_R   0.591266 0.734904 0.972204 0.169696
C48   C     C_R   0.254392 0.496974 0.040061 0.151679
N1    N     N_R   0.441964 0.592517 0.154296 -0.340172
N2    N     N_R   0.457495 0.580324 0.855489 -0.345232
N3    N     N_R   0.207800 0.519350 0.510590 -0.148595
N4    N     N_R   0.792200 0.480650 0.489410 -0.149817
O1    O     O_R   0.421690 0.658830 0.502820 -0.621182
O2    O     O_R   0.578310 0.341170 0.497180 -0.616469
O3    O     O_R   0.609320 0.646410 0.496030 -0.609233
O4    O     O_R   0.390680 0.353590 0.503970 -0.615480
O5    O     O_R   0.406170 0.506240 0.587240 -0.618247
O6    O     O_R   0.593830 0.493760 0.412760 -0.609940
O7    O     O_R   0.593790 0.493820 0.580450 -0.617592
O8    O     O_R   0.406210 0.506180 0.419550 -0.614870
O9    O     O_2   0.264536 0.505840 0.165260 -0.527772
O10   O     O_2   0.634823 0.666347 0.854592 -0.533415
O11   O     O_2   0.529411 0.761243 0.157926 -0.527035
O12   O     O_2   0.277774 0.501144 0.853049 -0.526012
Zn1   Zn    Zn3+2 0.374720 0.508290 0.504530 0.977030
Zn2   Zn    Zn3+2 0.625280 0.491710 0.495470 0.974902
N5    N     N_2   0.651987 0.816807 0.063520 -0.261499
H1    H     H_    0.735371 0.812137 0.052239 0.207094
C49   C     C_3   0.617974 0.922173 0.068699 -0.658877
H2    H     H_    0.626650 0.960475 0.025666 0.208850
H3    H     H_    0.671316 0.967321 0.099004 0.234170
H4    H     H_    0.530263 0.922792 0.086413 0.263118
N6    N     N_2   0.183126 0.423011 0.949235 -0.249591
H5    H     H_    0.102887 0.419201 0.967498 0.219335
C50   C     C_3   0.221185 0.321668 0.932939 -0.673686
H6    H     H_    0.230762 0.275113 0.972191 0.207281
H7    H     H_    0.302257 0.329076 0.907215 0.262179
H8    H     H_    0.159681 0.279349 0.905797 0.237489
C51   C     C_1   0.196490 0.379902 0.441468 0.283786
N7    N     N_1   0.239765 0.317437 0.413324 -0.181339
C52   C     C_1   0.802393 0.604611 0.567571 0.280421
N8    N     N_1   0.758247 0.655210 0.602826 -0.181853
C53   C     C_1   0.235989 0.657611 0.581992 0.278664
N9    N     N_1   0.291440 0.710564 0.610926 -0.199098
C54   C     C_1   0.762523 0.353616 0.412324 0.274014
N10   N     N_1   0.704577 0.305168 0.382436 -0.218237
C55   C     C_1   0.990617 0.332565 0.397551 0.139574
N11   N     N_1   0.020083 0.275737 0.361092 -0.183937
C56   C     C_1   0.012775 0.697951 0.582110 0.164315
N12   N     N_1   0.985124 0.770708 0.607900 -0.176078
N13   N     N_2   0.671399 0.800609 0.939174 -0.261018
H9    H     H_    0.746225 0.820156 0.956818 0.218028
C57   C     C_3   0.628763 0.882736 0.906438 -0.664718
H10   H     H_    0.660476 0.877207 0.860121 0.273273
H11   H     H_    0.658010 0.959949 0.923848 0.197950
H12   H     H_    0.536394 0.877549 0.908346 0.232222
N14   N     N_2   0.161686 0.447489 0.072738 -0.262237
H13   H     H_    0.084662 0.468001 0.062140 0.211008
C58   C     C_3   0.167433 0.338338 0.085329 -0.663385
H14   H     H_    0.144214 0.325287 0.132321 0.272469
H15   H     H_    0.252367 0.312225 0.075357 0.238128
H16   H     H_    0.107929 0.290568 0.059418 0.200102
N15   N     N_2   0.472087 0.372041 0.813370 -0.296674
H17   H     H_    0.440731 0.301929 0.796940 0.259294
C59   C     C_3   0.566814 0.361241 0.847705 -0.785672
H18   H     H_    0.550051 0.293131 0.876742 0.233405
H19   H     H_    0.582527 0.430756 0.875691 0.255366
H20   H     H_    0.642382 0.349378 0.818971 0.245421
N16   N     N_2   0.663103 0.655045 0.207319 -0.256528
H21   H     H_    0.712615 0.706545 0.230566 0.240895
C60   C     C_3   0.727196 0.585492 0.170737 -0.783205
H22   H     H_    0.796198 0.630920 0.146400 0.246244
H23   H     H_    0.674791 0.544635 0.138378 0.235905
H24   H     H_    0.762713 0.527362 0.198064 0.236995
N17   N     N_2   0.485709 0.331994 0.690979 -0.321117
H25   H     H_    0.438275 0.319447 0.655474 0.222828
C61   C     C_3   0.592202 0.287693 0.682554 -0.748029
H26   H     H_    0.580022 0.205916 0.667019 0.240934
H27   H     H_    0.633622 0.287658 0.724165 0.252051
H28   H     H_    0.646457 0.332762 0.649718 0.257244
N18   N     N_2   0.630659 0.666458 0.333871 -0.304598
H29   H     H_    0.715225 0.663785 0.325509 0.232344
C62   C     C_3   0.593802 0.770998 0.336360 -0.767073
H30   H     H_    0.598190 0.805588 0.292243 0.258232
H31   H     H_    0.647828 0.820949 0.363993 0.237296
H32   H     H_    0.506942 0.770019 0.355268 0.249214
C63   C     C_1   0.522141 0.710961 0.655405 0.245983
N19   N     N_1   0.538370 0.781253 0.624571 -0.199229
C64   C     C_1   0.427268 0.329604 0.312921 0.215806
N20   N     N_1   0.407107 0.246267 0.330411 -0.178738
C65   C     C_1   0.469154 0.748124 0.775927 0.246168
N21   N     N_1   0.456784 0.831966 0.792687 -0.214290
C66   C     C_1   0.416190 0.367613 0.191682 0.244407
N22   N     N_1   0.394416 0.298503 0.160729 -0.218382
C67   C     C_1   0.656792 0.177556 0.540572 0.262168
N23   N     N_1   0.735366 0.214488 0.561116 -0.205984
C68   C     C_1   0.350116 0.815396 0.447842 0.257728
N24   N     N_1   0.275916 0.772996 0.425851 -0.188234
C69   C     C_1   0.258757 0.184464 0.533460 0.210349
N25   N     N_1   0.179561 0.224333 0.550051 -0.204896
C70   C     C_1   0.745859 0.811771 0.474044 0.219953
N26   N     N_1   0.827531 0.770375 0.466098 -0.210886
N27   N     N_2   0.757634 0.029045 0.477489 -0.308243
H33   H     H_    0.821793 0.998579 0.497562 0.238921
C71   C     C_3   0.786765 0.056958 0.417448 -0.747592
H34   H     H_    0.863758 0.109270 0.415142 0.250532
H35   H     H_    0.719235 0.098308 0.399485 0.260933
H36   H     H_    0.801423 0.986148 0.390560 0.233389
N28   N     N_2   0.241891 0.973441 0.499982 -0.310272
H37   H     H_    0.196535 0.978330 0.539458 0.237905
C72   C     C_3   0.177600 0.993558 0.450742 -0.719341
H38   H     H_    0.103604 0.937485 0.450956 0.246599
H39   H     H_    0.227891 0.983896 0.408977 0.253318
H40   H     H_    0.148687 0.073457 0.453265 0.241035

loop_
_geom_bond_atom_site_label_1
_geom_bond_atom_site_label_2
_ccdc_geom_bond_type
C55   N11   T    
C16   C21   A    
C27   C29   A    
N6    C50   S    
C41   C42   A    
C60   H22   S    
C21   C68   S    
C31   N4    A    
C30   N3    A    
O3    Zn2   S    
C61   H27   S    
C71   H34   S    
N4    Zn2   S    
C67   N23   T    
C39   C41   A    
C54   N10   T    
C23   O7    A    
C48   N14   S    
C59   H19   S    
C9    C63   S    
C17   C26   A    
C20   C69   S    
N16   C60   S    
O7    Zn2   S    
N3    Zn1   S    
C62   H31   S    
C14   N1    S    
N27   H33   S    
C23   O5    A    
N6    H5    S    
C72   H40   S    
C30   C53   S    
C49   H3    S    
C1    O1    A    
N14   C58   S    
C37   O11   S    
O6    Zn2   S    
C15   C22   A    
C53   N9    T    
C36   N2    A    
N17   C61   S    
C35   N1    A    
C72   H38   S    
C31   C33   A    
C28   C56   S    
C18   N28   S    
C35   C43   A    
C43   C48   A    
C29   C54   S    
C3    C13   A    
C44   C47   A    
C39   C45   A    
C40   C42   A    
C57   H11   S    
C5    N17   S    
C41   C43   A    
C18   C25   A    
C42   C44   A    
C36   O10   S    
C71   H35   S    
N14   H13   S    
C38   O12   S    
C45   C47   A    
C27   C34   A    
C15   C20   A    
C59   H20   S    
C46   C48   A    
N5    H1    S    
C62   H30   S    
C4    C6    A    
C2    O2    A    
C61   H28   S    
N13   H9    S    
C5    C7    A    
C17   C19   A    
C62   H32   S    
C6    C8    A    
C25   C26   A    
C52   N8    T    
C51   N7    T    
N5    C49   S    
C32   C34   A    
C49   H4    S    
C40   C46   A    
C50   H6    S    
C32   N3    A    
C45   N5    S    
N13   C57   S    
C37   N1    A    
O4    Zn1   S    
C58   H14   S    
C24   O8    A    
C33   C34   A    
C60   H23   S    
C1    C16   S    
C27   C55   S    
C2    C15   S    
C50   H7    S    
N18   H29   S    
C10   C12   A    
O2    Zn2   S    
C24   O6    A    
C58   H15   S    
C12   C14   A    
C28   C33   A    
C57   H12   S    
C12   C66   S    
C9    C11   A    
C66   N22   T    
N15   C59   S    
C36   C44   A    
C63   N19   T    
C71   H36   S    
O1    Zn1   S    
C64   N20   T    
C59   H18   S    
C3    N15   S    
N27   C71   S    
C21   C25   A    
C47   N13   S    
O5    Zn1   S    
C3    C5    A    
C11   C65   S    
O8    Zn1   S    
C69   N25   T    
C38   N2    A    
C4    N16   S    
C68   N24   T    
C61   H26   S    
C31   C52   S    
C22   C67   S    
C17   N27   S    
C57   H10   S    
N28   C72   S    
C1    O3    A    
C10   C64   S    
C37   C39   A    
C2    O4    A    
N28   H37   S    
C32   C51   S    
C38   C40   A    
C11   C13   A    
N17   H25   S    
C35   O9    S    
C16   C19   A    
C7    C23   S    
C28   C30   A    
C8    C24   S    
C60   H24   S    
C18   C20   A    
C72   H39   S    
C4    C14   A    
C49   H2    S    
C50   H8    S    
N18   C62   S    
C13   N2    S    
C7    C9    A    
C58   H16   S    
C8    C10   A    
C22   C26   A    
N16   H21   S    
N15   H17   S    
C6    N18   S    
C56   N12   T    
C70   N26   T    
C19   C70   S    
C46   N6    S    
C65   N21   T    
C29   N4    A    
