data_mof_unit_30867.cif
_audit_creation_date              2012-12-11T14:19:35-0500
_audit_creation_method            fapswitch 2.2
_symmetry_space_group_name_H-M    P1
_symmetry_Int_Tables_number       1
_space_group_crystal_system       triclinic
_cell_length_a                    19.401403
_cell_length_b                    7.24125
_cell_length_c                    17.743337
_cell_angle_alpha                 89.985469
_cell_angle_beta                  107.61579
_cell_angle_gamma                 89.995184
_cell_volume                      2375.87592201

loop_
_atom_site_label
_atom_site_type_symbol
_atom_type_description
_atom_site_fract_x
_atom_site_fract_y
_atom_site_fract_z
_atom_type_partial_charge
O1    O     O_R   0.414820 0.494320 0.416790 -0.540787
O2    O     O_R   0.585180 0.994320 0.583210 -0.540752
O3    O     O_R   0.560270 0.819500 0.430140 -0.543620
O4    O     O_R   0.439730 0.319500 0.569860 -0.543878
C1    C     C_R   0.581400 0.655540 0.414927 0.711158
C2    C     C_R   0.418588 0.155523 0.585045 0.709923
O5    O     O_R   0.413840 0.823740 0.407440 -0.538514
O6    O     O_R   0.586160 0.323740 0.592560 -0.538375
O7    O     O_R   0.437710 0.998590 0.560350 -0.540127
O8    O     O_R   0.562290 0.498590 0.439650 -0.539714
C3    C     C_R   0.387410 0.654776 0.385635 0.754206
C4    C     C_R   0.612167 0.154610 0.614962 0.754451
O9    O     O_3   0.508000 0.662290 0.550200 -0.381200
O10   O     O_3   0.492000 0.162290 0.449800 -0.380815
V1    V     V_3+5 0.498520 0.935380 0.490690 1.393646
V2    V     V_3+5 0.501480 0.435380 0.509310 1.393545
C5    C     C_2   0.777752 0.273907 0.796348 0.318875
C6    C     C_2   0.208157 0.777499 0.222021 0.316415
C7    C     C_2   0.819399 0.119082 0.817646 -0.327403
C8    C     C_2   0.179330 0.618454 0.183913 -0.327737
H1    H     H_    0.805240 0.994144 0.782845 0.093550
H2    H     H_    0.206314 0.487625 0.201557 0.092970
C9    C     C_2   0.713420 0.283940 0.723862 -0.209795
C10   C     C_2   0.279021 0.784823 0.286504 -0.209650
C11   C     C_2   0.677840 0.137356 0.684052 -0.342827
C12   C     C_2   0.319633 0.638155 0.319261 -0.342840
H3    H     H_    0.692601 0.421063 0.704869 0.146240
H4    H     H_    0.297464 0.921129 0.309481 0.147172
H5    H     H_    0.695497 0.998449 0.703238 0.132829
H6    H     H_    0.302403 0.499395 0.299759 0.132189
C13   C     C_R   0.323920 0.300192 0.635771 -0.219461
C14   C     C_R   0.676024 0.800291 0.364105 -0.218273
C15   C     C_R   0.368808 0.148296 0.634099 -0.078209
C16   C     C_R   0.631155 0.648382 0.365818 -0.078242
C17   C     C_R   0.365541 0.990295 0.679111 -0.221161
C18   C     C_R   0.634409 0.490457 0.320781 -0.220556
C19   C     C_R   0.318836 0.984346 0.726073 0.090181
C20   C     C_R   0.681100 0.484566 0.273792 0.090352
C21   C     C_R   0.273589 0.136683 0.726786 0.055739
C22   C     C_R   0.726352 0.636877 0.273078 0.054931
C23   C     C_R   0.275900 0.294678 0.681094 0.089064
C24   C     C_R   0.724039 0.794821 0.318766 0.089112
C25   C     C_R   0.316681 0.828948 0.772574 -0.190984
C26   C     C_R   0.683253 0.329226 0.227284 -0.190684
C27   C     C_R   0.269577 0.823458 0.818682 -0.188071
C28   C     C_R   0.730390 0.323723 0.181212 -0.190170
C29   C     C_R   0.223667 0.973099 0.819003 0.087660
C30   C     C_R   0.776338 0.473280 0.180943 0.090706
C31   C     C_R   0.225928 0.131009 0.773250 0.055605
C32   C     C_R   0.774046 0.631189 0.226650 0.055724
C33   C     C_R   0.180646 0.283283 0.773917 0.089820
C34   C     C_R   0.819373 0.783384 0.226022 0.091523
C35   C     C_R   0.182806 0.438695 0.727422 -0.191068
C36   C     C_R   0.817189 0.938775 0.272486 -0.192711
C37   C     C_R   0.229974 0.444287 0.681391 -0.189195
C38   C     C_R   0.769979 0.944393 0.318472 -0.188249
C39   C     C_R   0.175728 0.967696 0.864426 -0.215547
C40   C     C_R   0.824381 0.467736 0.135661 -0.223220
C41   C     C_R   0.130735 0.119475 0.866018 -0.077333
C42   C     C_R   0.869366 0.619482 0.134052 -0.079966
C43   C     C_R   0.133908 0.277302 0.820839 -0.220507
C44   C     C_R   0.866181 0.777321 0.179181 -0.225490
H7    H     H_    0.325558 0.422017 0.600807 0.125694
H8    H     H_    0.674391 0.922077 0.399068 0.125695
H9    H     H_    0.400106 0.872994 0.678510 0.129089
H10   H     H_    0.599855 0.373157 0.321397 0.129146
H11   H     H_    0.351263 0.711141 0.773067 0.134380
H12   H     H_    0.648658 0.211454 0.226775 0.134534
H13   H     H_    0.268840 0.701582 0.853880 0.135239
H14   H     H_    0.731136 0.201888 0.146017 0.134001
H15   H     H_    0.174249 0.845983 0.899509 0.127265
H16   H     H_    0.825986 0.345861 0.100765 0.122444
H17   H     H_    0.099281 0.394551 0.821300 0.130607
H18   H     H_    0.900869 0.894470 0.178764 0.126554
H19   H     H_    0.148203 0.556472 0.726903 0.134367
H20   H     H_    0.851819 0.056496 0.273027 0.133387
H21   H     H_    0.230736 0.566197 0.646221 0.134841
H22   H     H_    0.769213 0.066276 0.353630 0.135149
O11   O     O_R   0.937810 0.773680 0.060480 -0.540273
O12   O     O_R   0.062190 0.273680 0.939520 -0.538807
O13   O     O_R   0.086190 0.439740 0.092580 -0.547723
O14   O     O_R   0.913810 0.939740 0.907420 -0.545778
C45   C     C_R   0.111977 0.609212 0.115595 0.742668
C46   C     C_R   0.886806 0.109003 0.885925 0.745596
O15   O     O_R   0.939760 0.444210 0.069890 -0.543555
O16   O     O_R   0.060240 0.944210 0.930110 -0.543641
O17   O     O_R   0.914790 0.269640 0.916760 -0.504938
O18   O     O_R   0.085210 0.769640 0.083240 -0.505753
C47   C     C_R   0.919121 0.612397 0.084931 0.689841
C48   C     C_R   0.080972 0.112395 0.915162 0.700261
O19   O     O_3   0.992050 0.601530 0.949880 -0.373142
O20   O     O_3   0.007950 0.101530 0.050120 -0.376414
V3    V     V_3+5 0.001480 0.328340 0.009300 1.421830
V4    V     V_3+5 0.998520 0.828340 0.990700 1.427512
N1    N     N_2   0.795372 0.438030 0.842688 -0.482127
H23   H     H_    0.785791 0.557830 0.809656 0.237691
C49   C     C_3   0.764843 0.445749 0.907589 -0.500474
H24   H     H_    0.783974 0.572553 0.942889 0.181154
H25   H     H_    0.782180 0.324147 0.946976 0.185527
H26   H     H_    0.704819 0.449310 0.884690 0.176861
N2    N     N_2   0.170890 0.948739 0.201009 -0.483100
H27   H     H_    0.204755 0.059836 0.203299 0.235565
C50   C     C_3   0.118400 0.985716 0.242204 -0.490262
H28   H     H_    0.089555 0.116559 0.219890 0.193640
H29   H     H_    0.145869 0.999813 0.306721 0.167302
H30   H     H_    0.077833 0.872739 0.231834 0.187697

loop_
_geom_bond_atom_site_label_1
_geom_bond_atom_site_label_2
_ccdc_geom_bond_type
O4    V2    S    
N2    H27   S    
O14   V4    S    
N1    H23   S    
O1    C3    A    
C46   O17   A    
O2    C4    A    
C2    O7    A    
C49   H24   S    
C29   C31   A    
C42   C47   S    
O5    C3    A    
C5    C9    S    
C6    C10   S    
C7    H1    S    
C10   C12   D    
C37   H21   S    
C18   H10   S    
C39   C41   A    
C17   H9    S    
C40   C42   A    
C38   H22   S    
C42   C44   A    
C27   C29   A    
C23   C37   A    
O16   V4    S    
C24   C38   A    
O15   V3    S    
C26   C28   A    
C31   C33   A    
C33   C43   A    
C32   C34   A    
C13   C15   A    
C5    N1    S    
C9    H3    S    
C16   C18   A    
C22   C24   A    
C45   O18   A    
N2    C50   S    
C35   H19   S    
O13   C45   A    
C34   C36   A    
O18   V4    S    
C35   C37   A    
C11   H5    S    
C36   C38   A    
C41   C43   A    
C28   H14   S    
C27   H13   S    
C13   H7    S    
C14   H8    S    
O11   V4    S    
C21   C23   A    
O16   C48   A    
O15   C47   A    
C5    C7    D    
O5    V1    S    
C3    C12   S    
C43   H17   S    
C33   C35   A    
C6    N2    S    
C14   C16   A    
C19   C25   A    
C25   H11   S    
C20   C26   A    
C29   C39   A    
O13   V3    S    
O6    C4    A    
C1    C16   S    
C50   H29   S    
O1    V2    S    
C39   H15   S    
O2    V1    S    
C25   C27   A    
C36   H20   S    
O4    C2    A    
C21   C31   A    
C8    H2    S    
C12   H6    S    
O14   C46   A    
C26   H12   S    
C7    C46   S    
C49   H26   S    
O3    V1    S    
C49   H25   S    
C13   C23   A    
C17   C19   A    
C10   H4    S    
O3    C1    A    
N1    C49   S    
O9    V2    S    
C30   C40   A    
C2    C15   S    
C4    C11   S    
C18   C20   A    
O7    V1    S    
C1    O8    A    
C19   C21   A    
O8    V2    S    
O19   V4    S    
C20   C22   A    
C40   H16   S    
C22   C32   A    
O17   V3    S    
C30   C32   A    
O20   V3    S    
C15   C17   A    
C50   H30   S    
C6    C8    D    
C9    C11   D    
O12   C48   A    
O11   C47   A    
C28   C30   A    
O6    V2    S    
C8    C45   S    
C50   H28   S    
C14   C24   A    
O10   V1    S    
C44   H18   S    
C34   C44   A    
O12   V3    S    
C41   C48   S    
