data_mof_unit_40354.cif
_audit_creation_date              2012-12-10T17:18:56-0500
_audit_creation_method            fapswitch 2.2
_symmetry_space_group_name_H-M    P1
_symmetry_Int_Tables_number       1
_space_group_crystal_system       triclinic
_cell_length_a                    9.66642
_cell_length_b                    10.859275
_cell_length_c                    13.43673
_cell_angle_alpha                 94.96754
_cell_angle_beta                  72.086821
_cell_angle_gamma                 86.816465
_cell_volume                      1332.01065788

loop_
_atom_site_label
_atom_site_type_symbol
_atom_type_description
_atom_site_fract_x
_atom_site_fract_y
_atom_site_fract_z
_atom_type_partial_charge
C1    C     C_R   0.496349 0.738064 0.498360 0.818773
C2    C     C_R   0.426511 0.501518 0.981903 -0.127827
C3    C     C_R   0.455456 0.459148 0.873774 -0.132634
C4    C     C_R   0.532949 0.471967 0.032228 0.080515
C5    C     C_R   0.651347 0.382776 0.978921 0.037923
C6    C     C_R   0.662915 0.325096 0.879642 -0.305138
C7    C     C_R   0.565124 0.360389 0.826996 0.451121
C8    C     C_R   0.530637 0.532190 0.131120 0.436812
C9    C     C_R   0.741721 0.398020 0.128199 -0.238517
C10   C     C_R   0.371181 0.514983 0.816757 -0.212916
C11   C     C_R   0.216032 0.910391 0.560960 -0.116586
C12   C     C_R   0.420903 0.502083 0.700337 0.948256
C13   C     C_R   0.092249 0.986221 0.621270 -0.116713
C14   C     C_R   0.106185 0.105758 0.660466 -0.171489
C15   C     C_R   0.242147 0.152918 0.631577 -0.094473
C16   C     C_R   0.366861 0.079694 0.563774 0.100557
C17   C     C_R   0.357390 0.952006 0.539872 0.009481
C18   C     C_R   0.489255 0.873472 0.493892 -0.226022
C19   C     C_R   0.621978 0.927182 0.452064 0.501913
C20   C     C_R   0.625741 0.054891 0.464168 -0.296248
C21   C     C_R   0.499346 0.131477 0.517130 -0.169488
C22   C     C_R   0.933330 0.304901 0.369196 0.355347
C23   C     C_R   0.500124 0.263868 0.506625 0.848656
C24   C     C_R   0.041798 0.205540 0.321149 0.392935
C25   C     C_R   0.184492 0.221139 0.315129 -0.368370
C26   C     C_R   0.217573 0.323613 0.366863 -0.137376
C27   C     C_R   0.109709 0.410908 0.435257 0.082259
C28   C     C_R   0.960483 0.406801 0.436079 -0.032653
C29   C     C_R   0.891024 0.581838 0.565718 0.584337
C30   C     C_R   0.038695 0.582524 0.565388 0.344344
C31   C     C_R   0.578658 0.499378 0.299764 0.777525
C32   C     C_R   0.756991 0.350076 0.025861 -0.175438
C33   C     C_R   0.623815 0.483079 0.183879 -0.191082
C34   C     C_R   0.249446 0.599844 0.870274 0.308979
C35   C     C_R   0.204599 0.621462 0.980479 0.248481
C36   C     C_R   0.287871 0.565011 0.036365 0.446904
Cu1   Cu    Cu3+1 0.359340 0.500010 0.500010 0.956774
Cu2   Cu    Cu3+1 0.640660 0.499990 0.499990 1.040743
H1    H     H_    0.818987 0.364165 0.164750 0.192556
H2    H     H_    0.196442 0.824090 0.524989 0.197733
H3    H     H_    0.985289 0.952030 0.637371 0.173378
H4    H     H_    0.010877 0.163627 0.709901 0.128410
H5    H     H_    0.248684 0.246990 0.662542 0.160763
H6    H     H_    0.727463 0.094069 0.428613 0.192350
H7    H     H_    0.272614 0.155677 0.265949 0.178733
H8    H     H_    0.331327 0.327829 0.350628 0.225136
H9    H     H_    0.749153 0.251992 0.842528 0.130061
H10   H     H_    0.848203 0.282666 0.985036 0.154781
N1    N     N_R   0.852480 0.498790 0.499000 -0.233516
N2    N     N_R   0.148360 0.498710 0.498970 -0.253254
O1    O     O_R   0.381190 0.680360 0.500010 -0.632194
O2    O     O_R   0.618760 0.680340 0.500000 -0.481855
O3    O     O_R   0.323240 0.499990 0.650990 -0.578063
O4    O     O_R   0.560820 0.499960 0.650980 -0.547152
O5    O     O_R   0.381240 0.319660 0.500000 -0.622537
O6    O     O_R   0.618810 0.319640 0.499990 -0.509845
O7    O     O_R   0.439180 0.500040 0.349020 -0.582635
O8    O     O_R   0.676760 0.500010 0.349010 -0.510383
O9    O     O_3   0.784768 0.669197 0.631075 -0.543481
C37   C     C_3   0.757682 0.647552 0.737456 -0.197612
H11   H     H_    0.827104 0.702261 0.773404 0.206136
H12   H     H_    0.772597 0.547580 0.748384 0.134617
H13   H     H_    0.642629 0.680605 0.781654 0.164139
O10   O     O_3   0.809597 0.308001 0.340642 -0.706355
H14   H     H_    0.804580 0.232101 0.295940 0.328883
O11   O     O_3   0.011404 0.103749 0.263910 -0.607854
C38   C     C_3   0.050516 0.993139 0.300709 -0.233182
H15   H     H_    0.170386 0.975935 0.282863 0.161297
H16   H     H_    0.994356 0.993009 0.386536 0.179830
H17   H     H_    0.017084 0.914095 0.258492 0.206859
O12   O     O_3   0.066444 0.670495 0.634700 -0.744824
H18   H     H_    0.169153 0.657995 0.629986 0.405942
O13   O     O_3   0.447395 0.643801 0.170293 -0.689020
H19   H     H_    0.473058 0.682499 0.230967 0.304129
O14   O     O_3   0.176878 0.661001 0.812387 -0.713495
H20   H     H_    0.099044 0.722102 0.858752 0.382414
O15   O     O_3   0.225979 0.561946 0.143370 -0.537827
C39   C     C_3   0.133304 0.464936 0.159473 -0.293710
H21   H     H_    0.198457 0.373637 0.142962 0.175197
H22   H     H_    0.057144 0.466519 0.111921 0.161875
H23   H     H_    0.064504 0.477414 0.242596 0.200167
O16   O     O_3   0.077446 0.695957 0.032042 -0.748780
H24   H     H_    0.070863 0.716428 0.106690 0.352387
O17   O     O_3   0.568745 0.293426 0.733762 -0.746245
H25   H     H_    0.651167 0.227952 0.712511 0.318192
O18   O     O_3   0.750202 0.855279 0.398202 -0.569359
C40   C     C_3   0.749565 0.820877 0.294624 -0.282847
H26   H     H_    0.846436 0.755145 0.254047 0.195923
H27   H     H_    0.756197 0.903305 0.250124 0.172991
H28   H     H_    0.652297 0.771988 0.292913 0.121485

loop_
_geom_bond_atom_site_label_1
_geom_bond_atom_site_label_2
_ccdc_geom_bond_type
C40   H26   S    
C16   C21   A    
O13   H19   S    
C19   C20   A    
C4    C8    A    
C19   O18   S    
C13   H3    S    
C30   O12   S    
C23   O6    A    
Cu2   N1    S    
C29   N1    A    
O15   C39   S    
C1    C18   S    
C29   C30   A    
C37   H13   S    
C31   O8    A    
C18   C19   A    
C3    C7    A    
C36   O15   S    
C5    C6    A    
Cu1   O1    S    
C39   H22   S    
Cu2   O2    S    
C15   C16   A    
C9    H1    S    
C37   H12   S    
C34   C35   A    
C9    C32   A    
Cu2   O8    S    
C29   O9    S    
C16   C17   A    
C31   C33   S    
C12   O3    A    
C27   N2    A    
C24   O11   S    
C34   O14   S    
C14   H4    S    
C5    C32   A    
Cu1   O3    S    
C7    O17   S    
C30   N2    A    
O9    C37   S    
C22   C28   A    
C13   C14   A    
C9    C33   A    
C32   H10   S    
C20   H6    S    
C35   O16   S    
C6    H9    S    
C38   H15   S    
O17   H25   S    
C39   H21   S    
C25   C26   A    
C37   H11   S    
C38   H16   S    
C35   C36   A    
C2    C4    A    
O14   H20   S    
Cu1   Cu2   S    
C28   N1    A    
Cu2   O4    S    
C17   C18   A    
C26   C27   A    
C10   C34   A    
C24   C25   A    
C1    O1    A    
C10   C12   S    
C21   C23   S    
C22   C24   A    
C25   H7    S    
C2    C36   A    
C11   C17   A    
O18   C40   S    
C4    C5    A    
C23   O5    A    
C6    C7    A    
C38   H17   S    
O10   H14   S    
C31   O7    A    
C40   H27   S    
C2    C3    A    
C15   H5    S    
O12   H18   S    
C3    C10   A    
Cu1   N2    S    
C11   C13   A    
C39   H23   S    
C8    O13   S    
O11   C38   S    
C8    C33   A    
C11   H2    S    
C1    O2    A    
Cu1   O7    S    
C26   H8    S    
C22   O10   S    
Cu1   O5    S    
Cu2   O6    S    
C20   C21   A    
O16   H24   S    
C40   H28   S    
C27   C28   A    
C14   C15   A    
C12   O4    A    
