data_mof_unit_29442.cif
_audit_creation_date              2012-12-10T17:30:28-0500
_audit_creation_method            fapswitch 2.2
_symmetry_space_group_name_H-M    P1
_symmetry_Int_Tables_number       1
_space_group_crystal_system       triclinic
_cell_length_a                    12.067714
_cell_length_b                    12.811328
_cell_length_c                    14.849738
_cell_angle_alpha                 90.137181
_cell_angle_beta                  85.220404
_cell_angle_gamma                 92.979587
_cell_volume                      2284.73989916

loop_
_atom_site_label
_atom_site_type_symbol
_atom_type_description
_atom_site_fract_x
_atom_site_fract_y
_atom_site_fract_z
_atom_type_partial_charge
C1    C     C_R   0.521846 0.700172 0.498647 0.877174
C2    C     C_R   0.376668 0.140120 0.456670 -0.212853
C3    C     C_R   0.454204 0.868664 0.465644 -0.296059
C4    C     C_R   0.545840 0.131373 0.534452 -0.297243
C5    C     C_R   0.456433 0.975213 0.477546 0.184989
C6    C     C_R   0.543290 0.024752 0.522971 0.184224
C7    C     C_R   0.960599 0.413155 0.408642 -0.362488
C8    C     C_R   0.039333 0.586290 0.591709 -0.362314
C9    C     C_R   0.844100 0.420100 0.417027 0.133915
C10   C     C_R   0.155945 0.580353 0.582658 0.133239
C11   C     C_R   0.855765 0.535321 0.541239 -0.066660
C12   C     C_R   0.478146 0.299828 0.501366 0.876687
C13   C     C_R   0.144145 0.463758 0.459392 -0.068645
C14   C     C_R   0.973466 0.530405 0.533871 0.084079
C15   C     C_R   0.026420 0.468481 0.466875 0.084083
C16   C     C_R   0.499560 0.500163 0.672766 0.888065
C17   C     C_R   0.500379 0.499601 0.327225 0.889064
C18   C     C_R   0.487244 0.405110 0.187824 -0.244955
C19   C     C_R   0.505588 0.594280 0.812824 -0.247829
C20   C     C_R   0.500113 0.499718 0.232093 -0.037639
C21   C     C_R   0.498980 0.499643 0.767932 -0.039453
C22   C     C_R   0.506207 0.594837 0.187062 -0.277207
C23   C     C_R   0.506171 0.690125 0.951858 -0.287009
C24   C     C_R   0.494053 0.404422 0.812741 -0.273585
C25   C     C_R   0.500026 0.596967 0.093901 0.073057
C26   C     C_R   0.490661 0.402149 0.906693 0.073760
C27   C     C_R   0.493503 0.500137 0.047304 0.036803
C28   C     C_R   0.494771 0.498978 0.953484 0.037250
C29   C     C_R   0.487154 0.404263 0.094751 0.107712
C30   C     C_R   0.502557 0.594909 0.906029 0.107983
C31   C     C_R   0.503409 0.692526 0.045855 -0.003854
C32   C     C_R   0.485554 0.306592 0.954954 -0.006452
C33   C     C_R   0.502332 0.795867 0.091142 0.128105
C34   C     C_R   0.483054 0.308996 0.048933 -0.284703
C35   C     C_R   0.412753 0.820628 0.152802 -0.172956
C36   C     C_R   0.411449 0.918700 0.194312 -0.127703
C37   C     C_R   0.498702 0.993064 0.173863 -0.107177
C38   C     C_R   0.587396 0.969409 0.111804 -0.134007
C39   C     C_R   0.589171 0.871403 0.070337 -0.148173
C40   C     C_R   0.487454 0.203381 0.909624 0.129499
C41   C     C_R   0.399261 0.167450 0.859676 -0.166523
C42   C     C_R   0.403913 0.071533 0.814694 -0.133460
C43   C     C_R   0.495756 0.010365 0.820234 -0.120623
C44   C     C_R   0.582421 0.044415 0.871668 -0.130457
C45   C     C_R   0.464573 0.188691 0.499404 -0.036760
C46   C     C_R   0.578348 0.140476 0.916404 -0.149383
C47   C     C_R   0.217742 0.641826 0.647542 0.171207
C48   C     C_R   0.255401 0.745049 0.626623 -0.112407
C49   C     C_R   0.299412 0.809206 0.692557 -0.164971
C50   C     C_R   0.300909 0.772320 0.780935 -0.153263
C51   C     C_R   0.259529 0.670936 0.803136 -0.133432
C52   C     C_R   0.218198 0.605741 0.736746 -0.139662
C53   C     C_R   0.782688 0.362867 0.349432 0.169581
C54   C     C_R   0.741837 0.259620 0.366292 -0.115930
C55   C     C_R   0.696362 0.200557 0.297769 -0.162819
C56   C     C_R   0.535359 0.811306 0.500808 -0.031631
C57   C     C_R   0.696012 0.242812 0.211102 -0.149343
C58   C     C_R   0.740562 0.344098 0.192926 -0.129225
C59   C     C_R   0.783920 0.404002 0.261739 -0.137530
C60   C     C_R   0.626842 0.967105 0.555228 -0.231990
C61   C     C_R   0.372616 0.032799 0.445645 -0.239442
C62   C     C_R   0.622873 0.859795 0.544068 -0.213973
H1    H     H_    0.480176 0.332516 0.225931 0.135790
H2    H     H_    0.387979 0.829889 0.430851 0.145658
H3    H     H_    0.313902 0.185366 0.429219 0.152678
H4    H     H_    0.685424 0.814488 0.571755 0.151958
H5    H     H_    0.693704 0.004636 0.589898 0.141755
H6    H     H_    0.305433 0.995212 0.411403 0.134046
H7    H     H_    0.184878 0.415429 0.408086 0.131596
H8    H     H_    0.815029 0.583476 0.592678 0.131194
H9    H     H_    0.344118 0.764005 0.168604 0.133096
H10   H     H_    0.342568 0.937172 0.242054 0.122550
H11   H     H_    0.497244 0.068990 0.205907 0.116560
H12   H     H_    0.511928 0.667009 0.774911 0.136963
H13   H     H_    0.654904 0.026817 0.095527 0.116434
H14   H     H_    0.658385 0.854189 0.022351 0.120858
H15   H     H_    0.327900 0.214366 0.854659 0.130977
H16   H     H_    0.336465 0.044932 0.775311 0.128529
H17   H     H_    0.499948 0.936641 0.784719 0.120789
H18   H     H_    0.653096 0.996651 0.876441 0.119962
H19   H     H_    0.646596 0.166516 0.955323 0.117257
H20   H     H_    0.248709 0.776267 0.559739 0.126859
H21   H     H_    0.329977 0.888166 0.675467 0.139858
H22   H     H_    0.332858 0.822446 0.832549 0.136602
H23   H     H_    0.999521 0.365279 0.355863 0.149712
H24   H     H_    0.259370 0.642897 0.871850 0.145144
H25   H     H_    0.184479 0.527966 0.755108 0.126496
H26   H     H_    0.746856 0.224526 0.431966 0.130105
H27   H     H_    0.663352 0.121477 0.311448 0.147487
H28   H     H_    0.661735 0.197275 0.157769 0.118739
H29   H     H_    0.741203 0.376268 0.125536 0.141605
H30   H     H_    0.819747 0.481892 0.246572 0.126589
H31   H     H_    0.000454 0.634774 0.644056 0.149408
H32   H     H_    0.516125 0.666120 0.225599 0.146159
H33   H     H_    0.493185 0.333318 0.773223 0.145612
H34   H     H_    0.509695 0.762987 0.914327 0.148628
H35   H     H_    0.479134 0.236075 0.086383 0.149796
H36   H     H_    0.612406 0.170224 0.568802 0.150867
N1    N     N_R   0.207800 0.519350 0.516680 -0.118230
N2    N     N_R   0.792200 0.480650 0.483320 -0.117831
O1    O     O_R   0.421700 0.658830 0.504450 -0.624991
O2    O     O_R   0.578300 0.341170 0.495550 -0.624970
O3    O     O_R   0.609310 0.646410 0.493750 -0.626860
O4    O     O_R   0.390690 0.353590 0.506250 -0.627414
O5    O     O_R   0.406180 0.506230 0.637500 -0.612048
O6    O     O_R   0.593820 0.493770 0.362500 -0.610463
O7    O     O_R   0.593800 0.493820 0.626800 -0.625432
O8    O     O_R   0.406200 0.506180 0.373200 -0.626859
Zn1   Zn    Zn3+2 0.374730 0.508290 0.507150 0.942906
Zn2   Zn    Zn3+2 0.625270 0.491710 0.492850 0.945189

loop_
_geom_bond_atom_site_label_1
_geom_bond_atom_site_label_2
_ccdc_geom_bond_type
C25   C31   A    
C26   C32   A    
C16   C21   S    
C4    H36   S    
C27   C29   A    
C41   C42   A    
C35   C36   A    
C2    H3    S    
C34   H35   S    
C53   C59   A    
C11   H8    S    
C50   H22   S    
C3    H2    S    
C23   H34   S    
C40   C46   A    
C33   C39   A    
O3    Zn2   S    
C36   C37   A    
C19   C21   A    
C1    C56   S    
C24   C26   A    
C12   O4    A    
C41   H15   S    
C5    C6    A    
C11   C14   A    
C18   H1    S    
O1    Zn1   S    
N1    Zn1   S    
C17   C20   S    
O8    Zn1   S    
C60   C62   A    
C37   H11   S    
C16   O7    A    
C60   H5    S    
C22   C25   A    
C31   C33   S    
C58   H29   S    
C1    O3    A    
C2    C61   A    
C4    C45   A    
C7    C15   A    
C35   H9    S    
C22   H32   S    
C51   H24   S    
C44   C46   A    
C38   H13   S    
C19   H12   S    
C2    C45   A    
C38   C39   A    
C57   H28   S    
C62   H4    S    
C51   C52   A    
C23   C30   A    
C6    C60   A    
C44   H18   S    
C4    C6    A    
C17   O8    A    
C58   C59   A    
C53   C54   A    
C29   C34   A    
C11   N2    A    
C32   C34   A    
C13   N1    A    
C43   C44   A    
C12   O2    A    
C37   C38   A    
C46   H19   S    
C3    C56   A    
C47   C48   A    
C50   C51   A    
C5    C61   A    
C18   C29   A    
C39   H14   S    
C16   O5    A    
C48   C49   A    
C20   C22   A    
C42   H16   S    
C9    N2    A    
C55   C57   A    
O7    Zn2   S    
C56   C62   A    
O2    Zn2   S    
C9    C53   S    
C42   C43   A    
C1    O1    A    
C10   C47   S    
O6    Zn2   S    
C7    C9    A    
O5    Zn1   S    
C54   C55   A    
C40   C41   A    
C8    C14   A    
C14   C15   A    
C52   H25   S    
C8    H31   S    
C12   C45   S    
C3    C5    A    
C47   C52   A    
C25   C27   A    
C26   C28   A    
C49   H21   S    
C13   C15   A    
C55   H27   S    
C17   O6    A    
C24   H33   S    
C54   H26   S    
C61   H6    S    
C57   C58   A    
C7    H23   S    
C13   H7    S    
N2    Zn2   S    
C28   C30   A    
C33   C35   A    
C48   H20   S    
C18   C20   A    
C59   H30   S    
C32   C40   S    
C10   N1    A    
C8    C10   A    
C49   C50   A    
C21   C24   A    
C27   C28   A    
O4    Zn1   S    
C19   C30   A    
C43   H17   S    
C36   H10   S    
C23   C31   A    
