data_mof_unit_51361.cif
_audit_creation_date              2013-03-05T15:48:50-0500
_audit_creation_method            fapswitch 2.2
_symmetry_space_group_name_H-M    P1
_symmetry_Int_Tables_number       1
_space_group_crystal_system       triclinic
_cell_length_a                    10.219098
_cell_length_b                    10.64258
_cell_length_c                    27.744638
_cell_angle_alpha                 90.176014
_cell_angle_beta                  82.66699
_cell_angle_gamma                 94.323173
_cell_volume                      2984.17927807

loop_
_atom_site_label
_atom_site_type_symbol
_atom_site_description
_atom_site_fract_x
_atom_site_fract_y
_atom_site_fract_z
_atom_type_partial_charge
O1    O     O_R   0.431060 0.692470 0.504020 -0.570473
O2    O     O_R   0.568940 0.307530 0.495980 -0.583384
O3    O     O_R   0.651120 0.659650 0.491200 -0.626994
O4    O     O_R   0.348880 0.340350 0.508800 -0.650517
C1    C     C_R   0.554513 0.733060 0.497289 0.921627
C2    C     C_R   0.446592 0.266604 0.506201 0.902337
O5    O     O_R   0.389980 0.516390 0.577660 -0.569844
O6    O     O_R   0.610020 0.483610 0.422340 -0.545882
O7    O     O_R   0.610040 0.483570 0.564830 -0.635808
O8    O     O_R   0.389960 0.516430 0.435170 -0.609003
C3    C     C_R   0.501728 0.500422 0.593859 0.950676
C4    C     C_R   0.498364 0.501902 0.406010 0.929674
Zn1   Zn    Zn3+2 0.353060 0.521910 0.508560 0.985014
Zn2   Zn    Zn3+2 0.646940 0.478090 0.491440 1.015938
C5    C     C_R   0.589687 0.628274 0.818692 0.594364
C6    C     C_R   0.444989 0.418213 0.178414 0.594934
O9    O     O_2   0.637433 0.729340 0.790886 -0.525558
O10   O     O_2   0.425120 0.309397 0.204082 -0.521285
N1    N     N_R   0.539623 0.523298 0.796968 -0.335025
N2    N     N_R   0.477699 0.527488 0.201347 -0.335719
C7    C     C_R   0.494712 0.416147 0.822636 0.572371
C8    C     C_R   0.501589 0.639972 0.177184 0.576927
C9    C     C_R   0.612623 0.444026 0.716003 0.015853
C10   C     C_R   0.605731 0.540362 0.270231 0.006951
C11   C     C_R   0.593926 0.429385 0.667104 0.219767
C12   C     C_R   0.611610 0.536242 0.320495 0.229438
C13   C     C_R   0.430545 0.586958 0.676452 0.000060
C14   C     C_R   0.370780 0.490560 0.334375 0.014328
C15   C     C_R   0.442575 0.594005 0.726394 0.072424
C16   C     C_R   0.366042 0.501065 0.284225 0.073245
C17   C     C_R   0.534875 0.524001 0.745610 0.254442
C18   C     C_R   0.483275 0.523874 0.252581 0.258029
C19   C     C_R   0.538912 0.522137 0.896828 -0.134746
C20   C     C_R   0.473983 0.530932 0.101817 -0.134066
C21   C     C_R   0.589751 0.630935 0.869559 -0.069619
C22   C     C_R   0.434350 0.418870 0.128464 -0.068195
C23   C     C_R   0.644247 0.735890 0.893500 0.040024
C24   C     C_R   0.379119 0.313640 0.105102 0.042145
C25   C     C_R   0.500396 0.410707 0.872723 -0.018985
C26   C     C_R   0.502487 0.644403 0.126481 -0.019884
C27   C     C_R   0.507715 0.505218 0.646611 -0.202412
C28   C     C_R   0.493883 0.509173 0.352978 -0.211585
C29   C     C_R   0.532924 0.640378 0.023797 0.080226
C30   C     C_R   0.476175 0.413588 0.974953 0.079114
C31   C     C_R   0.448184 0.417644 0.026314 -0.060511
C32   C     C_R   0.563826 0.635616 0.972454 -0.062584
C33   C     C_R   0.485610 0.529348 0.050490 0.053670
C34   C     C_R   0.525754 0.524214 0.948213 0.052318
C35   C     C_R   0.538225 0.754898 0.049220 -0.158168
C36   C     C_R   0.466510 0.299437 0.949524 -0.158854
C37   C     C_R   0.527294 0.757996 0.099746 0.130528
C38   C     C_R   0.472234 0.297257 0.899261 0.133433
O11   O     O_2   0.526025 0.745942 0.202382 -0.510704
O12   O     O_2   0.442239 0.316415 0.799537 -0.514812
C39   C     C_R   0.637584 0.735634 0.944570 0.232513
C40   C     C_R   0.377709 0.316373 0.054461 0.230824
H1    H     H_    0.547885 0.844365 0.030437 0.191606
H2    H     H_    0.456539 0.209587 0.968014 0.191417
C41   C     C_2   0.582390 0.867955 0.499019 -0.101644
C42   C     C_2   0.423777 0.131753 0.516772 -0.097154
C43   C     C_2   0.510963 0.932380 0.533610 0.077515
C44   C     C_2   0.522029 0.068981 0.532169 0.133463
N3    N     N_2   0.842700 0.448890 0.480020 -0.066293
N4    N     N_2   0.157300 0.551110 0.519980 -0.064111
C45   C     C_2   0.925343 0.498502 0.508467 0.156467
C46   C     C_2   0.068036 0.475688 0.502388 0.155419
N5    N     N_3   0.338738 0.660475 0.656136 -0.413965
H3    H     H_    0.359113 0.755101 0.664431 0.184373
H4    H     H_    0.243142 0.632097 0.672350 0.200082
N6    N     N_3   0.250895 0.459265 0.366324 -0.442060
H5    H     H_    0.208531 0.372265 0.356214 0.188863
H6    H     H_    0.184968 0.528327 0.363147 0.204375
N7    N     N_3   0.301533 0.065759 0.507811 -0.469554
H7    H     H_    0.224772 0.104256 0.530206 0.196312
H8    H     H_    0.288153 0.082717 0.471732 0.185787
N8    N     N_3   0.675304 0.931058 0.461809 -0.479751
H9    H     H_    0.722947 0.864601 0.439485 0.233162
H10   H     H_    0.621318 0.980845 0.439705 0.201947
N9    N     N_3   0.100909 0.354975 0.483899 -0.493998
H11   H     H_    0.118860 0.298604 0.512688 0.215741
H12   H     H_    0.181832 0.365624 0.456903 0.237151
N10   N     N_3   0.876878 0.559970 0.552357 -0.484474
H13   H     H_    0.831946 0.492417 0.577433 0.257949
H14   H     H_    0.813170 0.627592 0.545297 0.224328
N11   N     N_3   0.131888 0.676835 0.528865 -0.350844
H15   H     H_    0.084340 0.684266 0.564277 0.200184
H16   H     H_    0.076054 0.710710 0.503243 0.180093
N12   N     N_3   0.890822 0.412464 0.433080 -0.302088
H17   H     H_    0.916576 0.319485 0.434222 0.192563
H18   H     H_    0.971382 0.473215 0.418493 0.197070
N13   N     N_3   0.360077 0.669845 0.758421 -0.427203
H19   H     H_    0.376807 0.763759 0.746952 0.214470
H20   H     H_    0.261076 0.640004 0.756543 0.193803
N14   N     N_3   0.242459 0.488537 0.264531 -0.428953
H21   H     H_    0.195628 0.399560 0.273641 0.221065
H22   H     H_    0.182378 0.557319 0.279823 0.210843
N15   N     N_3   0.713931 0.839467 0.865733 -0.353512
H23   H     H_    0.811220 0.850474 0.873888 0.235991
H24   H     H_    0.666476 0.921422 0.874916 0.227191
N16   N     N_3   0.312617 0.209664 0.133501 -0.354867
H25   H     H_    0.358375 0.127753 0.122884 0.229266
H26   H     H_    0.213544 0.199526 0.127367 0.234576
N17   N     N_R   0.736107 0.566525 0.338161 0.222583
O13   O     O_R   0.754287 0.669489 0.362627 -0.402492
O14   O     O_R   0.834034 0.495960 0.327181 -0.418758
N18   N     N_R   0.640923 0.321837 0.641281 0.208089
O15   O     O_R   0.766410 0.303719 0.634965 -0.439137
O16   O     O_R   0.555181 0.229170 0.634342 -0.414180
N19   N     N_3   0.723356 0.564129 0.236388 -0.412434
H27   H     H_    0.772473 0.648841 0.245602 0.243288
H28   H     H_    0.784899 0.491133 0.239190 0.233991
N20   N     N_3   0.704452 0.372338 0.737175 -0.416630
H29   H     H_    0.679488 0.276407 0.732454 0.261798
H30   H     H_    0.799239 0.395381 0.719039 0.224041
N21   N     N_3   0.540625 0.877536 0.123272 -0.359019
H31   H     H_    0.633352 0.921575 0.110338 0.226000
H32   H     H_    0.468467 0.933030 0.113096 0.195521
N22   N     N_3   0.454462 0.178364 0.875560 -0.367107
H33   H     H_    0.526171 0.120722 0.884684 0.192160
H34   H     H_    0.361535 0.136005 0.889242 0.228437
N23   N     N_R   0.723450 0.825567 0.966713 0.185219
O17   O     O_R   0.717341 0.946036 0.960461 -0.416183
O18   O     O_R   0.808966 0.786566 0.993139 -0.345669
N24   N     N_R   0.287375 0.228261 0.033522 0.185786
O19   O     O_R   0.199846 0.269333 0.008471 -0.344869
O20   O     O_R   0.291840 0.107407 0.039295 -0.416583
N25   N     N_3   0.643441 0.132025 0.544110 -0.349808
H35   H     H_    0.671574 0.086132 0.573997 0.236105
H36   H     H_    0.717930 0.121492 0.515233 0.203124
N26   N     N_3   0.428890 0.869290 0.573559 -0.428154
H37   H     H_    0.461386 0.904203 0.605584 0.189484
H38   H     H_    0.331748 0.893444 0.573406 0.224222

loop_
_geom_bond_atom_site_label_1
_geom_bond_atom_site_label_2
_geom_bond_distance
_ccdc_geom_bond_type
N3    C45   1.309695 D    
N3    N12   1.396533 S    
C13   C15   1.407874 A    
N7    H7    1.044862 S    
N1    C17   1.431991 S    
C23   N15   1.436159 S    
N15   H23   1.045494 S    
N11   H15   1.044577 S    
O5    C3    1.302192 A    
C46   N9    1.429501 S    
C19   C25   1.414409 A    
O1    C1    1.292774 A    
C40   N24   1.439471 S    
N1    C7    1.364142 A    
C10   C12   1.404454 A    
N19   H28   1.044802 S    
C7    O12   1.350030 S    
N18   O15   1.300790 A    
N21   H31   1.045771 S    
C42   N7    1.435831 S    
C35   H1    1.078737 S    
C42   C44   1.359862 D    
C5    C21   1.411575 A    
O4    Zn1   1.929530 S    
N22   H33   1.045707 S    
C4    C28   1.480328 S    
C39   N23   1.439051 S    
C5    N1    1.364398 A    
C31   C40   1.426441 A    
C35   C37   1.392475 A    
C32   C39   1.426520 A    
C36   C38   1.388471 A    
N6    H5    1.045167 S    
O6    C4    1.308093 A    
C31   C33   1.414760 A    
C25   C38   1.407750 A    
N7    H8    1.045462 S    
O2    C2    1.288986 A    
N25   H36   1.044272 S    
N20   H30   1.045038 S    
N20   H29   1.045480 S    
N15   H24   1.044846 S    
C11   N18   1.429702 S    
C8    O11   1.349180 S    
N11   H16   1.047376 S    
C32   C34   1.414819 A    
C41   C43   1.347787 D    
C1    C41   1.444272 S    
N8    H10   1.045769 S    
N5    H3    1.043888 S    
C36   H2    1.078379 S    
C2    C42   1.461082 S    
N8    H9    1.045544 S    
C24   N16   1.436141 S    
C11   C27   1.410205 A    
N13   H19   1.044870 S    
N9    H12   1.042104 S    
C29   C35   1.407267 A    
N21   H32   1.045028 S    
C37   N21   1.433397 S    
N5    H4    1.045039 S    
C9    C17   1.400525 A    
N26   H38   1.044577 S    
O7    Zn2   2.024405 S    
C10   C18   1.399775 A    
C9    N20   1.434966 S    
C12   N17   1.434955 S    
N13   H20   1.045000 S    
C13   C27   1.412976 A    
C7    C25   1.399781 A    
C6    N2    1.363894 A    
C8    C26   1.406497 A    
N16   H26   1.045482 S    
N14   H21   1.044940 S    
N17   O14   1.300889 A    
C6    O10   1.349914 S    
N14   H22   1.045062 S    
O7    C3    1.306694 A    
N23   O17   1.301521 A    
O3    Zn2   1.929530 S    
O8    C4    1.304579 A    
C43   N26   1.437065 S    
O4    C2    1.310602 A    
N12   H18   1.046836 S    
N10   H13   1.040895 S    
N10   H14   1.041253 S    
C20   C26   1.415713 A    
O1    Zn1   1.924528 S    
N25   H35   1.045619 S    
N4    N11   1.397340 S    
C15   N13   1.434826 S    
C30   C31   1.418343 A    
C12   C28   1.419554 A    
N24   O20   1.301542 A    
N2    C18   1.430607 S    
C30   C36   1.406352 A    
C5    O9    1.349095 S    
O6    Zn2   2.002488 S    
C21   C23   1.412475 A    
C14   N6    1.435484 S    
C10   N19   1.434571 S    
N2    C8    1.364258 A    
O3    C1    1.298631 A    
O8    Zn1   2.024402 S    
C26   C37   1.409713 A    
C14   C16   1.403509 A    
N26   H37   1.045203 S    
C15   C17   1.402044 A    
N19   H27   1.045551 S    
C6    C22   1.403955 A    
C22   C24   1.409440 A    
C16   C18   1.397839 A    
C45   N10   1.430419 S    
C44   N25   1.441313 S    
Zn1   N4    2.032301 S    
N18   O16   1.299631 A    
Zn2   N3    2.032300 S    
C14   C28   1.419762 A    
N16   H25   1.044072 S    
C19   C21   1.413282 A    
C3    C27   1.473195 S    
C20   C22   1.410358 A    
C9    C11   1.400629 A    
C43   C44   1.449929 S    
O2    Zn2   1.924526 S    
C29   C32   1.420756 A    
N22   H34   1.045761 S    
N23   O18   1.301403 A    
C13   N5    1.434740 S    
N9    H11   1.043288 S    
C23   C39   1.409831 A    
O5    Zn1   2.002490 S    
C24   C40   1.407324 A    
N12   H17   1.044525 S    
C16   N14   1.435813 S    
C45   C46   1.484613 S    
N17   O13   1.301151 A    
C19   C34   1.415055 A    
N6    H6    1.045028 S    
C20   C33   1.413956 A    
C29   C33   1.416473 A    
C41   N8    1.440921 S    
C30   C34   1.418706 A    
N4    C46   1.309760 D    
N24   O19   1.301434 A    
C38   N22   1.434287 S    
