data_mof_unit_58490.cif
_audit_creation_date              2013-03-05T16:11:10-0500
_audit_creation_method            fapswitch 2.2
_symmetry_space_group_name_H-M    P1
_symmetry_Int_Tables_number       1
_space_group_crystal_system       triclinic
_cell_length_a                    18.14631
_cell_length_b                    18.070063
_cell_length_c                    18.132441
_cell_angle_alpha                 120.061432
_cell_angle_beta                  89.710763
_cell_angle_gamma                 60.147677
_cell_volume                      4199.02694662

loop_
_atom_site_label
_atom_site_type_symbol
_atom_site_description
_atom_site_fract_x
_atom_site_fract_y
_atom_site_fract_z
_atom_type_partial_charge
Zn1   Zn    Zn3+2 0.618190 0.587870 0.793920 1.017740
Zn2   Zn    Zn3+2 0.381810 0.412130 0.206080 1.017729
Zn3   Zn    Zn3+2 0.793940 0.412090 0.793920 1.002269
Zn4   Zn    Zn3+2 0.206060 0.587910 0.206080 1.002183
Zn5   Zn    Zn3+2 0.793970 0.587840 0.793920 0.986226
Zn6   Zn    Zn3+2 0.206030 0.412160 0.206080 0.986295
Zn7   Zn    Zn3+2 0.793940 0.412130 0.618200 1.054687
Zn8   Zn    Zn3+2 0.206060 0.587870 0.381800 1.054686
O1    O     O_3   0.750010 0.499980 0.749990 -0.515554
O2    O     O_3   0.249990 0.500020 0.250010 -0.515547
O3    O     O_R   0.867280 0.265410 0.571220 -0.629885
O4    O     O_R   0.132720 0.734590 0.428780 -0.629879
O5    O     O_R   0.571230 0.734580 0.867270 -0.639397
O6    O     O_R   0.428770 0.265420 0.132730 -0.639406
O7    O     O_R   0.694200 0.438470 0.867270 -0.657840
O8    O     O_R   0.305800 0.561530 0.132730 -0.657858
O9    O     O_R   0.867340 0.561470 0.694210 -0.673978
O10   O     O_R   0.132660 0.438530 0.305790 -0.673979
O11   O     O_R   0.867310 0.438430 0.867270 -0.617039
O12   O     O_R   0.132690 0.561570 0.132730 -0.617275
O13   O     O_R   0.694200 0.438520 0.571220 -0.589997
O14   O     O_R   0.305800 0.561480 0.428780 -0.589999
O15   O     O_R   0.867340 0.561440 0.867270 -0.620050
O16   O     O_R   0.132660 0.438560 0.132730 -0.619950
O17   O     O_R   0.571190 0.561530 0.694210 -0.614405
O18   O     O_R   0.428810 0.438470 0.305790 -0.614404
O19   O     O_R   0.571190 0.561490 0.867270 -0.641090
O20   O     O_R   0.428810 0.438510 0.132730 -0.641095
O21   O     O_R   0.867310 0.438490 0.571220 -0.600996
O22   O     O_R   0.132690 0.561510 0.428780 -0.601009
O23   O     O_R   0.867280 0.265380 0.694210 -0.638039
O24   O     O_R   0.132720 0.734620 0.305790 -0.638100
O25   O     O_R   0.694250 0.734550 0.867270 -0.642666
O26   O     O_R   0.305750 0.265450 0.132730 -0.642644
C1    C     C_R   0.892265 0.216922 0.608133 0.819749
C2    C     C_R   0.107734 0.783078 0.391867 0.819772
C3    C     C_R   0.608843 0.783030 0.891015 0.810583
C4    C     C_R   0.391157 0.216970 0.108984 0.810575
C5    C     C_R   0.608724 0.500990 0.892718 0.794370
C6    C     C_R   0.391276 0.499006 0.107278 0.794373
C7    C     C_R   0.893740 0.497868 0.608800 0.862391
C8    C     C_R   0.106257 0.502135 0.391199 0.862381
C9    C     C_R   0.893319 0.497990 0.889371 0.930666
C10   C     C_R   0.106692 0.501999 0.110622 0.930585
C11   C     C_R   0.608944 0.501633 0.608496 1.002567
C12   C     C_R   0.391055 0.498367 0.391504 1.002572
C13   C     C_3   0.568051 0.494656 0.463226 0.185416
C14   C     C_3   0.431949 0.505343 0.536774 0.185412
C15   C     C_3   0.467207 0.581818 0.496192 0.132532
C16   C     C_3   0.532793 0.418181 0.503808 0.132534
C17   C     C_3   0.446793 0.498826 0.448941 -0.368824
C18   C     C_3   0.553207 0.501174 0.551059 -0.368823
C19   C     C_3   0.548084 0.411661 0.416580 0.160294
C20   C     C_3   0.451916 0.588338 0.583420 0.160286
C21   C     C_3   0.474046 0.964119 0.927618 -0.177040
C22   C     C_3   0.525954 0.035881 0.072381 -0.177069
C23   C     C_3   0.505837 0.036542 0.952732 -0.211262
C24   C     C_3   0.494163 0.963458 0.047267 -0.211276
H1    H     H_    0.509853 0.068291 0.915106 0.154109
H2    H     H_    0.490147 0.931709 0.084893 0.154113
H3    H     H_    0.453619 0.933025 0.867721 0.187435
H4    H     H_    0.546380 0.066975 0.132278 0.187424
C25   C     C_3   0.447288 0.102575 0.052069 -0.023388
C26   C     C_3   0.552712 0.897425 0.947930 -0.023405
C27   C     C_3   0.415440 0.031378 0.027483 0.141343
C28   C     C_3   0.584560 0.968622 0.972515 0.141363
C29   C     C_3   0.032175 0.401367 0.465663 0.329688
C30   C     C_3   0.967822 0.598632 0.534331 0.329684
C31   C     C_3   0.086559 0.448201 0.496083 -0.041037
C32   C     C_3   0.913438 0.551798 0.503909 -0.041031
C33   C     C_3   0.048832 0.501591 0.447239 -0.204940
C34   C     C_3   0.951163 0.498410 0.552755 -0.204936
C35   C     C_3   0.994925 0.453121 0.415963 -0.009995
C36   C     C_3   0.005073 0.546877 0.584029 -0.009991
C37   C     C_3   0.004356 0.031141 0.448450 0.121175
C38   C     C_3   0.995644 0.968859 0.551550 0.121178
C39   C     C_3   0.969129 0.964143 0.431987 -0.165333
C40   C     C_3   0.030870 0.035857 0.568013 -0.165325
H5    H     H_    0.944958 0.933100 0.375397 0.189311
H6    H     H_    0.055041 0.066900 0.624603 0.189301
C41   C     C_3   0.050175 0.897450 0.450176 -0.027773
C42   C     C_3   0.949824 0.102550 0.549824 -0.027771
C43   C     C_3   0.086159 0.963259 0.465514 -0.205345
C44   C     C_3   0.913841 0.036741 0.534486 -0.205329
H7    H     H_    0.157523 0.931303 0.436355 0.160413
H8    H     H_    0.842476 0.068697 0.563644 0.160412
C45   C     C_3   0.995588 0.419023 0.970734 0.255928
C46   C     C_3   0.004442 0.580945 0.029255 0.255736
C47   C     C_3   0.961012 0.510122 0.071526 -0.111866
C48   C     C_3   0.039025 0.489840 0.928455 -0.111944
C49   C     C_3   0.049103 0.502791 0.054775 -0.292784
C50   C     C_3   0.950926 0.497172 0.945205 -0.292911
C51   C     C_3   0.082471 0.411908 0.954472 0.225352
C52   C     C_3   0.917558 0.588056 0.045516 0.225102
C53   C     C_3   0.585233 0.442978 0.996237 0.125226
C54   C     C_3   0.414765 0.557009 0.003752 0.125212
C55   C     C_3   0.527785 0.400817 0.961796 0.112573
C56   C     C_3   0.472211 0.599172 0.038194 0.112560
C57   C     C_3   0.447526 0.498854 0.049007 -0.077180
C58   C     C_3   0.552473 0.501135 0.950983 -0.077167
C59   C     C_3   0.504630 0.541451 0.084259 -0.264017
C60   C     C_3   0.495368 0.458538 0.915731 -0.264020
H9    H     H_    0.507119 0.575400 0.154134 0.161651
H10   H     H_    0.492882 0.424587 0.845855 0.161642
N1    N     N_R   0.432981 0.672339 0.493661 0.263736
O27   O     O_R   0.459459 0.733028 0.533646 -0.317485
O28   O     O_R   0.378042 0.691465 0.449679 -0.400687
N2    N     N_R   0.567019 0.327660 0.506339 0.263734
O29   O     O_R   0.540541 0.266971 0.466353 -0.317497
O30   O     O_R   0.621958 0.308534 0.550321 -0.400691
C61   C     C_3   0.010729 0.065962 0.388701 -0.352517
C62   C     C_3   0.075869 0.971791 0.292019 -0.367496
C63   C     C_3   0.085451 0.007174 0.233980 -0.814746
H11   H     H_    0.019012 0.054219 0.229429 0.278023
H12   H     H_    0.112462 0.054949 0.263436 0.299361
H13   H     H_    0.133123 0.937508 0.164645 0.239559
H14   H     H_    0.143690 0.923301 0.293620 0.221610
H15   H     H_    0.050589 0.922340 0.260240 0.256169
H16   H     H_    0.942395 0.112616 0.387026 0.235108
H17   H     H_    0.035077 0.116309 0.419305 0.259298
C64   C     C_3   0.989272 0.934036 0.611298 -0.352515
C65   C     C_3   0.924128 0.028205 0.707978 -0.367490
C66   C     C_3   0.914549 0.992819 0.766016 -0.814784
H18   H     H_    0.887545 0.945038 0.736556 0.299370
H19   H     H_    0.980988 0.945780 0.770570 0.278025
H20   H     H_    0.866873 0.062484 0.835350 0.239561
H21   H     H_    0.949404 0.077660 0.739761 0.256186
H22   H     H_    0.856307 0.076691 0.706376 0.221612
H23   H     H_    0.964927 0.883685 0.580692 0.259300
H24   H     H_    0.057606 0.887386 0.612975 0.235107
C67   C     C_3   0.913510 0.524644 0.152550 -0.321561
C68   C     C_3   0.827269 0.529240 0.144119 -0.341007
C69   C     C_3   0.774685 0.554509 0.228640 -0.856742
H25   H     H_    0.817475 0.495967 0.242251 0.268090
H26   H     H_    0.751196 0.633779 0.287514 0.275522
H27   H     H_    0.714762 0.553413 0.218953 0.272644
H28   H     H_    0.782306 0.590383 0.133891 0.255752
H29   H     H_    0.844722 0.453166 0.084782 0.247336
H30   H     H_    0.960623 0.458473 0.156468 0.221934
H31   H     H_    0.896340 0.598472 0.215370 0.216944
C70   C     C_3   0.086549 0.475280 0.847414 -0.321302
C71   C     C_3   0.172942 0.470365 0.855700 -0.340768
C72   C     C_3   0.225375 0.445367 0.771262 -0.856913
H32   H     H_    0.248725 0.366222 0.712267 0.275448
H33   H     H_    0.182534 0.504140 0.757901 0.268169
H34   H     H_    0.285381 0.446296 0.780875 0.272665
H35   H     H_    0.155717 0.546238 0.915161 0.247555
H36   H     H_    0.217936 0.408945 0.865618 0.255817
H37   H     H_    0.103556 0.401553 0.784589 0.216685
H38   H     H_    0.039506 0.541548 0.843585 0.222028
N3    N     N_R   0.997031 0.325688 0.935782 0.233368
O31   O     O_R   0.008044 0.288621 0.983612 -0.403317
O32   O     O_R   0.012481 0.264930 0.849742 -0.344985
N4    N     N_R   0.003028 0.674280 0.064309 0.233697
O33   O     O_R   0.992986 0.710847 0.016174 -0.404110
O34   O     O_R   0.986938 0.735368 0.150464 -0.344704
N5    N     N_R   0.171745 0.312408 0.902549 0.227396
O35   O     O_R   0.189832 0.242558 0.818134 -0.332832
O36   O     O_R   0.234266 0.293605 0.939069 -0.414595
N6    N     N_R   0.828264 0.687531 0.097448 0.227420
O37   O     O_R   0.810131 0.757334 0.181896 -0.332768
O38   O     O_R   0.765753 0.706330 0.060917 -0.414643
C73   C     C_3   0.552497 0.289919 0.917523 -0.417378
C74   C     C_3   0.634193 0.208876 0.829815 -0.370006
C75   C     C_3   0.655009 0.099879 0.783729 -0.810028
H39   H     H_    0.672101 0.073439 0.828595 0.260265
H40   H     H_    0.596073 0.100316 0.766942 0.268211
H41   H     H_    0.713738 0.043449 0.720105 0.271283
H42   H     H_    0.620701 0.231740 0.782192 0.235537
H43   H     H_    0.694666 0.204956 0.844789 0.224488
H44   H     H_    0.566463 0.268484 0.965953 0.206700
H45   H     H_    0.493152 0.290303 0.902113 0.204771
C76   C     C_3   0.447488 0.710074 0.082459 -0.417334
C77   C     C_3   0.365810 0.791109 0.170182 -0.369999
C78   C     C_3   0.344976 0.900113 0.216255 -0.810040
H46   H     H_    0.403916 0.899687 0.233015 0.268215
H47   H     H_    0.327849 0.926553 0.171391 0.260269
H48   H     H_    0.286264 0.956536 0.279892 0.271278
H49   H     H_    0.305334 0.795017 0.155231 0.224479
H50   H     H_    0.379331 0.768247 0.217805 0.235542
H51   H     H_    0.506836 0.709696 0.097848 0.204778
H52   H     H_    0.433492 0.731511 0.034032 0.206711
C79   C     C_3   0.681990 0.385265 0.996743 -0.403423
C80   C     C_3   0.691363 0.339699 0.051092 -0.352007
C81   C     C_3   0.786513 0.288240 0.055445 -0.791298
H53   H     H_    0.837178 0.225249 0.986136 0.262466
H54   H     H_    0.801525 0.347205 0.091581 0.271773
H55   H     H_    0.791891 0.253267 0.092728 0.272024
H56   H     H_    0.642322 0.402757 0.121241 0.258953
H57   H     H_    0.677286 0.279598 0.018826 0.227144
H58   H     H_    0.729407 0.321597 0.926148 0.216502
H59   H     H_    0.700222 0.441938 0.027420 0.211631
C82   C     C_3   0.318004 0.614709 0.003253 -0.403349
C83   C     C_3   0.308616 0.660235 0.948867 -0.352204
C84   C     C_3   0.213457 0.711676 0.944529 -0.790802
H60   H     H_    0.198427 0.652717 0.908467 0.271911
H61   H     H_    0.162806 0.774718 0.013841 0.262513
H62   H     H_    0.208076 0.746582 0.907182 0.271947
H63   H     H_    0.322698 0.720334 0.981094 0.227158
H64   H     H_    0.357646 0.597155 0.878714 0.258945
H65   H     H_    0.299773 0.558035 0.972609 0.211616
H66   H     H_    0.270593 0.678397 0.073847 0.216502
N7    N     N_R   0.639544 0.489996 0.419766 0.260766
O39   O     O_R   0.636601 0.494764 0.350515 -0.362366
O40   O     O_R   0.707549 0.478370 0.447987 -0.423820
N8    N     N_R   0.360456 0.510002 0.580233 0.260767
O41   O     O_R   0.363399 0.505234 0.649484 -0.362364
O42   O     O_R   0.292453 0.521624 0.552010 -0.423822
N9    N     N_R   0.600592 0.313398 0.326280 0.263368
O43   O     O_R   0.673093 0.287367 0.277478 -0.338087
O44   O     O_R   0.575810 0.250249 0.294694 -0.353113
N10   N     N_R   0.399408 0.686601 0.673720 0.263372
O45   O     O_R   0.326907 0.712631 0.722522 -0.338082
O46   O     O_R   0.424189 0.749750 0.705306 -0.353095
C85   C     C_3   0.318622 0.066427 0.059692 -0.383072
C86   C     C_3   0.313904 0.971993 0.020053 -0.334825
C87   C     C_3   0.218823 0.006432 0.058049 -0.841197
H67   H     H_    0.197670 0.049433 0.132897 0.270374
H68   H     H_    0.170202 0.057874 0.040245 0.282544
H69   H     H_    0.217745 0.936452 0.028848 0.256615
H70   H     H_    0.333767 0.928306 0.945137 0.265583
H71   H     H_    0.361540 0.918002 0.036203 0.216152
H72   H     H_    0.293947 0.113585 0.134887 0.215037
H73   H     H_    0.275087 0.116487 0.038343 0.243628
C88   C     C_3   0.681377 0.933574 0.940306 -0.383121
C89   C     C_3   0.686095 0.028009 0.979945 -0.334821
C90   C     C_3   0.781173 0.993572 0.941942 -0.841260
H74   H     H_    0.829800 0.942123 0.959737 0.282496
H75   H     H_    0.802317 0.950580 0.867095 0.270392
H76   H     H_    0.782250 0.063552 0.971145 0.256625
H77   H     H_    0.638453 0.082005 0.963802 0.216158
H78   H     H_    0.666239 0.071691 0.054860 0.265571
H79   H     H_    0.724913 0.883513 0.961652 0.243550
H80   H     H_    0.706050 0.886417 0.865110 0.215051
C91   C     C_3   0.187656 0.385159 0.481347 -0.365748
C92   C     C_3   0.211138 0.334007 0.531995 -0.363781
C93   C     C_3   0.311882 0.276469 0.518404 -0.754080
H81   H     H_    0.352376 0.217666 0.445076 0.272212
H82   H     H_    0.330203 0.333005 0.549145 0.305108
H83   H     H_    0.328682 0.234836 0.551128 0.247174
H84   H     H_    0.172181 0.394334 0.605335 0.218057
H85   H     H_    0.193785 0.276761 0.506537 0.277990
H86   H     H_    0.224749 0.323284 0.407582 0.213906
H87   H     H_    0.209378 0.438048 0.503373 0.244144
C94   C     C_3   0.812345 0.614838 0.518626 -0.365768
C95   C     C_3   0.788884 0.665965 0.467957 -0.363750
C96   C     C_3   0.688153 0.723463 0.481493 -0.754049
H88   H     H_    0.669855 0.666905 0.450747 0.305099
H89   H     H_    0.647626 0.782286 0.554812 0.272224
H90   H     H_    0.671373 0.765063 0.448741 0.247175
H91   H     H_    0.806215 0.723232 0.493431 0.277983
H92   H     H_    0.827870 0.605634 0.394623 0.218055
H93   H     H_    0.790621 0.561951 0.496606 0.244143
H94   H     H_    0.775240 0.676726 0.592388 0.213913
N11   N     N_R   0.069352 0.292351 0.428058 0.189709
O47   O     O_R   0.133712 0.218022 0.349903 -0.456763
O48   O     O_R   0.048726 0.268370 0.477734 -0.450834
N12   N     N_R   0.930644 0.707649 0.571936 0.189719
O49   O     O_R   0.866283 0.781977 0.650091 -0.456758
O50   O     O_R   0.951269 0.731631 0.522260 -0.450830
C97   C     C_3   0.995288 0.395266 0.318586 -0.365570
C98   C     C_3   0.932790 0.359579 0.309696 -0.315172
C99   C     C_3   0.950544 0.281284 0.210537 -0.818954
H95   H     H_    0.944241 0.314672 0.171627 0.270837
H96   H     H_    0.019444 0.208023 0.179953 0.264978
H97   H     H_    0.900754 0.261878 0.205940 0.276608
H98   H     H_    0.942934 0.322056 0.345523 0.268727
H99   H     H_    0.861392 0.428342 0.340423 0.252892
H100  H     H_    0.974274 0.447293 0.295836 0.187042
H101  H     H_    0.065676 0.325938 0.274235 0.250602
C100  C     C_3   0.004720 0.604725 0.681403 -0.365601
C101  C     C_3   0.067225 0.640402 0.690285 -0.315160
C102  C     C_3   0.049454 0.718727 0.789439 -0.818970
H102  H     H_    0.980559 0.791989 0.820000 0.264969
H103  H     H_    0.055734 0.685371 0.828373 0.270892
H104  H     H_    0.099251 0.738124 0.794032 0.276607
H105  H     H_    0.138620 0.571637 0.659577 0.252901
H106  H     H_    0.057101 0.677896 0.654433 0.268730
H107  H     H_    0.934333 0.674056 0.725759 0.250594
H108  H     H_    0.025736 0.552695 0.704151 0.187050

loop_
_geom_bond_atom_site_label_1
_geom_bond_atom_site_label_2
_geom_bond_distance
_ccdc_geom_bond_type
C72   H34   1.110648 S    
C16   N2    1.458620 S    
N7    O39   1.300596 A    
N11   O48   1.299363 A    
C75   H39   1.109382 S    
Zn7   O21   1.936898 S    
C54   C60   1.546963 S    
C99   H97   1.110470 S    
Zn2   O20   1.937020 S    
C57   C59   1.543584 S    
C74   H43   1.108079 S    
C73   C74   1.534000 S    
C64   H24   1.111119 S    
C79   C80   1.534041 S    
C45   C50   1.544227 S    
C37   C43   1.541437 S    
C79   H59   1.111782 S    
C38   C44   1.541436 S    
C6    C57   1.463457 S    
C25   C27   1.534948 S    
C80   C81   1.525994 S    
C81   H53   1.110702 S    
O15   C9    1.273399 A    
C66   H18   1.110285 S    
C78   H47   1.109382 S    
C95   H92   1.107936 S    
C76   C77   1.533998 S    
C92   C93   1.526535 S    
C87   H69   1.110728 S    
C14   C20   1.539180 S    
N7    O40   1.298011 A    
C19   N9    1.459069 S    
C101  H105  1.108798 S    
O3    C1    1.271360 A    
C88   H80   1.111607 S    
O24   C2    1.279364 A    
C74   C75   1.525614 S    
C38   C40   1.540687 S    
C27   C85   1.529766 S    
C39   H5    1.110304 S    
O10   C8    1.268841 A    
C98   H99   1.108793 S    
C62   H14   1.111532 S    
C47   C49   1.552120 S    
C40   H6    1.110304 S    
C81   H54   1.109105 S    
O6    C4    1.279808 A    
O20   C6    1.280346 A    
O17   C11   1.273621 A    
C24   H2    1.110496 S    
C72   H32   1.108434 S    
C54   C57   1.542089 S    
C45   C51   1.531225 S    
C47   C52   1.546322 S    
C102  H104  1.110471 S    
C82   H65   1.111783 S    
N2    O29   1.300274 A    
C61   H16   1.111120 S    
C29   C34   1.538112 S    
C92   H85   1.108899 S    
C65   H21   1.111695 S    
C31   C33   1.545460 S    
C86   H70   1.111682 S    
C42   C44   1.536683 S    
C52   N6    1.460324 S    
C67   H31   1.111089 S    
C44   H8    1.110299 S    
C55   C57   1.536791 S    
C89   H78   1.111682 S    
C77   C78   1.525613 S    
C48   C50   1.552246 S    
C40   C43   1.552422 S    
N5    O35   1.300275 A    
C83   H64   1.111432 S    
C83   H63   1.108218 S    
C18   C20   1.544231 S    
C101  C102  1.526457 S    
C55   C73   1.533416 S    
C54   C56   1.541981 S    
C69   H27   1.110646 S    
Zn8   O14   1.947350 S    
C91   C92   1.530223 S    
Zn3   O11   1.944897 S    
C29   C35   1.537781 S    
C22   C24   1.552425 S    
O4    C2    1.271359 A    
C73   H44   1.109365 S    
C15   C20   1.539098 S    
C23   C28   1.541598 S    
C98   C99   1.526459 S    
N4    O34   1.300425 A    
C55   C60   1.548730 S    
C13   C19   1.539179 S    
C63   H13   1.110382 S    
O21   C7    1.276207 A    
C30   C32   1.537425 S    
C100  H107  1.111267 S    
C83   C84   1.526001 S    
N3    O31   1.300464 A    
C76   H51   1.111467 S    
C59   H9    1.110463 S    
C45   N3    1.460085 S    
C94   C95   1.530252 S    
C85   H73   1.111159 S    
C30   N12   1.458519 S    
Zn1   O17   1.944301 S    
C74   H42   1.111389 S    
C50   C52   1.542166 S    
C62   C63   1.526287 S    
O12   C10   1.271678 A    
C1    C42   1.459716 S    
C35   C97   1.534388 S    
C70   H38   1.110732 S    
C23   C25   1.536983 S    
C78   H48   1.110681 S    
O13   C11   1.269492 A    
C95   H91   1.108901 S    
C96   H89   1.110981 S    
C24   C26   1.536983 S    
Zn6   O10   1.936359 S    
C46   C52   1.531282 S    
C14   C17   1.548896 S    
C16   C19   1.539098 S    
C70   H37   1.111091 S    
C78   H46   1.110746 S    
C48   C70   1.531742 S    
C91   H86   1.111585 S    
C71   H36   1.109089 S    
C88   C89   1.534008 S    
C99   H95   1.110589 S    
Zn1   O1    1.951926 S    
C86   C87   1.525891 S    
C34   C36   1.551311 S    
O19   C5    1.280351 A    
C98   H98   1.110820 S    
C33   C35   1.551306 S    
C56   C76   1.533411 S    
C53   C58   1.542097 S    
C68   C69   1.522546 S    
C66   H20   1.110381 S    
C15   N1    1.458620 S    
O11   C9    1.271669 A    
C39   C44   1.552422 S    
C15   C17   1.545732 S    
C87   H67   1.111006 S    
Zn7   O13   1.947349 S    
C94   H93   1.105661 S    
C12   C17   1.455365 S    
O25   C3    1.272212 A    
C82   H66   1.109267 S    
Zn6   O26   1.933633 S    
C85   H72   1.111605 S    
C61   H17   1.108013 S    
C29   C31   1.537420 S    
C26   C28   1.534948 S    
C92   H84   1.107939 S    
Zn4   O8    1.937411 S    
Zn7   O3    1.933684 S    
C85   C86   1.534005 S    
Zn5   O1    1.947223 S    
C47   C67   1.531697 S    
Zn3   O1    1.950830 S    
C49   C51   1.542072 S    
N1    O28   1.300180 A    
C40   C42   1.537122 S    
C24   C27   1.541598 S    
C16   C18   1.545732 S    
C90   H74   1.110757 S    
Zn5   O15   1.946886 S    
C46   C49   1.544171 S    
C39   C41   1.537120 S    
C2    C41   1.459716 S    
Zn8   O4    1.933684 S    
Zn6   O16   1.946885 S    
C21   C26   1.537250 S    
C32   C35   1.552913 S    
C58   C60   1.543597 S    
N9    O43   1.300140 A    
C97   H101  1.111267 S    
C22   C25   1.537252 S    
C13   N7    1.457930 S    
C31   C36   1.552911 S    
Zn2   O18   1.944304 S    
C60   H10   1.110463 S    
C73   H45   1.111467 S    
C37   C39   1.540688 S    
O7    C5    1.273222 A    
C64   C65   1.534310 S    
Zn4   O24   1.931171 S    
C10   C49   1.458775 S    
O8    C6    1.273218 A    
C7    C34   1.458793 S    
Zn8   O2    1.945880 S    
C100  H108  1.110257 S    
O14   C12   1.269490 A    
C46   C48   1.545988 S    
C76   H52   1.109368 S    
C89   C90   1.525889 S    
C75   H41   1.110680 S    
C56   C58   1.536801 S    
C93   H82   1.111044 S    
C69   H25   1.108462 S    
O16   C10   1.273344 A    
O23   C1    1.279366 A    
C23   H1    1.110498 S    
Zn1   O5    1.931388 S    
C21   C27   1.541438 S    
C38   C64   1.528790 S    
Zn4   O2    1.950831 S    
N11   O47   1.300387 A    
Zn2   O2    1.951925 S    
C77   H50   1.111388 S    
N12   O50   1.299363 A    
C3    C26   1.459996 S    
Zn3   O7    1.937411 S    
C17   C19   1.544229 S    
C48   C51   1.546389 S    
Zn1   O19   1.937020 S    
C63   H11   1.110835 S    
C94   H94   1.111584 S    
C96   H90   1.109817 S    
C72   H33   1.108468 S    
C100  C101  1.534217 S    
C95   C96   1.526526 S    
C54   C82   1.535341 S    
C101  H106  1.110823 S    
C61   C62   1.534312 S    
C43   H7    1.110299 S    
N8    O41   1.300596 A    
C97   H100  1.110251 S    
C71   H35   1.108551 S    
C22   H4    1.110265 S    
N6    O38   1.300126 A    
N10   O46   1.300397 A    
C81   H55   1.110516 S    
C79   H58   1.109269 S    
C38   C41   1.535322 S    
C41   C43   1.536683 S    
N5    O36   1.300125 A    
C36   C100  1.534382 S    
C53   C55   1.541985 S    
C37   C42   1.535323 S    
C65   C66   1.526287 S    
C13   C18   1.548897 S    
C29   N11   1.458520 S    
C13   C15   1.537242 S    
C56   C59   1.548733 S    
N1    O27   1.300274 A    
C20   N10   1.459070 S    
C37   C61   1.528786 S    
C9    C50   1.458868 S    
C11   C18   1.455365 S    
C68   H29   1.108593 S    
C88   H79   1.111158 S    
N6    O37   1.300268 A    
C84   H62   1.110514 S    
C21   C23   1.552424 S    
N12   O49   1.300387 A    
C31   C91   1.531089 S    
C64   H23   1.108012 S    
Zn8   O22   1.936897 S    
C90   H75   1.111006 S    
C99   H96   1.110403 S    
C70   C71   1.537955 S    
Zn3   O23   1.931169 S    
C62   H15   1.111695 S    
C51   N5    1.460304 S    
C53   C79   1.535349 S    
C5    C58   1.463467 S    
C97   C98   1.534215 S    
O5    C3    1.279810 A    
C30   C33   1.538095 S    
C22   C28   1.541439 S    
C21   H3    1.110267 S    
C28   C88   1.529766 S    
C14   C16   1.537242 S    
C8    C33   1.458781 S    
C102  H103  1.110584 S    
N2    O30   1.300181 A    
C53   C59   1.546968 S    
C80   H57   1.108207 S    
Zn5   O25   1.933632 S    
N3    O32   1.300405 A    
C65   H22   1.111530 S    
C67   C68   1.537888 S    
Zn2   O6    1.931388 S    
C87   H68   1.110756 S    
O9    C7    1.268857 A    
C91   H87   1.105662 S    
C86   H71   1.110854 S    
C66   H19   1.110836 S    
Zn6   O2    1.947223 S    
O18   C12   1.273619 A    
C32   C94   1.531096 S    
C84   H60   1.109127 S    
Zn4   O12   1.944898 S    
Zn7   O1    1.945878 S    
N4    O33   1.300445 A    
C90   H76   1.110729 S    
Zn5   O9    1.936355 S    
N10   O45   1.300140 A    
C67   H30   1.110730 S    
C75   H40   1.110747 S    
C82   C83   1.534022 S    
C93   H83   1.109816 S    
C14   N8    1.457930 S    
C69   H26   1.108468 S    
C45   C47   1.545880 S    
N9    O44   1.300400 A    
C71   C72   1.522519 S    
O22   C8    1.276212 A    
C32   C34   1.545475 S    
C68   H28   1.109134 S    
C63   H12   1.110284 S    
O26   C4    1.272213 A    
C93   H81   1.110983 S    
N8    O42   1.298010 A    
C30   C36   1.537787 S    
C77   H49   1.108079 S    
C80   H56   1.111434 S    
C4    C25   1.459995 S    
C89   H77   1.110857 S    
C96   H88   1.111041 S    
C46   N4    1.460113 S    
C84   H61   1.110703 S    
C102  H102  1.110406 S    
