data_mof_unit_50075.cif
_audit_creation_date              2013-03-05T16:00:04-0500
_audit_creation_method            fapswitch 2.2
_symmetry_space_group_name_H-M    P1
_symmetry_Int_Tables_number       1
_space_group_crystal_system       triclinic
_cell_length_a                    8.301378
_cell_length_b                    12.892198
_cell_length_c                    22.877691
_cell_angle_alpha                 98.035853
_cell_angle_beta                  90.086078
_cell_angle_gamma                 98.254333
_cell_volume                      2398.70067421

loop_
_atom_site_label
_atom_site_type_symbol
_atom_site_description
_atom_site_fract_x
_atom_site_fract_y
_atom_site_fract_z
_atom_type_partial_charge
P1    P     P_3+3 0.057140 0.408270 0.369700 0.484223
O1    O     O_2   0.890290 0.440320 0.360790 -0.366645
O2    O     O_3   0.130840 0.441440 0.431840 -0.383742
O3    O     O_3   0.672400 0.637930 0.395560 -0.357257
O4    O     O_2   0.701825 0.497501 0.300156 -0.386014
O5    O     O_3   0.045682 0.271854 0.349412 -0.573071
O6    O     O_3   0.775600 0.687369 0.278634 -0.495409
H1    H     H_    0.793512 0.844232 0.310613 0.157771
C1    C     C_3   0.730492 0.818052 0.217746 -0.928417
H2    H     H_    0.695088 0.898564 0.219347 0.245787
H3    H     H_    0.857461 0.820091 0.202098 0.258825
P2    P     P_3+3 0.667360 0.749400 0.544670 0.457915
P3    P     P_3+3 0.131396 0.829489 0.423222 0.544237
O7    O     O_2   0.844800 0.765340 0.527490 -0.339704
O8    O     O_3   0.090520 0.693800 0.424220 -0.384514
O9    O     O_2   0.997725 0.880811 0.458507 -0.273049
O10   O     O_3   0.680685 0.787670 0.621115 -0.597435
O11   O     O_3   0.098971 0.851243 0.350755 -0.510139
C2    C     C_3   0.212754 0.803700 0.314639 0.418754
H4    H     H_    0.168493 0.716699 0.302375 0.106117
H5    H     H_    0.335637 0.812980 0.336784 -0.024313
C3    C     C_3   0.234348 0.858240 0.259246 -0.807033
H6    H     H_    0.129754 0.827713 0.227556 0.252159
H7    H     H_    0.242074 0.946319 0.270867 0.257339
C4    C     C_3   0.265870 0.775045 0.613500 0.245615
H8    H     H_    0.381854 0.740756 0.610187 0.097700
H9    H     H_    0.207084 0.763925 0.568404 0.120243
C5    C     C_3   0.302093 0.890604 0.640122 -0.164079
H10   H     H_    0.428796 0.908212 0.658586 0.121686
H11   H     H_    0.218371 0.910281 0.677030 0.164990
Ba1   Ba    Ba6+2 0.856210 0.551220 0.472190 1.589307
C6    C     C_3   0.914487 0.214997 0.374750 0.311735
H12   H     H_    0.811281 0.259868 0.384234 0.090721
H13   H     H_    0.958107 0.191712 0.416506 0.094143
C7    C     C_3   0.858643 0.117755 0.329597 -0.611138
H14   H     H_    0.791760 0.141702 0.292643 0.194165
H15   H     H_    0.965827 0.083136 0.310809 0.198233
C8    C     C_3   0.736155 0.709583 0.648940 0.389116
H16   H     H_    0.837905 0.676979 0.624791 0.128822
H17   H     H_    0.633116 0.645208 0.652012 0.086404
C9    C     C_3   0.797377 0.760353 0.710734 -0.896775
H18   H     H_    0.889278 0.831430 0.707888 0.273213
H19   H     H_    0.855796 0.704199 0.733001 0.226722
H20   H     H_    0.694215 0.784776 0.737750 0.256151
P4    P     P_3+3 0.132580 0.591820 0.630310 0.479137
O12   O     O_2   0.299410 0.559720 0.639240 -0.372570
O13   O     O_3   0.058870 0.558650 0.568170 -0.391646
O14   O     O_3   0.517310 0.362160 0.604450 -0.376287
O15   O     O_3   0.158966 0.726607 0.651955 -0.584508
P5    P     P_3+3 0.055063 0.168907 0.573764 0.538970
O16   O     O_3   0.614910 0.369290 0.471050 -0.408111
O17   O     O_3   0.099190 0.306290 0.575790 -0.383126
O18   O     O_2   0.167362 0.122487 0.526880 -0.270851
O19   O     O_3   0.131302 0.136713 0.639188 -0.451708
Ba2   Ba    Ba6+2 0.333620 0.448870 0.527810 1.589816
P6    P     P_3+3 0.645461 0.605332 0.318079 0.468515
C10   C     C_3   0.716469 0.784484 0.279118 0.407550
H21   H     H_    0.587120 0.783122 0.291942 0.021710
H22   H     H_    0.647939 0.761260 0.185667 0.268888
O20   O     O_3   0.574800 0.630800 0.528960 -0.405464
C11   C     C_3   0.470598 0.292685 0.351001 0.391227
H23   H     H_    0.364867 0.324540 0.372390 0.116458
H24   H     H_    0.578646 0.354668 0.357208 0.130112
C12   C     C_3   0.432708 0.262766 0.285322 -0.868269
H25   H     H_    0.323341 0.201383 0.278109 0.269340
H26   H     H_    0.408943 0.333455 0.265948 0.220378
H27   H     H_    0.537513 0.231286 0.262754 0.255045
P7    P     P_3+3 0.524750 0.234866 0.451145 0.427922
O21   O     O_2   0.344900 0.234690 0.472540 -0.332695
O22   O     O_3   0.502346 0.202754 0.374482 -0.560751
H28   H     H_    0.349982 0.841474 0.237886 0.254806
C13   C     C_3   0.040473 0.177259 0.686275 0.358019
H29   H     H_    0.031711 0.262640 0.685902 0.096403
H30   H     H_    0.918302 0.129906 0.683994 0.052814
C14   C     C_3   0.121547 0.165760 0.744233 -0.846834
H31   H     H_    0.245596 0.211961 0.748120 0.288659
H32   H     H_    0.048268 0.195885 0.781815 0.245051
H33   H     H_    0.130494 0.081092 0.746270 0.243725
P8    P     P_3+3 0.541485 0.398928 0.681425 0.485354
C15   C     C_3   0.605199 0.209471 0.675644 0.499185
H34   H     H_    0.732995 0.238800 0.662666 -0.040528
O23   O     O_2   0.382470 0.437076 0.704682 -0.379902
O24   O     O_3   0.542350 0.286379 0.715712 -0.508876
H35   H     H_    0.525504 0.189565 0.635034 0.173280
H36   H     H_    0.682259 0.128642 0.745591 0.270518
C16   C     C_3   0.603155 0.110630 0.705087 -0.927226
H37   H     H_    0.648697 0.047942 0.674008 0.216059
H38   H     H_    0.476979 0.081819 0.717830 0.270518
H39   H     H_    0.927681 0.263430 0.046080 0.179522
H40   H     H_    0.858563 0.260548 0.942776 0.180572
C17   C     C_R   0.326371 0.535872 0.334502 -0.477191
C18   C     C_R   0.106901 0.604379 0.941837 -0.231520
C19   C     C_R   0.069273 0.598590 0.880400 0.578600
O25   O     O_2   0.114587 0.674073 0.854648 -0.530822
N1    N     N_R   0.980560 0.508320 0.849191 -0.169535
C20   C     C_R   0.932605 0.420424 0.877237 0.528099
O26   O     O_2   0.856616 0.340373 0.849413 -0.587267
C21   C     C_R   0.971683 0.421821 0.937699 -0.032398
C22   C     C_R   0.058380 0.514144 0.970210 -0.031554
C23   C     C_R   0.193105 0.696589 0.976023 0.394018
C24   C     C_R   0.229413 0.696630 0.035925 -0.212095
C25   C     C_R   0.181938 0.607386 0.064239 -0.093200
C26   C     C_R   0.097145 0.515722 0.031340 -0.010432
C27   C     C_R   0.925502 0.332576 0.966455 -0.106382
C28   C     C_R   0.965320 0.334201 0.026085 -0.098214
C29   C     C_R   0.051672 0.425418 0.059402 -0.052977
C30   C     C_R   0.095285 0.427679 0.119823 0.535377
N2    N     N_R   0.177135 0.519245 0.152610 -0.161450
C31   C     C_R   0.217905 0.608798 0.124947 0.554886
C32   C     C_2   0.772893 0.491193 0.770505 -0.131805
C33   C     C_3   0.723609 0.495871 0.706859 0.125622
C34   C     C_1   0.009742 0.524913 0.684600 0.325356
C35   C     C_2   0.057309 0.527259 0.740625 -0.200960
C36   C     C_2   0.932669 0.507308 0.787330 0.104795
C37   C     C_R   0.386643 0.567204 0.234466 -0.229986
C38   C     C_R   0.433207 0.576211 0.294140 0.174446
C39   C     C_R   0.175082 0.481519 0.316117 0.302636
C40   C     C_R   0.122069 0.476770 0.256626 -0.199466
C41   C     C_R   0.227233 0.521614 0.214703 0.127298
O27   O     O_2   0.062938 0.347244 0.142659 -0.586856
O28   O     O_2   0.285369 0.690798 0.153252 -0.628320
C42   C     C_2   0.863500 0.478725 0.666349 -0.481795
H41   H     H_    0.294740 0.768341 0.060581 0.202724
H42   H     H_    0.476228 0.592777 0.203215 0.171357
H43   H     H_    0.184809 0.548797 0.753410 0.187397
H44   H     H_    0.678944 0.481142 0.803077 0.159560
H45   H     H_    0.000704 0.437873 0.243344 0.192098
H46   H     H_    0.367692 0.537836 0.379616 0.168285
H47   H     H_    0.844133 0.432176 0.622894 0.164534
C43   C     C_R   0.760408 0.177271 0.519821 -0.477371
C44   C     C_R   0.426322 0.812030 0.477682 -0.494819
C45   C     C_R   0.402062 0.987241 0.455578 -0.148315
C46   C     C_R   0.336938 0.881093 0.454396 0.217530
C47   C     C_R   0.575488 0.848303 0.507213 0.264390
C48   C     C_R   0.639636 0.958969 0.512012 0.037700
C49   C     C_R   0.553683 0.028082 0.483702 0.051492
C50   C     C_R   0.616827 0.137736 0.487990 0.239074
C51   C     C_R   0.846384 0.111970 0.547005 0.168968
C52   C     C_R   0.784706 0.003783 0.544517 -0.145153
H48   H     H_    0.331949 0.037001 0.434901 0.183719
H49   H     H_    0.850852 0.955689 0.567669 0.198677
H50   H     H_    0.810417 0.259926 0.521175 0.159729
H51   H     H_    0.374991 0.729538 0.475436 0.164351
N3    N     N_R   0.278090 0.955813 0.595363 0.253355
O29   O     O_R   0.388876 0.033717 0.587417 -0.432101
O30   O     O_R   0.140984 0.940508 0.565759 -0.374944
C53   C     C_2   0.752854 0.034541 0.356237 0.974278
O31   O     O_2   0.808677 0.991048 0.394409 -0.628920
O32   O     O_R   0.593411 0.002148 0.334765 -0.779852
H52   H     H_    0.539661 0.940086 0.353629 0.287060
N4    N     N_R   0.243580 0.792226 0.951456 0.264477
O33   O     O_R   0.134711 0.848446 0.937434 -0.323379
O34   O     O_R   0.396210 0.834333 0.955372 -0.366371

loop_
_geom_bond_atom_site_label_1
_geom_bond_atom_site_label_2
_geom_bond_distance
_ccdc_geom_bond_type
C11   O22   1.401320 S    
O14   Ba2   2.771022 S    
C22   C26   1.431304 A    
C24   C25   1.406288 A    
C9    H18   1.114464 S    
C3    H28   1.112846 S    
O4    P6    1.532202 D    
O5    C6    1.396757 S    
N1    C20   1.388794 Am   
O7    Ba1   2.885965 S    
C15   H35   1.117772 S    
C44   C47   1.396916 A    
P4    C34   1.837738 S    
C48   C49   1.437010 A    
P4    O12   1.522615 D    
N2    C31   1.393110 Am   
C4    C5    1.515918 S    
C48   C52   1.419332 A    
C24   H41   1.084575 S    
P3    O11   1.746429 S    
O14   P8    1.761932 S    
C5    H10   1.113357 S    
C7    H15   1.112300 S    
O11   C2    1.406251 S    
C15   O24   1.411191 S    
C8    H16   1.110764 S    
C15   H34   1.128599 S    
C16   H38   1.113349 S    
C35   H43   1.083928 S    
C29   C30   1.423679 A    
N1    C36   1.467243 S    
C37   C38   1.402809 A    
P1    Ba1   3.370858 S    
C17   C38   1.383445 A    
P1    O1    1.522423 D    
C11   H24   1.106943 S    
C32   C33   1.523501 S    
C27   C28   1.399785 A    
C15   C16   1.520406 S    
C53   O31   1.225587 D    
C40   C41   1.424390 A    
O2    Ba2   2.747212 S    
C2    H4    1.124788 S    
C45   C46   1.393883 A    
C20   C21   1.417355 A    
O12   Ba2   2.778824 S    
P5    O17   1.750445 S    
N4    O33   1.302785 A    
C17   C39   1.381500 A    
C5    N3    1.443318 S    
C1    H2    1.114496 S    
C32   C36   1.359241 D    
C42   H47   1.085952 S    
O16   Ba2   2.918217 S    
O17   Ba2   2.813258 S    
O10   C8    1.393609 S    
C19   N1    1.387987 Am   
C8    H17   1.112668 S    
P2    C47   1.877377 S    
Ba2   O20   2.853890 S    
O3    P6    1.769817 S    
C33   C42   1.508653 S    
C9    H19   1.105423 S    
N2    C41   1.474540 S    
P7    C50   1.852249 S    
C11   H23   1.107737 S    
O6    P6    1.744056 S    
C13   C14   1.521184 S    
C34   C35   1.335619 D    
P4    O13   1.526621 S    
C23   N4    1.434505 S    
P5    O18   1.536691 D    
C17   H46   1.082903 S    
P1    O5    1.743882 S    
C6    C7    1.524224 S    
C2    C3    1.531721 S    
C8    C9    1.526070 S    
C13   H30   1.103242 S    
C16   H37   1.108841 S    
P7    O21   1.571678 D    
P1    C39   1.847935 S    
C4    H8    1.114123 S    
H36   C16   1.112674 S    
O1    Ba1   2.778308 S    
P1    O2    1.526591 S    
C7    H14   1.113158 S    
C6    H13   1.115419 S    
Ba1   O20   2.919154 S    
P2    O10   1.748355 S    
C11   C12   1.518935 S    
C14   H31   1.109921 S    
C12   H27   1.110127 S    
C34   C42   1.313061 D    
H1    C10   1.106135 S    
C1    H3    1.111577 S    
P4    O15   1.721214 S    
C45   C49   1.409963 A    
C20   O26   1.223270 D    
P6    C38   1.815271 S    
C19   O25   1.221240 D    
C7    C53   1.485758 S    
O2    Ba1   2.936032 S    
C14   H32   1.111821 S    
H40   C27   1.083896 S    
Ba2   O21   2.886267 S    
C32   H44   1.086311 S    
N3    O30   1.299578 A    
P2    O7    1.517839 D    
C37   C41   1.414796 A    
P3    O8    1.736832 S    
P2    Ba1   3.421783 S    
C9    H20   1.113171 S    
C3    H7    1.121990 S    
C4    H9    1.122566 S    
C40   H45   1.081792 S    
C30   N2    1.392283 Am   
C43   C51   1.386546 A    
C30   O27   1.221607 D    
C44   H51   1.081575 S    
C18   C23   1.425171 A    
O13   Ba2   2.936932 S    
C35   C36   1.510682 S    
C37   H42   1.081676 S    
C53   O32   1.396284 S    
P3    C46   1.844019 S    
Ba1   O16   2.854496 S    
C13   H29   1.114741 S    
C44   C46   1.395795 A    
P8    O23   1.543646 D    
P5    C51   1.849480 S    
O8    Ba1   2.812549 S    
C47   C48   1.438421 A    
C45   H48   1.079504 S    
C28   C29   1.408359 A    
P8    C33   1.854139 S    
N3    O29   1.293799 A    
Ba1   Ba2   4.585058 S    
C6    H12   1.106128 S    
C5    H11   1.119304 S    
P5    O19   1.749095 S    
O32   H52   1.010020 S    
C12   H25   1.111083 S    
P8    O24   1.744121 S    
C52   H49   1.074804 S    
C31   O28   1.219874 D    
C10   H21   1.111911 S    
C21   C27   1.410427 A    
C18   C19   1.428751 A    
C26   C29   1.411935 A    
C1    C10   1.525828 S    
O16   P7    1.782357 S    
N4    O34   1.302568 A    
C25   C26   1.403350 A    
C43   H50   1.082834 S    
C14   H33   1.112054 S    
C4    O15   1.395834 S    
O3    Ba1   2.771471 S    
C51   C52   1.408350 A    
P2    O20   1.601764 S    
Ba1   O13   2.746792 S    
O19   C13   1.400146 S    
P4    Ba2   3.371525 S    
P7    O22   1.748134 S    
C21   C22   1.411662 A    
P3    O9    1.544323 D    
H39   C28   1.083797 S    
C3    H6    1.120103 S    
C49   C50   1.425202 A    
C25   C31   1.417208 A    
C23   C24   1.402643 A    
C1    H22   1.117365 S    
C39   C40   1.420199 A    
C43   C50   1.389229 A    
O6    C10   1.407558 S    
C18   C22   1.419254 A    
C12   H26   1.109143 S    
C2    H5    1.121615 S    
