data_mof_unit_9922.cif
_audit_creation_date              2012-12-10T18:57:13-0500
_audit_creation_method            fapswitch 2.2
_symmetry_space_group_name_H-M    P1
_symmetry_Int_Tables_number       1
_space_group_crystal_system       triclinic
_cell_length_a                    8.732116
_cell_length_b                    10.825459
_cell_length_c                    9.544462
_cell_angle_alpha                 90.187206
_cell_angle_beta                  97.79086
_cell_angle_gamma                 90.157961
_cell_volume                      893.892523378

loop_
_atom_site_label
_atom_site_type_symbol
_atom_type_description
_atom_site_fract_x
_atom_site_fract_y
_atom_site_fract_z
_atom_type_partial_charge
C1    C     C_R   0.506622 0.262265 0.500235 0.840226
C2    C     C_R   0.560023 0.597799 0.933961 0.250653
C3    C     C_3   0.721459 0.645537 0.947241 -0.487111
C4    C     C_R   0.203944 0.499148 0.463941 0.875845
C5    C     C_3   0.722335 0.644898 0.106419 -0.488609
C6    C     C_R   0.503647 0.737551 0.500711 0.819011
C7    C     C_R   0.796146 0.499935 0.536177 0.885132
C8    C     C_2   0.038298 0.496899 0.444328 -0.347391
C9    C     C_2   0.961975 0.500604 0.556272 -0.367774
C10   C     C_R   0.507930 0.063955 0.624771 0.091432
C11   C     C_R   0.526654 0.128978 0.501942 -0.188000
C12   C     C_R   0.566011 0.932958 0.387162 -0.250311
C13   C     C_R   0.570212 0.061920 0.385458 0.367057
C14   C     C_R   0.522177 0.870231 0.503915 -0.163698
C15   C     C_R   0.506382 0.937047 0.625963 0.119585
C16   C     C_3   0.383425 0.931779 0.720277 -0.436406
C17   C     C_3   0.385174 0.072115 0.719363 -0.444030
C18   C     C_R   0.560215 0.597805 0.081267 0.249377
C19   C     C_R   0.425326 0.410472 0.064842 -0.010500
C20   C     C_R   0.425182 0.410549 0.915939 -0.065579
Cl1   Cl    Cl    0.626360 0.131580 0.233373 -0.644444
Cu1   Cu    Cu3+1 0.499990 0.499980 0.640670 0.947068
Cu2   Cu    Cu3+1 0.500010 0.500020 0.359330 0.977502
H1    H     H_    0.979067 0.491521 0.336995 0.172309
H2    H     H_    0.426659 0.891928 0.825413 0.204903
H3    H     H_    0.276096 0.113262 0.666012 0.192589
H4    H     H_    0.429554 0.112755 0.824168 0.218722
H5    H     H_    0.367127 0.336803 0.113027 0.164137
H6    H     H_    0.366432 0.337241 0.852708 0.138935
H7    H     H_    0.803458 0.578085 0.910829 0.220075
H8    H     H_    0.726981 0.739989 0.902788 0.200117
H9    H     H_    0.804067 0.576532 0.160427 0.216403
H10   H     H_    0.730185 0.738896 0.153909 0.198469
H11   H     H_    0.021511 0.504836 0.663898 0.172775
H12   H     H_    0.591532 0.882420 0.295059 0.186078
H13   H     H_    0.273484 0.891121 0.667064 0.195284
N1    N     N_R   0.500980 0.500930 0.148050 -0.187960
N2    N     N_R   0.500990 0.500890 0.852140 -0.189855
O1    O     O_R   0.500000 0.319640 0.618810 -0.590197
O2    O     O_R   0.500020 0.319680 0.381230 -0.534145
O3    O     O_R   0.274830 0.499980 0.591380 -0.583155
O4    O     O_R   0.274850 0.500020 0.353800 -0.590705
O5    O     O_R   0.499980 0.680320 0.618770 -0.583804
O6    O     O_R   0.500000 0.680360 0.381190 -0.590519
O7    O     O_R   0.725150 0.499980 0.646200 -0.591373
O8    O     O_R   0.725170 0.500020 0.408620 -0.568113

loop_
_geom_bond_atom_site_label_1
_geom_bond_atom_site_label_2
_ccdc_geom_bond_type
C3    H7    S    
C2    C18   A    
C20   N2    A    
C2    N2    A    
C19   C20   A    
C1    C11   S    
C4    C8    S    
C6    O5    A    
C5    H9    S    
C2    C3    S    
C13   Cl1   S    
Cu2   O8    S    
C6    O6    A    
C16   H13   S    
C12   H12   S    
C3    H8    S    
C19   H5    S    
C11   C13   A    
Cu2   O4    S    
C4    O4    A    
Cu1   O1    S    
C7    O7    A    
C8    H1    S    
C18   N1    A    
C12   C14   A    
C20   H6    S    
Cu1   Cu2   S    
C9    H11   S    
Cu1   O3    S    
C6    C14   S    
C4    O3    A    
C17   H3    S    
C10   C17   S    
Cu2   O2    S    
C17   H4    S    
C7    O8    A    
Cu1   O7    S    
C12   C13   A    
C10   C11   A    
C16   H2    S    
C7    C9    S    
C1    O1    A    
C14   C15   A    
C16   C17   S    
C5    C18   S    
C19   N1    A    
C1    O2    A    
C10   C15   A    
Cu2   N1    S    
Cu1   O5    S    
Cu2   O6    S    
C15   C16   S    
C5    H10   S    
C8    C9    D    
C3    C5    S    
Cu1   N2    S    
