data_mof_unit_60378.cif
_audit_creation_date              2012-12-11T15:59:41-0500
_audit_creation_method            fapswitch 2.2
_symmetry_space_group_name_H-M    P1
_symmetry_Int_Tables_number       1
_space_group_crystal_system       triclinic
_cell_length_a                    7.190667
_cell_length_b                    19.990175
_cell_length_c                    21.781645
_cell_angle_alpha                 92.961863
_cell_angle_beta                  88.333569
_cell_angle_gamma                 91.124014
_cell_volume                      3124.93279287

loop_
_atom_site_label
_atom_site_type_symbol
_atom_type_description
_atom_site_fract_x
_atom_site_fract_y
_atom_site_fract_z
_atom_type_partial_charge
O1    O     O_R   0.505910 0.557140 0.441630 -0.523623
O2    O     O_R   0.175760 0.566370 0.557960 -0.522809
O3    O     O_R   0.005440 0.442860 0.558370 -0.525198
C1    C     C_R   0.343749 0.583776 0.580207 0.714843
O4    O     O_R   0.176200 0.564760 0.442040 -0.522066
O5    O     O_R   0.005880 0.441250 0.441620 -0.520516
C2    C     C_R   0.347672 0.582127 0.420053 0.679502
O6    O     O_R   0.505470 0.558750 0.558380 -0.517371
O7    O     O_3   0.339200 0.459480 0.500000 -0.346548
V1    V     V_3+5 0.064350 0.507520 0.500000 1.458882
O8    O     O_R   0.676160 0.433630 0.442040 -0.521006
C3    C     C_R   0.845455 0.415820 0.420365 0.703242
O9    O     O_R   0.675730 0.435240 0.557960 -0.511718
C4    C     C_R   0.840733 0.420758 0.576845 0.733357
V2    V     V_3+5 0.564340 0.492480 0.500000 1.502188
O10   O     O_3   0.839360 0.540520 0.500000 -0.371566
C5    C     C_3   0.084464 0.291859 0.725847 -0.272103
C6    C     C_3   0.756599 0.311111 0.769702 0.373901
C7    C     C_3   0.777789 0.260796 0.823491 0.019112
C8    C     C_1   0.939970 0.119027 0.884818 -0.023331
C9    C     C_3   0.872207 0.287566 0.708555 -0.125284
C10   C     C_3   0.111365 0.242893 0.782882 0.148294
C11   C     C_3   0.919604 0.205203 0.797733 -0.122803
C12   C     C_3   0.846540 0.162389 0.736251 0.044516
C13   C     C_3   0.812193 0.212712 0.682065 -0.166127
C14   C     C_1   0.938648 0.158236 0.845956 0.195820
C15   C     C_1   0.845856 0.334872 0.660787 0.111847
C16   C     C_1   0.839759 0.374058 0.622061 -0.063818
C17   C     C_1   0.921702 0.130255 0.138027 -0.171989
C18   C     C_1   0.910235 0.173712 0.180938 0.025200
C19   C     C_1   0.895606 0.224994 0.231953 0.023311
C20   C     C_1   0.883043 0.268216 0.275033 0.021962
C21   C     C_1   0.868416 0.319496 0.326049 0.020081
C22   C     C_1   0.856953 0.362951 0.368963 -0.182532
C23   C     C_1   0.353363 0.635158 0.633399 -0.180951
C24   C     C_1   0.365507 0.676858 0.677964 0.037297
C25   C     C_1   0.382113 0.725922 0.731119 0.036276
C26   C     C_1   0.396554 0.767166 0.775949 0.036429
C27   C     C_1   0.413160 0.816232 0.829102 0.037702
C28   C     C_1   0.425305 0.857939 0.873663 -0.179783
C29   C     C_1   0.362491 0.633579 0.368432 -0.187264
C30   C     C_1   0.372924 0.675526 0.325883 0.023858
C31   C     C_1   0.384653 0.725641 0.274842 0.012265
C32   C     C_1   0.394310 0.767481 0.232193 0.011928
C33   C     C_1   0.406031 0.817596 0.181153 0.022878
C34   C     C_1   0.416442 0.859544 0.138604 -0.188118
O11   O     O_R   0.273200 0.934350 0.948680 -0.517715
O12   O     O_R   0.602630 0.928390 0.064980 -0.523010
O13   O     O_R   0.772790 0.051930 0.065390 -0.519653
C35   C     C_R   0.431188 0.911001 0.086985 0.676916
O14   O     O_R   0.602920 0.926780 0.949060 -0.523477
O15   O     O_R   0.773080 0.050310 0.948640 -0.524203
C36   C     C_R   0.434922 0.909339 0.926840 0.716503
O16   O     O_R   0.272900 0.935970 0.065430 -0.524626
O17   O     O_3   0.439420 0.033650 0.007040 -0.346291
V3    V     V_3+5 0.714330 0.985650 0.007020 1.465150
O18   O     O_R   0.102790 0.057980 0.949020 -0.514007
C37   C     C_R   0.937822 0.072417 0.930133 0.736999
O19   O     O_R   0.102500 0.059590 0.064940 -0.521258
C38   C     C_R   0.933207 0.077381 0.086629 0.711391
V4    V     V_3+5 0.214320 0.000760 0.006970 1.507215
O20   O     O_3   0.939360 0.952680 0.006990 -0.373796
Br1   Br    Br    0.202528 0.291480 0.858111 -0.325545
C39   C     C_2   0.200408 0.269545 0.668451 0.347479
H1    H     H_    0.232529 0.217417 0.659028 0.076229
O21   O     O_2   0.242753 0.308110 0.628223 -0.499567
C40   C     C_2   0.263379 0.191446 0.770965 0.584839
H2    H     H_    0.378770 0.201363 0.741794 0.019067
O22   O     O_2   0.272712 0.140703 0.799676 -0.494783
C41   C     C_2   0.680982 0.115435 0.750166 0.483201
H3    H     H_    0.638931 0.105246 0.796665 0.110689
O23   O     O_2   0.612676 0.078481 0.710028 -0.472948
C42   C     C_2   0.138838 0.367982 0.736120 0.714359
H4    H     H_    0.142031 0.399831 0.697185 0.053597
O24   O     O_2   0.178168 0.396157 0.785117 -0.442659
Br2   Br    Br    0.515684 0.323160 0.750087 -0.470724
Br3   Br    Br    0.780798 0.407851 0.794110 -0.437306
C43   C     C_2   0.814385 0.297945 0.885933 0.659932
H5    H     H_    0.770682 0.348770 0.895933 0.124977
O25   O     O_2   0.869910 0.268830 0.929878 -0.497354
Br4   Br    Br    0.565416 0.215459 0.859203 -0.486766
C44   C     C_2   0.910892 0.191357 0.620517 0.509461
H6    H     H_    0.972179 0.228655 0.591360 0.067935
O26   O     O_2   0.893100 0.134720 0.597109 -0.459955
C45   C     C_2   0.616374 0.210907 0.656511 0.449993
H7    H     H_    0.523324 0.168723 0.660543 0.119787
O27   O     O_2   0.572518 0.251137 0.619363 -0.499324
Br5   Br    Br    0.021033 0.089391 0.709580 -0.408921

loop_
_geom_bond_atom_site_label_1
_geom_bond_atom_site_label_2
_ccdc_geom_bond_type
O17   V3    S    
C6    C9    S    
C29   C30   T    
O2    C1    A    
C23   C24   T    
C1    O6    A    
C12   C41   S    
C45   H7    S    
C35   O16   A    
O13   C38   A    
C24   C25   S    
C6    C7    S    
C5    C39   S    
O5    C3    A    
C18   C19   S    
C43   O25   D    
V2    O10   S    
O14   V3    S    
C42   H4    S    
C11   C14   S    
C10   Br1   S    
O8    V2    S    
C11   C12   S    
C41   H3    S    
O1    V2    S    
C17   C18   T    
O7    V1    S    
O11   C36   A    
O12   C35   A    
C9    C15   S    
C1    C23   S    
O19   C38   A    
O9    C4    A    
C5    C42   S    
C42   O24   D    
C45   O27   D    
O19   V4    S    
C40   H2    S    
C12   C13   S    
C27   C28   T    
O4    C2    A    
C43   H5    S    
C33   C34   T    
C5    C9    S    
C40   O22   D    
C39   O21   D    
C7    C43   S    
C7    C11   S    
C31   C32   T    
O5    V1    S    
C25   C26   T    
C19   C20   T    
C17   C38   S    
C13   C45   S    
C21   C22   T    
C12   Br5   S    
O3    C4    A    
O15   C37   A    
C44   H6    S    
O6    V2    S    
C44   O26   D    
O9    V2    S    
C13   C44   S    
V3    O20   S    
C30   C31   S    
C3    C22   S    
O2    V1    S    
C32   C33   S    
O12   V3    S    
C9    C13   S    
C6    Br2   S    
O1    C2    A    
O11   V4    S    
O8    C3    A    
O18   V4    S    
O16   V4    S    
O13   V3    S    
C34   C35   S    
C5    C10   S    
C4    C16   S    
C39   H1    S    
O7    V2    S    
O4    V1    S    
O3    V1    S    
V1    O10   S    
C20   C21   S    
O18   C37   A    
C26   C27   S    
C8    C14   T    
C6    Br3   S    
O17   V4    S    
C2    C29   S    
V4    O20   S    
C10   C40   S    
C28   C36   S    
C15   C16   T    
C10   C11   S    
C41   O23   D    
O14   C36   A    
C7    Br4   S    
C8    C37   S    
O15   V3    S    
