data_mof_unit_10712.cif
_audit_creation_date              2012-12-10T17:37:16-0500
_audit_creation_method            fapswitch 2.2
_symmetry_space_group_name_H-M    P1
_symmetry_Int_Tables_number       1
_space_group_crystal_system       triclinic
_cell_length_a                    12.37123
_cell_length_b                    13.298776
_cell_length_c                    15.865052
_cell_angle_alpha                 77.555158
_cell_angle_beta                  102.552186
_cell_angle_gamma                 116.574104
_cell_volume                      2257.60140734

loop_
_atom_site_label
_atom_site_type_symbol
_atom_type_description
_atom_site_fract_x
_atom_site_fract_y
_atom_site_fract_z
_atom_type_partial_charge
C1    C     C_R   0.854854 0.287394 0.502269 0.808301
C2    C     C_3   0.010324 0.507396 0.916441 -0.143034
C3    C     C_3   0.120762 0.549776 0.041653 0.318403
C4    C     C_3   0.003864 0.501231 0.084482 -0.215304
C5    C     C_3   0.065583 0.614495 0.963632 -0.443159
C6    C     C_3   0.947743 0.564097 0.006896 0.549835
C7    C     C_1   0.008560 0.506419 0.824858 0.076081
C8    C     C_1   0.003204 0.506973 0.174750 0.068334
C9    C     C_R   0.274452 0.028144 0.414429 -0.243489
C10   C     C_R   0.230047 0.835996 0.482578 -0.257703
C11   C     C_R   0.824147 0.086755 0.535100 -0.179199
C12   C     C_R   0.001516 0.500996 0.659910 0.794335
C13   C     C_R   0.750917 0.971084 0.543114 -0.194636
C14   C     C_R   0.625358 0.931694 0.520354 -0.096274
C15   C     C_R   0.570964 0.007896 0.484837 0.036360
C16   C     C_R   0.648767 0.123577 0.458680 -0.062108
C17   C     C_R   0.442365 0.973281 0.471273 -0.090596
C18   C     C_R   0.396441 0.049182 0.418709 -0.147652
C19   C     C_R   0.471040 0.143304 0.366824 0.340115
C20   C     C_R   0.599675 0.188709 0.391606 0.338538
C21   C     C_R   0.356824 0.868055 0.508734 0.402579
C22   C     C_R   0.189690 0.921080 0.442614 0.349381
C23   C     C_R   0.145630 0.713666 0.492002 0.824912
C24   C     C_R   0.774611 0.165297 0.496068 -0.053171
C25   C     C_R   0.349416 0.331585 0.640816 0.302989
C26   C     C_R   0.745505 0.628335 0.374056 0.705523
C27   C     C_R   0.644905 0.652916 0.345407 -0.386008
C28   C     C_R   0.548173 0.605659 0.393097 -0.204184
C29   C     C_R   0.549746 0.532172 0.471760 0.076526
C30   C     C_R   0.655488 0.508844 0.498326 0.118792
C31   C     C_R   0.448188 0.475839 0.521654 -0.240992
C32   C     C_R   0.453138 0.394056 0.595689 -0.199807
C33   C     C_R   0.559889 0.375172 0.623577 0.491287
C34   C     C_R   0.001274 0.503188 0.339864 0.831842
C35   C     C_R   0.654261 0.427693 0.571305 -0.286735
C36   C     C_R   0.341554 0.497858 0.502615 0.669294
C37   C     C_R   0.248868 0.357559 0.617120 0.575130
C38   C     C_3   0.950003 0.396007 0.035807 0.262459
C39   C     C_3   0.894195 0.458933 0.959204 0.339433
C40   C     C_1   0.005681 0.504110 0.749435 -0.174365
C41   C     C_1   0.002142 0.507054 0.249954 -0.131211
C42   C     C_3   0.066985 0.445410 0.993108 0.408571
Cu1   Cu    Cu3+1 0.098270 0.475420 0.519690 1.049325
Cu2   Cu    Cu3+1 0.901730 0.524580 0.480310 0.975376
H1    H     H_    0.920052 0.114551 0.560684 0.180887
H2    H     H_    0.573677 0.840937 0.527420 0.208192
H3    H     H_    0.791163 0.911654 0.570738 0.159691
H4    H     H_    0.471580 0.623768 0.362399 0.242331
H5    H     H_    0.639227 0.704765 0.283225 0.174641
H6    H     H_    0.724448 0.400496 0.586293 0.205262
H7    H     H_    0.110712 0.703476 0.932526 0.176738
H8    H     H_    0.243858 0.094091 0.385049 0.193047
N1    N     N_R   0.246280 0.438200 0.549540 -0.296100
N2    N     N_R   0.754330 0.561180 0.450980 -0.247388
O1    O     O_R   0.972510 0.318130 0.524770 -0.553836
O2    O     O_R   0.806530 0.359650 0.491510 -0.604876
O3    O     O_R   0.082970 0.479240 0.637550 -0.527006
O4    O     O_R   0.916990 0.520750 0.604290 -0.602393
O5    O     O_R   0.193470 0.640350 0.508490 -0.484371
O6    O     O_R   0.027490 0.681870 0.475230 -0.555908
O7    O     O_R   0.083010 0.479250 0.395710 -0.540964
O8    O     O_R   0.917030 0.520760 0.362450 -0.538747
O9    O     O_3   0.777050 0.414608 0.910440 -0.591731
C43   C     C_3   0.685093 0.372751 0.964727 0.155161
H9    H     H_    0.630959 0.423697 0.944101 0.169566
H10   H     H_    0.719803 0.379538 0.035101 0.119734
C44   C     C_3   0.601425 0.249058 0.952851 -0.346023
H11   H     H_    0.545730 0.245811 0.887492 0.249363
H12   H     H_    0.657362 0.201441 0.957381 0.245221
C45   C     C_3   0.515881 0.191350 0.021510 -0.972975
H13   H     H_    0.569088 0.186018 0.087004 0.244522
H14   H     H_    0.453021 0.103877 0.007758 0.261438
H15   H     H_    0.461658 0.239390 0.020244 0.268787
O10   O     O_3   0.394662 0.797755 0.573200 -0.596016
C46   C     C_3   0.385985 0.817526 0.654939 0.036417
H16   H     H_    0.290975 0.802627 0.659019 0.130048
H17   H     H_    0.449485 0.906194 0.666214 0.141920
C47   C     C_3   0.420873 0.735850 0.726399 -0.283927
H18   H     H_    0.359281 0.647314 0.714291 0.226259
H19   H     H_    0.516248 0.750664 0.724613 0.225170
C48   C     C_3   0.410266 0.751552 0.816319 -0.972788
H20   H     H_    0.470384 0.839941 0.829453 0.263067
H21   H     H_    0.438545 0.692746 0.867033 0.261857
H22   H     H_    0.314363 0.732693 0.820395 0.247595
O11   O     O_3   0.680071 0.280126 0.341316 -0.641097
C49   C     C_3   0.641110 0.367966 0.306482 0.171866
H23   H     H_    0.562172 0.362387 0.332960 0.150550
H24   H     H_    0.712724 0.445964 0.327151 0.207022
C50   C     C_3   0.627552 0.385931 0.206771 -0.331172
H25   H     H_    0.718984 0.419545 0.185973 0.211658
H26   H     H_    0.570824 0.304380 0.181238 0.228818
C51   C     C_3   0.570389 0.469113 0.166886 -0.872752
H27   H     H_    0.479082 0.438006 0.187231 0.264001
H28   H     H_    0.559468 0.477638 0.094699 0.245760
H29   H     H_    0.629929 0.553880 0.187529 0.283817
F1    F     F_    0.153264 0.302684 0.663165 -0.651767
O12   O     O_3   0.568623 0.310564 0.705236 -0.582135
C52   C     C_3   0.662999 0.273129 0.726016 0.092691
H30   H     H_    0.669367 0.242591 0.796766 0.190115
H31   H     H_    0.754666 0.342542 0.718531 0.146352
C53   C     C_3   0.631944 0.172011 0.679363 -0.452028
H32   H     H_    0.540192 0.105703 0.691778 0.210414
H33   H     H_    0.629506 0.198360 0.608029 0.214728
C54   C     C_3   0.724634 0.121188 0.712527 -0.849193
H34   H     H_    0.816365 0.183739 0.696498 0.266363
H35   H     H_    0.696152 0.044373 0.681527 0.268588
H36   H     H_    0.729496 0.095716 0.784204 0.256735
O13   O     O_3   0.346476 0.249267 0.711821 -0.543774
C55   C     C_3   0.313236 0.144024 0.683360 0.111515
H37   H     H_    0.355517 0.096049 0.734749 0.165218
H38   H     H_    0.349077 0.152957 0.622046 0.112445
C56   C     C_3   0.174485 0.074913 0.672696 -0.339916
H39   H     H_    0.137686 0.077658 0.729736 0.261130
H40   H     H_    0.132214 0.112215 0.612865 0.221542
C57   C     C_3   0.140107 0.951391 0.665288 -0.903614
H41   H     H_    0.181407 0.946695 0.611681 0.269327
H42   H     H_    0.039345 0.905284 0.651500 0.275490
H43   H     H_    0.172895 0.909405 0.727208 0.242622
F2    F     F_    0.332717 0.582763 0.441441 -0.656726
F3    F     F_    0.827063 0.660996 0.318246 -0.710561
O14   O     O_3   0.892282 0.277339 0.061294 -0.576432
C58   C     C_3   0.854004 0.249928 0.143985 0.082457
H44   H     H_    0.774904 0.165508 0.145298 0.166744
H45   H     H_    0.819709 0.308830 0.156366 0.115354
C59   C     C_3   0.955372 0.240408 0.215903 -0.352228
H46   H     H_    0.983408 0.178070 0.202444 0.233538
H47   H     H_    0.037780 0.321916 0.216242 0.233954
C60   C     C_3   0.912624 0.204222 0.305403 -0.884409
H48   H     H_    0.880546 0.264347 0.318311 0.272072
H49   H     H_    0.989402 0.203818 0.356777 0.250614
H50   H     H_    0.836935 0.117736 0.308852 0.262317
F4    F     F_    0.883827 0.623762 0.014406 -0.646710
O15   O     O_3   0.237471 0.586057 0.092049 -0.591456
C61   C     C_3   0.313605 0.696927 0.058481 0.058590
H51   H     H_    0.276643 0.757538 0.063776 0.162680
H52   H     H_    0.321668 0.700748 0.989184 0.134450
C62   C     C_3   0.440662 0.730958 0.111478 -0.327354
H53   H     H_    0.433962 0.725902 0.181158 0.229908
H54   H     H_    0.478484 0.671020 0.106590 0.223588
C63   C     C_3   0.527263 0.851417 0.078838 -0.918684
H55   H     H_    0.536777 0.858038 0.009578 0.264442
H56   H     H_    0.618627 0.873246 0.118436 0.259903
H57   H     H_    0.492567 0.913135 0.084908 0.252699
O16   O     O_3   0.123530 0.376438 0.986056 -0.570564
C64   C     C_3   0.235679 0.443109 0.953384 0.053533
H58   H     H_    0.307771 0.480810 0.007488 0.175968
H59   H     H_    0.231204 0.512512 0.901016 0.140893
C65   C     C_3   0.270304 0.366753 0.915621 -0.314834
H60   H     H_    0.281145 0.300254 0.967915 0.218146
H61   H     H_    0.196207 0.324458 0.864084 0.268217
C66   C     C_3   0.389133 0.433825 0.876610 -0.877763
H62   H     H_    0.377083 0.493997 0.819061 0.262867
H63   H     H_    0.415503 0.374650 0.855297 0.294626
H64   H     H_    0.463339 0.481622 0.925663 0.236058
O17   O     O_3   0.071814 0.906470 0.441757 -0.613217
C67   C     C_3   0.001267 0.875676 0.361074 0.168114
H65   H     H_    0.905474 0.835810 0.373591 0.207797
H66   H     H_    0.021604 0.814492 0.336360 0.195540
C68   C     C_3   0.013616 0.976794 0.290548 -0.482646
H67   H     H_    0.005153 0.042537 0.317704 0.244854
H68   H     H_    0.103907 0.012416 0.268622 0.218398
C69   C     C_3   0.915727 0.939902 0.211841 -0.836191
H69   H     H_    0.916119 0.866354 0.189622 0.290948
H70   H     H_    0.933766 0.009959 0.156750 0.261361
H71   H     H_    0.824164 0.915920 0.229112 0.250698
O18   O     O_3   0.417424 0.191819 0.293598 -0.626338
C70   C     C_3   0.362966 0.117828 0.229149 0.041350
H72   H     H_    0.303002 0.030130 0.255544 0.150717
H73   H     H_    0.434648 0.112655 0.200786 0.144332
C71   C     C_3   0.285588 0.164143 0.157427 -0.333539
H74   H     H_    0.224697 0.183399 0.187178 0.235465
H75   H     H_    0.346078 0.244750 0.121968 0.219280
C72   C     C_3   0.207334 0.079432 0.093242 -0.901558
H76   H     H_    0.265676 0.061088 0.060380 0.257344
H77   H     H_    0.151167 0.115133 0.043165 0.277377
H78   H     H_    0.145019 0.998701 0.127479 0.266743

loop_
_geom_bond_atom_site_label_1
_geom_bond_atom_site_label_2
_ccdc_geom_bond_type
C3    C42   S    
C53   H32   S    
C19   C20   A    
C67   C68   S    
C63   H57   S    
C4    C8    S    
C60   H48   S    
C48   H22   S    
C61   C62   S    
C54   H35   S    
O12   C52   S    
C14   H2    S    
C72   H76   S    
C10   C22   A    
C23   O5    A    
C30   N2    A    
C26   C27   A    
C30   C35   A    
C28   C29   A    
C1    O2    A    
C63   H56   S    
C38   C42   S    
C55   H38   S    
C5    C6    S    
C47   H19   S    
C9    C22   A    
C71   H74   S    
C15   C16   A    
C11   C24   A    
C34   O8    A    
O13   C55   S    
C18   C19   A    
C66   H64   S    
C36   F2    S    
C56   H39   S    
C36   N1    A    
C48   H21   S    
C2    C39   S    
Cu1   N1    S    
C2    C7    S    
Cu2   O4    S    
C57   H42   S    
C59   C60   S    
C66   H62   S    
C65   C66   S    
C45   H13   S    
C19   O18   S    
C50   H26   S    
C31   C36   A    
Cu1   O5    S    
C12   O4    A    
C25   C32   A    
C59   H46   S    
C16   C24   A    
C13   C14   A    
C70   H73   S    
O18   C70   S    
C9    H8    S    
C45   H15   S    
C26   N2    A    
C56   H40   S    
C54   H34   S    
C64   H59   S    
C64   H58   S    
C70   C71   S    
C69   H70   S    
C22   O17   S    
C72   H77   S    
C10   C21   A    
C23   O6    A    
C62   C63   S    
Cu2   O6    S    
O10   C46   S    
C49   H24   S    
C44   H11   S    
C43   C44   S    
C56   C57   S    
C8    C41   T    
C4    C6    S    
C55   C56   S    
C70   H72   S    
C13   H3    S    
C49   H23   S    
C61   H52   S    
Cu2   O8    S    
O11   C49   S    
C21   O10   S    
C51   H29   S    
C48   H20   S    
C37   F1    S    
C3    O15   S    
C43   H10   S    
C12   C40   S    
C46   H16   S    
C34   C41   S    
C29   C30   A    
C69   H71   S    
C62   H54   S    
Cu2   O2    S    
C68   H67   S    
C7    C40   T    
C57   H43   S    
C6    C39   S    
C20   O11   S    
C35   H6    S    
C51   H28   S    
C17   C18   A    
C68   C69   S    
C16   C20   A    
C63   H55   S    
C50   C51   S    
C46   H17   S    
O14   C58   S    
C12   O3    A    
C6    F4    S    
C4    C38   S    
C53   C54   S    
C52   H31   S    
Cu1   Cu2   S    
C42   O16   S    
O15   C61   S    
C11   H1    S    
C2    C5    S    
C58   H45   S    
C3    C4    S    
C60   H50   S    
O17   C67   S    
C64   C65   S    
Cu1   O7    S    
C69   H69   S    
C72   H78   S    
Cu1   O1    S    
C15   C17   A    
C28   H4    S    
C47   H18   S    
C31   C32   A    
C65   H61   S    
O16   C64   S    
C3    C5    S    
C49   C50   S    
C60   H49   S    
C58   H44   S    
C61   H51   S    
C10   C23   S    
C52   C53   S    
C39   O9    S    
C62   H53   S    
C44   C45   S    
C43   H9    S    
C58   C59   S    
C67   H66   S    
C68   H68   S    
C1    O1    A    
C37   N1    A    
C29   C31   A    
C55   H37   S    
C32   C33   A    
C11   C13   A    
C47   C48   S    
C57   H41   S    
C38   C39   S    
C71   H75   S    
C2    C42   S    
C51   H27   S    
C33   C35   A    
C33   O12   S    
C65   H60   S    
C66   H63   S    
C46   C47   S    
C17   C21   A    
C38   O14   S    
Cu1   O3    S    
O9    C43   S    
Cu2   N2    S    
C9    C18   A    
C67   H65   S    
C1    C24   S    
C53   H33   S    
C52   H30   S    
C34   O7    A    
C27   C28   A    
C59   H47   S    
C26   F3    S    
C14   C15   A    
C5    H7    S    
C45   H14   S    
C44   H12   S    
C50   H25   S    
C54   H36   S    
C27   H5    S    
C25   O13   S    
C25   C37   A    
C71   C72   S    
