data_mof_unit_7326.cif
_audit_creation_date              2012-12-11T16:16:53-0500
_audit_creation_method            fapswitch 2.2
_symmetry_space_group_name_H-M    P1
_symmetry_Int_Tables_number       1
_space_group_crystal_system       triclinic
_cell_length_a                    13.286021
_cell_length_b                    13.287096
_cell_length_c                    28.606286
_cell_angle_alpha                 89.999819
_cell_angle_beta                  89.999842
_cell_angle_gamma                 120.022658
_cell_volume                      4372.38014261

loop_
_atom_site_label
_atom_site_type_symbol
_atom_type_description
_atom_site_fract_x
_atom_site_fract_y
_atom_site_fract_z
_atom_type_partial_charge
C1    C     C_R   0.438962 0.549976 0.316368 0.541835
C2    C     C_R   0.549950 0.438921 0.683656 0.543924
C3    C     C_R   0.561187 0.111176 0.816387 0.542629
C4    C     C_R   0.888788 0.449988 0.683599 0.543836
C5    C     C_1   0.060508 0.525361 0.361528 0.018997
C6    C     C_1   0.465437 0.940323 0.138638 0.014308
C7    C     C_1   0.472766 0.537085 0.362201 0.011396
C8    C     C_1   0.060520 0.525373 0.138470 0.019007
C9    C     C_1   0.465448 0.940344 0.361358 0.014330
C10   C     C_1   0.472773 0.537081 0.137801 0.011394
C11   C     C_1   0.527384 0.063726 0.862086 0.013742
C12   C     C_R   0.110730 0.560905 0.183723 0.541678
C13   C     C_1   0.938097 0.464114 0.638210 0.017470
C14   C     C_1   0.534967 0.475826 0.861255 0.010662
C15   C     C_1   0.527404 0.063758 0.637909 0.013753
C16   C     C_1   0.938102 0.464121 0.861789 0.017493
C17   C     C_1   0.534967 0.475834 0.638746 0.010648
C18   C     C_R   0.971014 0.392767 0.473898 -0.099504
C19   C     C_R   0.399016 0.992723 0.024513 -0.113361
C20   C     C_R   0.605932 0.571108 0.474144 -0.113783
C21   C     C_R   0.971267 0.392844 0.026088 -0.099560
C22   C     C_R   0.399207 0.993121 0.475461 -0.113260
C23   C     C_R   0.450147 0.889064 0.316315 0.542821
C24   C     C_R   0.605938 0.571173 0.025854 -0.113806
C25   C     C_R   0.404651 0.003063 0.976017 -0.112761
C26   C     C_R   0.960834 0.386156 0.522414 -0.105479
C27   C     C_R   0.613961 0.567017 0.977418 -0.113885
C28   C     C_R   0.404826 0.003454 0.523958 -0.112684
C29   C     C_R   0.961097 0.386248 0.977572 -0.105514
C30   C     C_R   0.613963 0.566954 0.522579 -0.113873
C31   C     C_R   0.030553 0.593952 0.526374 -0.011272
C32   C     C_R   0.597421 0.023597 0.976914 -0.009605
C33   C     C_R   0.402772 0.464226 0.528876 -0.007462
C34   C     C_R   0.438963 0.549976 0.183633 0.541832
C35   C     C_R   0.030281 0.593926 0.973639 -0.011277
C36   C     C_R   0.597336 0.023343 0.523094 -0.009668
C37   C     C_R   0.402770 0.464083 0.971136 -0.007452
C38   C     C_R   0.591539 0.012832 0.025962 -0.009875
C39   C     C_R   0.040214 0.600507 0.477305 -0.011122
C40   C     C_R   0.394648 0.467316 0.020155 -0.006950
C41   C     C_R   0.591458 0.012558 0.474047 -0.009936
C42   C     C_R   0.039945 0.600469 0.022708 -0.011124
C43   C     C_R   0.394641 0.467458 0.479856 -0.006967
C44   C     C_R   0.010696 0.499287 0.451263 0.011393
C45   C     C_R   0.110727 0.560902 0.316276 0.541685
C46   C     C_R   0.491410 0.996878 0.049542 0.007091
C47   C     C_R   0.496979 0.520641 0.452663 0.010072
C48   C     C_R   0.010689 0.499299 0.048737 0.011313
C49   C     C_R   0.491466 0.996929 0.450450 0.007089
C50   C     C_R   0.496990 0.520607 0.047342 0.010066
C51   C     C_R   0.502775 0.017516 0.952110 0.009330
C52   C     C_R   0.990775 0.486044 0.548732 0.011244
C53   C     C_R   0.513202 0.513495 0.950014 0.010773
C54   C     C_R   0.502807 0.017576 0.547882 0.009337
C55   C     C_R   0.990775 0.486083 0.951268 0.011173
C56   C     C_R   0.450145 0.889061 0.183684 0.542813
C57   C     C_R   0.513207 0.513531 0.549990 0.010785
C58   C     C_1   0.967263 0.474087 0.598002 -0.024305
C59   C     C_1   0.510587 0.037086 0.902585 -0.032323
C60   C     C_1   0.524702 0.497711 0.598936 -0.034447
C61   C     C_1   0.967268 0.474109 0.901997 -0.024309
C62   C     C_1   0.510619 0.037138 0.597407 -0.032299
C63   C     C_1   0.524701 0.497693 0.901066 -0.034442
C64   C     C_1   0.477253 0.971504 0.098659 -0.030987
C65   C     C_1   0.031490 0.507236 0.401784 -0.020941
C66   C     C_1   0.489725 0.529138 0.097128 -0.035425
C67   C     C_R   0.549949 0.438920 0.816344 0.543932
C68   C     C_1   0.477283 0.971542 0.401335 -0.030947
C69   C     C_1   0.031501 0.507254 0.098214 -0.020969
C70   C     C_1   0.489714 0.529153 0.402875 -0.035423
C71   C     C_1   0.060210 0.697201 0.553634 0.205019
C72   C     C_1   0.700264 0.041207 0.952113 0.199352
C73   C     C_1   0.298381 0.409127 0.557294 0.214040
C74   C     C_1   0.059655 0.697119 0.946393 0.204901
C75   C     C_1   0.700064 0.040676 0.547910 0.199337
C76   C     C_1   0.298376 0.408877 0.942724 0.214034
C77   C     C_1   0.687336 0.017087 0.051969 0.202673
C78   C     C_R   0.561190 0.111182 0.683611 0.542621
C79   C     C_1   0.079209 0.710423 0.453591 0.203046
C80   C     C_1   0.281770 0.414671 0.042679 0.214040
C81   C     C_1   0.687116 0.016458 0.448058 0.202667
C82   C     C_1   0.078686 0.710320 0.046435 0.202915
C83   C     C_1   0.281756 0.414919 0.457339 0.214029
C84   C     C_R   0.888789 0.449989 0.816401 0.543843
Cr1   Cr    Cr6+3 0.505050 0.756260 0.250000 1.059200
Cr2   Cr    Cr6+3 0.251210 0.494950 0.250000 1.063753
Cr3   Cr    Cr6+3 0.243740 0.748790 0.250000 1.060457
Cr4   Cr    Cr6+3 0.756260 0.505050 0.750000 1.059320
Cr5   Cr    Cr6+3 0.494950 0.251210 0.750000 1.061198
Cr6   Cr    Cr6+3 0.748790 0.243740 0.750000 1.067461
H1    H     H_    0.948799 0.314913 0.454039 0.157992
H2    H     H_    0.332928 0.001085 0.542821 0.151674
H3    H     H_    0.928790 0.302846 0.960538 0.157545
H4    H     H_    0.699004 0.603559 0.538663 0.135341
H5    H     H_    0.321914 0.980195 0.042517 0.160794
H6    H     H_    0.684709 0.613020 0.453403 0.135513
H7    H     H_    0.949251 0.315031 0.045937 0.158241
H8    H     H_    0.322219 0.980868 0.457444 0.160803
H9    H     H_    0.684716 0.613169 0.046589 0.135544
H10   H     H_    0.332651 0.000436 0.957141 0.151686
H11   H     H_    0.928312 0.302706 0.539438 0.157288
H12   H     H_    0.699002 0.603704 0.961329 0.135391
N1    N     N_1   0.083946 0.779603 0.575371 -0.278550
N2    N     N_1   0.763446 0.019615 0.427325 -0.268259
N3    N     N_1   0.109076 0.797644 0.065524 -0.292144
N4    N     N_1   0.191961 0.372789 0.439176 -0.283151
N5    N     N_1   0.782259 0.055234 0.932307 -0.269107
N6    N     N_1   0.215032 0.365254 0.579931 -0.267718
N7    N     N_1   0.083164 0.779475 0.924666 -0.278518
N8    N     N_1   0.781972 0.054490 0.567726 -0.268968
N9    N     N_1   0.215024 0.364919 0.920092 -0.267714
N10   N     N_1   0.763777 0.020530 0.072716 -0.268315
N11   N     N_1   0.109798 0.797797 0.434510 -0.292245
N12   N     N_1   0.191981 0.372459 0.060849 -0.283160
O1    O     O_R   0.530190 0.870330 0.301660 -0.495310
O2    O     O_R   0.870330 0.530190 0.698340 -0.496148
O3    O     O_R   0.469810 0.340140 0.801660 -0.494248
O4    O     O_R   0.659860 0.129670 0.698340 -0.493094
O5    O     O_R   0.494300 0.651190 0.297490 -0.491789
O6    O     O_R   0.156890 0.505700 0.202510 -0.487866
O7    O     O_R   0.348810 0.843110 0.297490 -0.489812
O8    O     O_R   0.494300 0.651190 0.202510 -0.491808
O9    O     O_R   0.156890 0.505700 0.297490 -0.487864
O10   O     O_R   0.348810 0.843110 0.202510 -0.489837
O11   O     O_R   0.651190 0.494300 0.797490 -0.492486
O12   O     O_R   0.340140 0.469810 0.198340 -0.494233
O13   O     O_R   0.505700 0.156890 0.702510 -0.492004
O14   O     O_R   0.843110 0.348810 0.797490 -0.488645
O15   O     O_R   0.651190 0.494300 0.702510 -0.492492
O16   O     O_R   0.505700 0.156890 0.797490 -0.492002
O17   O     O_R   0.843110 0.348810 0.702510 -0.488663
O18   O     O_3   0.333333 0.666667 0.250000 -0.259728
O19   O     O_3   0.666667 0.333333 0.750000 -0.262816
O20   O     O_R   0.129670 0.659860 0.301660 -0.496417
O21   O     O_R   0.530190 0.870330 0.198340 -0.495311
O22   O     O_R   0.340140 0.469810 0.301660 -0.494250
O23   O     O_R   0.129670 0.659860 0.198340 -0.496425
O24   O     O_R   0.870330 0.530190 0.801660 -0.496138
O25   O     O_R   0.469810 0.340140 0.698340 -0.494259
O26   O     O_R   0.659860 0.129670 0.801660 -0.493073

loop_
_geom_bond_atom_site_label_1
_geom_bond_atom_site_label_2
_ccdc_geom_bond_type
C84   O14   A    
C35   C74   S    
C22   H8    S    
C49   C68   S    
Cr2   O12   S    
C24   H9    S    
C43   C83   S    
C42   C82   S    
C24   C27   A    
C31   C52   A    
C7    C70   T    
C44   C65   S    
C19   C46   A    
C23   O7    A    
C20   C30   A    
C45   O9    A    
C8    C69   T    
C18   H1    S    
Cr6   O4    S    
C78   O4    A    
Cr3   O23   S    
Cr4   O19   S    
C37   C40   A    
C26   C52   A    
C67   O11   A    
Cr1   O18   S    
Cr3   O10   S    
C15   C78   S    
C3    O16   A    
C30   C57   A    
C16   C84   S    
C2    O15   A    
C1    O5    A    
C82   N3    T    
C6    C64   T    
C4    C13   S    
Cr1   O5    S    
C35   C42   A    
C12   O6    A    
Cr5   O25   S    
C18   C26   A    
C14   C67   S    
C40   C80   S    
C32   C38   A    
C1    O22   A    
C48   C69   S    
C8    C12   S    
C21   C48   A    
C37   C53   A    
C31   C71   S    
C20   H6    S    
C84   O24   A    
C34   O8    A    
C22   C28   A    
C2    C17   S    
Cr3   O20   S    
C36   C41   A    
Cr4   O15   S    
C74   N7    T    
C11   C59   T    
C78   O13   A    
C41   C49   A    
C4    O17   A    
C67   O3    A    
C10   C66   T    
C24   C50   A    
Cr5   O19   S    
C35   C55   A    
C33   C43   A    
Cr1   O1    S    
C36   C54   A    
C5    C65   T    
C6    C56   S    
Cr3   O7    S    
Cr6   O19   S    
C28   C54   A    
C9    C23   S    
C57   C60   S    
C13   C58   T    
C29   C55   A    
C21   C29   A    
Cr5   O16   S    
C46   C64   S    
C39   C79   S    
Cr3   O18   S    
Cr4   O2    S    
C77   N10   T    
C25   C51   A    
C47   C70   S    
Cr4   O11   S    
C36   C75   S    
C18   C44   A    
C21   H7    S    
C25   H10   S    
C72   N5    T    
C34   O12   A    
C41   C81   S    
C45   O20   A    
Cr1   O8    S    
C10   C34   S    
C42   C48   A    
C50   C66   S    
Cr4   O24   S    
C52   C58   S    
Cr1   O21   S    
C22   C49   A    
Cr6   O17   S    
C33   C73   S    
C37   C76   S    
C80   N12   T    
C79   N11   T    
C51   C59   S    
C16   C61   T    
C2    O25   A    
C56   O10   A    
C56   O21   A    
C19   H5    S    
Cr5   O13   S    
C32   C51   A    
Cr2   O22   S    
C71   N1    T    
C75   N8    T    
C33   C57   A    
C1    C7    S    
C4    O2    A    
Cr5   O3    S    
C73   N6    T    
Cr6   O26   S    
C27   C53   A    
C39   C44   A    
C38   C77   S    
C54   C62   S    
C27   H12   S    
C83   N4    T    
C9    C68   T    
C26   H11   S    
C29   H3    S    
C53   C63   S    
Cr2   O18   S    
C5    C45   S    
C76   N9    T    
C40   C50   A    
C14   C63   T    
C55   C61   S    
C15   C62   T    
C31   C39   A    
C19   C25   A    
C38   C46   A    
C20   C47   A    
C3    C11   S    
C17   C60   T    
C23   O1    A    
C28   H2    S    
C30   H4    S    
Cr2   O9    S    
Cr6   O14   S    
C12   O23   A    
Cr2   O6    S    
C3    O26   A    
C43   C47   A    
C32   C72   S    
C81   N2    T    
