data_mof_unit_23575.cif
_audit_creation_date              2012-12-10T16:32:41-0500
_audit_creation_method            fapswitch 2.2
_symmetry_space_group_name_H-M    P1
_symmetry_Int_Tables_number       1
_space_group_crystal_system       triclinic
_cell_length_a                    17.008471
_cell_length_b                    16.987909
_cell_length_c                    17.060717
_cell_angle_alpha                 65.85179
_cell_angle_beta                  65.539419
_cell_angle_gamma                 65.155897
_cell_volume                      3903.34657033

loop_
_atom_site_label
_atom_site_type_symbol
_atom_type_description
_atom_site_fract_x
_atom_site_fract_y
_atom_site_fract_z
_atom_type_partial_charge
C1    C     C_R   0.595310 0.028623 0.592764 0.196718
C2    C     C_R   0.822400 0.566942 0.028269 0.924437
C3    C     C_3   0.897208 0.449897 0.699594 0.059426
C4    C     C_3   0.858240 0.522590 0.747924 -0.313489
C5    C     C_3   0.755311 0.558880 0.771528 -1.052195
C6    C     C_3   0.723896 0.174479 0.691385 0.130008
C7    C     C_3   0.763405 0.186941 0.750198 -0.258393
C8    C     C_3   0.822719 0.249244 0.696255 -1.061366
C9    C     C_3   0.217607 0.120348 0.221942 0.117469
C10   C     C_3   0.138743 0.154486 0.183107 -0.313586
C11   C     C_3   0.167734 0.132730 0.095020 -0.743376
C12   C     C_3   0.877816 0.786864 0.760417 0.089026
C13   C     C_R   0.434399 0.970364 0.177144 0.917644
C14   C     C_3   0.836664 0.861929 0.806146 -0.321622
C15   C     C_3   0.838669 0.825580 0.903138 -0.709153
C16   C     C_3   0.811084 0.323590 0.298169 0.116776
C17   C     C_3   0.760975 0.263749 0.382689 -0.370103
C18   C     C_3   0.659386 0.298300 0.394485 -0.962378
C19   C     C_3   0.670848 0.702281 0.195288 0.121643
C20   C     C_3   0.692520 0.762838 0.224371 -0.301252
C21   C     C_3   0.642423 0.756991 0.323058 -1.063408
C22   C     C_3   0.334846 0.291588 0.806902 0.101013
C23   C     C_3   0.301163 0.244886 0.772728 -0.326812
C24   C     C_R   0.566965 0.028307 0.822563 0.927080
C25   C     C_3   0.353337 0.246757 0.674882 -0.910750
C26   C     C_R   0.562526 0.821252 0.037336 0.916170
C27   C     C_R   0.432433 0.177541 0.973338 0.919992
C28   C     C_R   0.030368 0.565325 0.822329 0.914677
C29   C     C_R   0.972027 0.433441 0.177476 0.926219
C30   C     C_R   0.821106 0.038319 0.562369 0.886646
C31   C     C_R   0.175465 0.979245 0.431304 0.947381
C32   C     C_R   0.550524 0.002998 0.549410 -0.158866
C33   C     C_R   0.410210 0.968523 0.406565 0.191930
C34   C     C_R   0.464902 0.970275 0.457200 -0.174124
C35   C     C_R   0.039273 0.538084 0.535588 -0.150779
C36   C     C_R   0.006077 0.445191 0.450490 -0.167351
C37   C     C_R   0.547995 0.549234 0.002404 -0.147262
C38   C     C_R   0.450116 0.461334 0.981726 -0.154545
C39   C     C_R   0.598325 0.983660 0.465800 0.277141
C40   C     C_R   0.430512 0.957582 0.551467 0.295159
C41   C     C_R   0.027194 0.450732 0.580297 0.308498
C42   C     C_R   0.985947 0.539929 0.421300 0.333682
C43   C     C_R   0.461496 0.595950 0.988651 0.273157
C44   C     C_R   0.054441 0.586358 0.584453 0.172833
C45   C     C_R   0.545336 0.426624 0.964039 0.303425
C46   C     C_R   0.549401 0.988896 0.412269 0.337025
C47   C     C_R   0.462150 0.992049 0.592075 0.333020
C48   C     C_R   0.406087 0.546243 0.999853 0.337653
C49   C     C_R   0.589927 0.459893 0.992822 0.316810
C50   C     C_R   0.033696 0.398653 0.529231 0.324676
C51   C     C_R   0.021367 0.582069 0.450168 0.311360
C52   C     C_R   0.565586 0.015446 0.685389 -0.261362
C53   C     C_R   0.450228 0.954272 0.321016 -0.245310
C54   C     C_R   0.054182 0.676940 0.547571 -0.279839
C55   C     C_R   0.989191 0.398287 0.403229 0.183561
C56   C     C_R   0.968012 0.316911 0.448255 -0.276063
C57   C     C_R   0.686646 0.564335 0.011955 -0.247553
C58   C     C_R   0.319226 0.455810 0.950097 -0.261148
C59   C     C_R   0.315887 0.981945 0.442092 -0.243872
C60   C     C_R   0.674362 0.056693 0.545725 -0.268609
C61   C     C_R   0.432639 0.316311 0.989196 -0.224491
C62   C     C_R   0.545888 0.676908 0.049228 -0.263074
C63   C     C_R   0.992259 0.435259 0.312163 -0.196697
C64   C     C_R   0.061288 0.546514 0.673398 -0.254784
C65   C     C_R   0.602837 0.041411 0.727014 -0.192804
C66   C     C_R   0.593142 0.595510 0.024052 0.186920
C67   C     C_R   0.395986 0.969355 0.269033 -0.190622
C68   C     C_R   0.034127 0.729455 0.602857 -0.200022
C69   C     C_R   0.951829 0.274478 0.403171 -0.181861
C70   C     C_R   0.726894 0.602412 0.039433 -0.191072
C71   C     C_R   0.275420 0.407058 0.941190 -0.194946
C72   C     C_R   0.266685 0.983026 0.392149 -0.221065
C73   C     C_R   0.722344 0.062081 0.593442 -0.225006
C74   C     C_R   0.395948 0.273400 0.962865 -0.228187
C75   C     C_R   0.593101 0.723049 0.057884 -0.220917
C76   C     C_R   0.964197 0.397367 0.272025 -0.228426
C77   C     C_R   0.399241 0.410731 0.975333 0.193433
C78   C     C_R   0.037650 0.601884 0.728205 -0.205650
C79   C     C_R   0.678385 0.071220 0.679440 0.388311
C80   C     C_R   0.303347 0.993905 0.302063 0.412562
C81   C     C_R   0.011551 0.694428 0.694524 0.415590
C82   C     C_R   0.936025 0.320988 0.320785 0.405634
C83   C     C_R   0.676798 0.676724 0.071819 0.385362
C84   C     C_R   0.321888 0.322178 0.930070 0.388807
C85   C     C_3   0.365311 0.967831 0.740683 0.132243
C86   C     C_3   0.262203 0.002086 0.765690 -0.303634
C87   C     C_3   0.219281 0.940889 0.853977 -1.002678
C88   C     C_R   0.965441 0.178330 0.436390 0.905518
C89   C     C_3   0.662842 0.020956 0.272612 0.162252
C90   C     C_3   0.685564 0.101635 0.267991 -0.284525
C91   C     C_3   0.787706 0.083655 0.240680 -0.969530
C92   C     C_3   0.990241 0.731260 0.356424 0.127961
C93   C     C_3   0.008225 0.750595 0.255711 -0.286533
C94   C     C_3   0.930013 0.826586 0.222980 -1.001608
C95   C     C_3   0.054211 0.255098 0.633876 0.138968
C96   C     C_3   0.118551 0.236249 0.685468 -0.279386
C97   C     C_3   0.075215 0.204533 0.786739 -0.980635
C98   C     C_3   0.733567 0.348943 0.977990 0.126703
C99   C     C_R   0.028748 0.822858 0.565921 0.941067
C100  C     C_3   0.740637 0.248950 0.023711 -0.288526
C101  C     C_3   0.816577 0.189465 0.965925 -1.002769
C102  C     C_3   0.266327 0.661983 0.032160 0.153530
C103  C     C_3   0.264679 0.688519 0.108972 -0.285888
C104  C     C_3   0.239313 0.790942 0.087669 -0.968036
C105  C     C_3   0.403649 0.821292 0.612209 0.035006
C106  C     C_3   0.334111 0.771987 0.679089 -0.301106
C107  C     C_3   0.375707 0.669519 0.697056 -0.994799
C108  C     C_3   0.723794 0.859968 0.478844 0.051348
C109  C     C_3   0.784059 0.841645 0.534481 -0.289342
C110  C     C_R   0.178303 0.438218 0.960750 0.937448
C111  C     C_3   0.816074 0.741708 0.583718 -1.039730
C112  C     C_3   0.608266 0.409071 0.822055 0.057966
C113  C     C_3   0.552138 0.390121 0.784414 -0.319875
C114  C     C_3   0.573489 0.428521 0.682923 -1.028079
C115  C     C_3   0.478036 0.710004 0.857490 0.072318
C116  C     C_3   0.542956 0.763461 0.830882 -0.315652
C117  C     C_3   0.591489 0.784854 0.730657 -1.047986
C118  C     C_3   0.837571 0.617264 0.428508 0.052720
C119  C     C_3   0.786017 0.550304 0.456203 -0.327274
C120  C     C_3   0.693222 0.576692 0.523412 -1.042930
H1    H     H_    0.517744 0.979134 0.727428 0.201818
H2    H     H_    0.474531 0.708693 0.056252 0.230502
H3    H     H_    0.805908 0.120490 0.782743 0.233876
H4    H     H_    0.886978 0.213308 0.654383 0.276307
H5    H     H_    0.838347 0.266774 0.742870 0.246029
H6    H     H_    0.788905 0.312504 0.652278 0.262696
H7    H     H_    0.273578 0.147971 0.170825 0.133985
H8    H     H_    0.191995 0.147256 0.280588 0.086381
H9    H     H_    0.085057 0.123118 0.232321 0.257601
H10   H     H_    0.109704 0.228980 0.171187 0.200486
H11   H     H_    0.216242 0.169050 0.042870 0.293136
H12   H     H_    0.107508 0.155442 0.071840 0.216044
H13   H     H_    0.017186 0.493050 0.272118 0.213517
H14   H     H_    0.199422 0.058803 0.103949 0.269152
H15   H     H_    0.843730 0.733196 0.800874 0.113729
H16   H     H_    0.864014 0.818744 0.694144 0.092474
H17   H     H_    0.874316 0.912551 0.768662 0.258635
H18   H     H_    0.765175 0.896249 0.805069 0.199079
H19   H     H_    0.909304 0.790674 0.906906 0.268585
H20   H     H_    0.798287 0.777804 0.941444 0.283573
H21   H     H_    0.808318 0.882294 0.933549 0.220919
H22   H     H_    0.795434 0.327259 0.239427 0.176814
H23   H     H_    0.785483 0.394456 0.302458 0.098711
H24   H     H_    0.080663 0.474057 0.702213 0.224880
H25   H     H_    0.787949 0.193445 0.377660 0.246490
H26   H     H_    0.772172 0.262753 0.442826 0.189128
H27   H     H_    0.630850 0.368754 0.399294 0.265896
H28   H     H_    0.624924 0.254754 0.457178 0.269685
H29   H     H_    0.646089 0.296328 0.336910 0.273103
H30   H     H_    0.695565 0.630478 0.234008 0.126863
H31   H     H_    0.595621 0.722372 0.211618 0.115560
H32   H     H_    0.766684 0.741205 0.213994 0.227846
H33   H     H_    0.671596 0.834165 0.183261 0.234856
H34   H     H_    0.568189 0.778632 0.334989 0.269751
H35   H     H_    0.383675 0.964801 0.797357 0.139993
H36   H     H_    0.659205 0.800106 0.344517 0.257867
H37   H     H_    0.662177 0.686068 0.363676 0.291388
H38   H     H_    0.409196 0.258720 0.796657 0.124271
H39   H     H_    0.322168 0.364297 0.767229 0.122229
H40   H     H_    0.309466 0.173311 0.814552 0.240567
H41   H     H_    0.228008 0.279799 0.778664 0.218948
H42   H     H_    0.345696 0.317684 0.631608 0.252467
H43   H     H_    0.326299 0.213588 0.651862 0.290612
H44   H     H_    0.426368 0.209775 0.667859 0.277219
H45   H     H_    0.390686 0.897579 0.736958 0.151315
H46   H     H_    0.240214 0.070019 0.774259 0.223506
H47   H     H_    0.238748 0.007371 0.711406 0.257010
H48   H     H_    0.243773 0.870382 0.850518 0.258390
H49   H     H_    0.144491 0.965943 0.868116 0.266891
H50   H     H_    0.236109 0.941688 0.909886 0.265259
H51   H     H_    0.522780 0.934780 0.292501 0.219156
H52   H     H_    0.673875 0.024530 0.202486 0.125573
H53   H     H_    0.709059 0.953664 0.297688 0.160285
H54   H     H_    0.656111 0.162723 0.218759 0.195749
H55   H     H_    0.654634 0.117213 0.333364 0.241239
H56   H     H_    0.816705 0.026527 0.292904 0.289938
H57   H     H_    0.801868 0.144744 0.233637 0.263232
H58   H     H_    0.820934 0.067134 0.175583 0.257317
H59   H     H_    0.995691 0.789266 0.366300 0.139497
H60   H     H_    0.919690 0.730631 0.393570 0.138034
H61   H     H_    0.070820 0.771065 0.218905 0.211865
H62   H     H_    0.068552 0.709091 0.477091 0.230088
H63   H     H_    0.018785 0.688871 0.240145 0.259140
H64   H     H_    0.866728 0.806881 0.256910 0.264153
H65   H     H_    0.946150 0.840463 0.149425 0.262573
H66   H     H_    0.919193 0.889294 0.236955 0.263969
H67   H     H_    0.057286 0.188919 0.632734 0.136369
H68   H     H_    0.982493 0.285106 0.668651 0.145027
H69   H     H_    0.182228 0.183934 0.663682 0.198621
H70   H     H_    0.137325 0.297347 0.669645 0.254979
H71   H     H_    0.011741 0.257169 0.808699 0.283965
H72   H     H_    0.122104 0.192085 0.823244 0.255872
H73   H     H_    0.967041 0.284401 0.517297 0.198940
H74   H     H_    0.059486 0.141017 0.804726 0.260372
H75   H     H_    0.796255 0.358650 0.973166 0.135809
H76   H     H_    0.733451 0.368515 0.907800 0.147360
H77   H     H_    0.754880 0.229212 0.088058 0.220018
H78   H     H_    0.675499 0.237841 0.038241 0.250192
H79   H     H_    0.802052 0.205889 0.902426 0.276498
H80   H     H_    0.821539 0.117237 0.002628 0.261054
H81   H     H_    0.882417 0.199643 0.950409 0.263752
H82   H     H_    0.194879 0.673351 0.038723 0.126093
H83   H     H_    0.290694 0.705843 0.963983 0.163131
H84   H     H_    0.729663 0.512718 0.978409 0.205552
H85   H     H_    0.214846 0.662477 0.171601 0.210194
H86   H     H_    0.331388 0.657318 0.122291 0.237017
H87   H     H_    0.293539 0.816322 0.030500 0.292150
H88   H     H_    0.231618 0.808337 0.147038 0.268959
H89   H     H_    0.174443 0.824745 0.070305 0.254121
H90   H     H_    0.463818 0.793096 0.637261 0.126062
H91   H     H_    0.424968 0.808103 0.546482 0.158718
H92   H     H_    0.307920 0.788678 0.743524 0.211082
H93   H     H_    0.276315 0.794933 0.652105 0.236174
H94   H     H_    0.402134 0.650659 0.633668 0.271970
H95   H     H_    0.288622 0.527909 0.939421 0.210898
H96   H     H_    0.323304 0.635860 0.745181 0.267508
H97   H     H_    0.431833 0.644976 0.726756 0.254204
H98   H     H_    0.764980 0.827323 0.423977 0.128612
H99   H     H_    0.669004 0.827166 0.521823 0.120479
H100  H     H_    0.843679 0.866096 0.490312 0.241699
H101  H     H_    0.745325 0.879019 0.585532 0.228117
H102  H     H_    0.765405 0.707611 0.602191 0.276701
H103  H     H_    0.827416 0.734487 0.645973 0.260798
H104  H     H_    0.880643 0.707081 0.541867 0.264033
H105  H     H_    0.681085 0.382352 0.787395 0.170533
H106  H     H_    0.278831 0.993985 0.506824 0.235428
H107  H     H_    0.593900 0.483852 0.804321 0.105788
H108  H     H_    0.563556 0.316262 0.803659 0.223185
H109  H     H_    0.479392 0.423243 0.811468 0.226452
H110  H     H_    0.552840 0.503436 0.664832 0.281187
H111  H     H_    0.534560 0.409342 0.658693 0.263715
H112  H     H_    0.646541 0.401991 0.649625 0.277140
H113  H     H_    0.423461 0.752313 0.824939 0.140898
H114  H     H_    0.515036 0.650073 0.830325 0.113202
H115  H     H_    0.505238 0.827259 0.850543 0.226310
H116  H     H_    0.595297 0.723205 0.866395 0.231945
H117  H     H_    0.704380 0.065638 0.474461 0.229314
H118  H     H_    0.622007 0.723067 0.708203 0.275528
H119  H     H_    0.645385 0.813423 0.716406 0.283655
H120  H     H_    0.544027 0.834588 0.692087 0.251899
H121  H     H_    0.800371 0.684129 0.391455 0.163499
H122  H     H_    0.836315 0.626454 0.490067 0.120616
H123  H     H_    0.778323 0.548426 0.395453 0.222914
H124  H     H_    0.823547 0.481289 0.489014 0.217033
H125  H     H_    0.699881 0.550420 0.592368 0.267779
H126  H     H_    0.647703 0.547283 0.520499 0.281230
H127  H     H_    0.661892 0.651216 0.508456 0.266649
H128  H     H_    0.488911 0.276717 0.017202 0.214315
H129  H     H_    0.874792 0.390281 0.747962 0.139064
H130  H     H_    0.867540 0.474257 0.643224 0.116309
H131  H     H_    0.878888 0.494614 0.810230 0.234853
H132  H     H_    0.885399 0.579829 0.703674 0.239129
H133  H     H_    0.732590 0.579182 0.711926 0.264896
H134  H     H_    0.731519 0.618173 0.796665 0.283639
H135  H     H_    0.724119 0.507402 0.824603 0.253656
H136  H     H_    0.654802 0.223617 0.694381 0.103783
H137  H     H_    0.767016 0.188128 0.620267 0.140249
H138  H     H_    0.707714 0.213873 0.804923 0.209318
O1    O     O_R   0.982940 0.138950 0.510160 -0.657183
O2    O     O_R   0.982940 0.510160 0.138950 -0.633194
O3    O     O_R   0.861050 0.017060 0.489840 -0.650511
O4    O     O_R   0.138950 0.982940 0.510160 -0.648000
O5    O     O_R   0.867700 0.025880 0.612340 -0.601068
O6    O     O_R   0.132300 0.974120 0.387660 -0.578935
O7    O     O_R   0.025880 0.612340 0.867700 -0.582437
O8    O     O_R   0.974120 0.387660 0.132300 -0.592050
O9    O     O_R   0.612340 0.867700 0.025880 -0.597149
O10   O     O_R   0.387660 0.132300 0.974120 -0.596138
O11   O     O_R   0.387660 0.974120 0.132300 -0.578617
O12   O     O_R   0.017060 0.861050 0.489840 -0.661052
O13   O     O_R   0.612340 0.025880 0.867700 -0.578771
O14   O     O_R   0.132300 0.387660 0.974120 -0.584794
O15   O     O_R   0.867700 0.612340 0.025880 -0.586983
O16   O     O_R   0.974120 0.132300 0.387660 -0.603924
O17   O     O_R   0.025880 0.867700 0.612340 -0.579921
O18   O     O_3   0.402617 0.030139 0.662019 -0.640239
O19   O     O_3   0.570646 0.027655 0.318990 -0.650581
O20   O     O_3   0.056698 0.651958 0.387995 -0.650400
O21   O     O_3   0.082120 0.306825 0.543956 -0.634127
O22   O     O_3   0.659274 0.401740 0.031902 -0.642339
O23   O     O_R   0.138950 0.510160 0.982940 -0.644279
O24   O     O_3   0.312176 0.569075 0.040259 -0.648440
O25   O     O_3   0.364162 0.915141 0.603754 -0.657941
O26   O     O_3   0.692003 0.954484 0.439388 -0.662119
O27   O     O_3   0.594235 0.363722 0.915653 -0.656901
O28   O     O_3   0.437203 0.688761 0.951806 -0.666342
O29   O     O_3   0.926350 0.591265 0.370255 -0.649514
O30   O     O_3   0.993555 0.423012 0.673063 -0.662178
O31   O     O_3   0.720543 0.084767 0.725036 -0.627301
O32   O     O_3   0.248397 0.024576 0.247296 -0.585529
O33   O     O_3   0.971874 0.750075 0.750602 -0.582345
O34   O     O_R   0.861050 0.489840 0.017060 -0.655426
O35   O     O_3   0.905942 0.284620 0.282973 -0.622911
O36   O     O_3   0.714847 0.711932 0.102739 -0.628566
O37   O     O_3   0.287693 0.283532 0.898790 -0.623831
O38   O     O_R   0.510160 0.982940 0.138950 -0.650153
O39   O     O_R   0.489840 0.017060 0.861050 -0.655684
O40   O     O_R   0.489840 0.861050 0.017060 -0.645705
O41   O     O_R   0.510160 0.138950 0.982940 -0.638323
O42   O     O_R   0.017060 0.489840 0.861050 -0.655115
Zn1   Zn    Zn3+2 0.004880 0.004880 0.583590 0.941918
Zn2   Zn    Zn3+2 0.995120 0.995120 0.416410 0.939281
Zn3   Zn    Zn3+2 0.004880 0.583590 0.004880 0.962399
Zn4   Zn    Zn3+2 0.995120 0.416410 0.995120 0.951055
Zn5   Zn    Zn3+2 0.583590 0.004880 0.004880 0.942302
Zn6   Zn    Zn3+2 0.416410 0.995120 0.995120 0.934800

loop_
_geom_bond_atom_site_label_1
_geom_bond_atom_site_label_2
_ccdc_geom_bond_type
C5    H134  S    
C40   C47   A    
C55   C56   A    
C71   C110  S    
C40   O25   S    
C93   C94   S    
C65   C79   A    
O4    Zn1   S    
C54   H62   S    
C102  O24   S    
C36   C42   A    
C95   C96   S    
C86   H46   S    
C3    H130  S    
C89   H53   S    
C57   C66   A    
C4    H131  S    
C53   H51   S    
C80   O32   S    
C11   H12   S    
C19   H30   S    
C38   C77   S    
C101  H80   S    
C95   H67   S    
C7    C8    S    
O12   Zn2   S    
C84   O37   S    
O8    Zn4   S    
C85   C86   S    
C44   C64   A    
C12   O33   S    
C56   C69   A    
C9    H7    S    
C120  H126  S    
C31   O4    A    
C34   C40   A    
C68   C81   A    
O5    Zn1   S    
C19   O36   S    
C113  C114  S    
C18   H28   S    
C109  C111  S    
C114  H112  S    
C9    O32   S    
C83   O36   S    
C58   C71   A    
C32   C39   A    
C54   C68   A    
C63   C76   A    
C25   H44   S    
C2    O34   A    
C115  C116  S    
C87   H49   S    
C91   H58   S    
C91   H57   S    
C60   C73   A    
C46   O19   S    
C45   O27   S    
C108  C109  S    
C26   O40   A    
C118  H122  S    
C30   O5    A    
C85   H35   S    
C104  H87   S    
C96   H70   S    
C59   H106  S    
C88   O16   A    
C118  C119  S    
C92   C93   S    
C38   C45   A    
C69   C82   A    
C92   H60   S    
C88   O1    A    
C15   H21   S    
C108  H99   S    
C93   H61   S    
C97   H72   S    
C107  H96   S    
C14   H18   S    
C117  H120  S    
C61   C77   A    
C16   C17   S    
C12   H15   S    
C55   C63   A    
C98   H75   S    
C19   H31   S    
C21   H34   S    
C103  H86   S    
C34   C46   A    
C120  H127  S    
C57   C70   A    
C27   C74   S    
C28   C78   S    
C9    C10   S    
O23   Zn3   S    
C16   O35   S    
C38   C48   A    
C42   O29   S    
C108  O26   S    
C118  H121  S    
C42   C51   A    
C43   O28   S    
C108  H98   S    
C58   H95   S    
C23   C25   S    
C120  H125  S    
C33   C59   A    
C112  H107  S    
C107  H97   S    
C23   H40   S    
C29   O8    A    
O14   Zn4   S    
C94   H64   S    
C104  H89   S    
C53   C67   A    
C22   O37   S    
O16   Zn2   S    
C110  O23   A    
C112  C113  S    
C95   H68   S    
C33   C34   S    
C15   H19   S    
C22   C23   S    
C33   C53   A    
C3    O30   S    
C41   C50   A    
C9    H8    S    
C95   O21   S    
C20   H33   S    
C62   C66   A    
C24   O13   A    
C6    H136  S    
C29   O2    A    
C27   O41   A    
C16   H23   S    
C4    H132  S    
C116  H115  S    
C18   H27   S    
C11   H14   S    
C76   C82   A    
C114  H111  S    
C29   C76   S    
C30   C73   S    
C48   O24   S    
C47   O18   S    
O41   Zn5   S    
C113  H108  S    
C64   H24   S    
C49   O22   S    
C87   H50   S    
C50   O21   S    
O1    Zn1   S    
C1    C32   S    
C28   O7    A    
O11   Zn6   S    
C51   O20   S    
C31   O6    A    
C61   H128  S    
C111  H102  S    
C97   H74   S    
C37   C43   A    
O3    Zn2   S    
C16   H22   S    
C102  H83   S    
C10   H10   S    
C96   C97   S    
O9    Zn5   S    
C92   H59   S    
C13   O11   A    
O15   Zn3   S    
C37   C49   A    
C52   H1    S    
C87   H48   S    
C14   H17   S    
C45   C49   A    
C39   O26   S    
C43   C48   A    
C106  H92   S    
C37   C66   S    
C116  H116  S    
C115  H113  S    
C89   O19   S    
C17   C18   S    
C73   C79   A    
C98   H76   S    
C111  H103  S    
C70   C83   A    
C81   O33   S    
C35   C44   S    
C118  O29   S    
C15   H20   S    
C69   C88   S    
C24   C65   S    
C79   O31   S    
C39   C46   A    
C8    H6    S    
C31   C72   S    
C58   C77   A    
C96   H69   S    
C12   C14   S    
C117  H118  S    
O7    Zn3   S    
C98   C100  S    
C6    H137  S    
C35   C51   A    
C17   H25   S    
C32   C47   A    
C97   H71   S    
C62   C75   A    
C1    C60   A    
C112  O27   S    
C86   H47   S    
C19   C20   S    
C3    C4    S    
C41   O30   S    
C21   H37   S    
C63   H13   S    
O39   Zn6   S    
C62   H2    S    
C36   C50   A    
C109  H101  S    
C71   C84   A    
C13   C67   S    
C106  H93   S    
C90   H54   S    
O40   Zn6   S    
C13   O38   A    
C99   O17   A    
C112  H105  S    
C86   C87   S    
C64   C78   A    
C8    H4    S    
C67   C80   A    
C94   H66   S    
C89   H52   S    
C74   C84   A    
C4    C5    S    
C82   O35   S    
C11   H11   S    
C114  H110  S    
O10   Zn6   S    
C119  C120  S    
C101  H79   S    
C113  H109  S    
C6    C7    S    
C119  H124  S    
C61   C74   A    
C6    O31   S    
C22   H38   S    
C105  C106  S    
C59   C72   A    
C99   O12   A    
C105  H91   S    
C85   O18   S    
C5    H133  S    
C30   O3    A    
C85   H45   S    
C5    H135  S    
C18   H29   S    
C17   H26   S    
C102  H82   S    
C68   C99   S    
O42   Zn4   S    
C27   O10   A    
C72   C80   A    
C109  H100  S    
C101  H81   S    
C22   H39   S    
C100  H77   S    
C2    O15   A    
C110  O14   A    
C24   O39   A    
C93   H63   S    
C78   C81   A    
C75   C83   A    
C90   C91   S    
C26   O9    A    
C107  H94   S    
C25   H43   S    
C90   H55   S    
C57   H84   S    
C100  C101  S    
C105  O25   S    
C21   H36   S    
C116  C117  S    
O34   Zn4   S    
C111  H104  S    
C104  H88   S    
C92   O20   S    
C102  C103  S    
C35   C41   A    
C1    C52   A    
O6    Zn2   S    
C10   H9    S    
C25   H42   S    
C103  H85   S    
C10   C11   S    
C105  H90   S    
C56   H73   S    
C44   C54   A    
C8    H5    S    
C91   H56   S    
C20   H32   S    
C20   C21   S    
C117  H119  S    
C26   C75   S    
O17   Zn1   S    
C106  C107  S    
C12   H16   S    
C103  C104  S    
C36   C55   S    
C14   C15   S    
C7    H138  S    
C98   O22   S    
C60   H117  S    
C115  O28   S    
C89   C90   S    
C2    C70   S    
C119  H123  S    
C94   H65   S    
C28   O42   A    
C115  H114  S    
C52   C65   A    
O38   Zn5   S    
O13   Zn5   S    
C7    H3    S    
C3    H129  S    
C23   H41   S    
O2    Zn3   S    
C100  H78   S    
