data_mof_unit_16412.cif
_audit_creation_date              2012-12-11T14:36:04-0500
_audit_creation_method            fapswitch 2.2
_symmetry_space_group_name_H-M    P1
_symmetry_Int_Tables_number       1
_space_group_crystal_system       triclinic
_cell_length_a                    13.475088
_cell_length_b                    13.474114
_cell_length_c                    27.537928
_cell_angle_alpha                 90.603721
_cell_angle_beta                  90.18887
_cell_angle_gamma                 60.06511
_cell_volume                      4332.64454216

loop_
_atom_site_label
_atom_site_type_symbol
_atom_type_description
_atom_site_fract_x
_atom_site_fract_y
_atom_site_fract_z
_atom_type_partial_charge
Br1   Br    Br    0.782439 0.926990 0.810282 -0.565173
Br2   Br    Br    0.181350 0.950356 0.395991 -0.483885
Br3   Br    Br    0.960987 0.845995 0.306841 -0.519830
C1    C     C_R   0.620423 0.101334 0.570173 0.545782
C2    C     C_1   0.649372 0.702753 0.658166 -0.049846
C3    C     C_3   0.074250 0.158957 0.737115 -0.103184
C4    C     C_R   0.599753 0.779318 0.568751 0.549311
C5    C     C_3   0.155872 0.070514 0.774642 -0.098239
C6    C     C_1   0.095588 0.202050 0.901561 -0.003901
C7    C     C_1   0.229908 0.137709 0.617696 -0.002948
C8    C     C_3   0.063321 0.257779 0.770137 -0.109540
C9    C     C_3   0.145403 0.169192 0.806831 0.045290
C10   C     C_3   0.167419 0.253423 0.744432 -0.078130
C11   C     C_3   0.178026 0.154838 0.712149 0.043794
C12   C     C_1   0.631409 0.730983 0.616248 -0.005047
C13   C     C_3   0.249060 0.165066 0.781803 -0.082154
C14   C     C_3   0.260107 0.066176 0.748815 -0.108835
C15   C     C_1   0.122789 0.182883 0.859313 -0.044223
C16   C     C_R   0.277998 0.121663 0.569808 0.550301
C17   C     C_1   0.201562 0.146761 0.659778 -0.046814
C18   C     C_3   0.608457 0.283729 0.739590 -0.121639
C19   C     C_3   0.553696 0.242428 0.777818 0.071245
C20   C     C_1   0.692206 0.209584 0.902598 0.038249
C21   C     C_1   0.636609 0.133637 0.618077 -0.000514
C22   C     C_3   0.720612 0.230159 0.769916 -0.165474
C23   C     C_3   0.669999 0.570174 0.768510 -0.109271
C24   C     C_3   0.664224 0.189846 0.807712 0.044504
C25   C     C_3   0.765540 0.114962 0.741945 -0.082943
C26   C     C_3   0.653480 0.168491 0.712574 0.009226
C27   C     C_3   0.708714 0.076003 0.780122 0.170885
C28   C     C_R   0.622350 0.100014 0.431353 0.544777
C29   C     C_3   0.596972 0.127780 0.750121 -0.096847
C30   C     C_1   0.675821 0.199857 0.860233 0.043671
C31   C     C_1   0.645954 0.152817 0.660198 -0.035232
C32   C     C_R   0.741175 0.686358 0.360516 0.041367
C33   C     C_R   0.753601 0.673180 0.309366 -0.005007
C34   C     C_3   0.679035 0.652445 0.805083 0.054161
C35   C     C_R   0.772554 0.649227 0.207498 0.009003
C36   C     C_R   0.869325 0.621330 0.235726 -0.121568
C37   C     C_R   0.860338 0.632279 0.286098 -0.082408
C38   C     C_R   0.783288 0.626469 0.157829 -0.130946
C39   C     C_R   0.688514 0.640216 0.130959 -0.003104
C40   C     C_R   0.601417 0.776463 0.430098 0.569886
C41   C     C_R   0.538823 0.744074 0.351789 -0.145390
C42   C     C_R   0.548918 0.735521 0.302044 0.001479
C43   C     C_R   0.655767 0.701107 0.280437 0.041352
C44   C     C_R   0.451957 0.763892 0.273695 -0.118960
C45   C     C_3   0.572538 0.674598 0.742272 -0.105255
C46   C     C_R   0.460891 0.755399 0.223521 -0.127343
C47   C     C_R   0.567341 0.716443 0.201416 0.016554
C48   C     C_R   0.664959 0.690814 0.229746 0.067773
C49   C     C_R   0.579557 0.693163 0.151910 -0.131075
C50   C     C_R   0.631362 0.726777 0.381091 -0.014285
C51   C     C_R   0.191257 0.067807 0.360016 0.131285
C52   C     C_R   0.277014 0.121089 0.431047 0.569807
C53   C     C_R   0.169088 0.079045 0.309577 0.023983
C54   C     C_R   0.134155 0.099774 0.208336 0.009802
C55   C     C_R   0.129569 0.012257 0.233300 -0.142657
C56   C     C_3   0.662790 0.680532 0.710410 0.039173
C57   C     C_R   0.146920 0.001831 0.283347 -0.104525
C58   C     C_R   0.110391 0.114770 0.158796 -0.132150
C59   C     C_R   0.106860 0.208045 0.134880 -0.003505
C60   C     C_R   0.209548 0.239180 0.358555 -0.146651
C61   C     C_R   0.190363 0.249586 0.309182 0.001948
C62   C     C_R   0.172352 0.168386 0.284218 0.037366
C63   C     C_R   0.194112 0.337787 0.284226 -0.122040
C64   C     C_3   0.760107 0.576476 0.735850 -0.114035
C65   C     C_R   0.180159 0.345820 0.234221 -0.131965
C66   C     C_R   0.160527 0.266820 0.208877 0.015372
C67   C     C_3   0.581726 0.756409 0.779572 -0.094390
C68   C     C_R   0.156567 0.177677 0.233763 0.068248
C69   C     C_R   0.138280 0.279671 0.159419 -0.132871
C70   C     C_R   0.218875 0.144735 0.383720 0.013369
C71   C     C_R   0.560237 0.236151 0.362260 -0.129497
C72   C     C_R   0.568022 0.253547 0.312801 0.016360
C73   C     C_R   0.579896 0.282303 0.212363 0.021653
C74   C     C_R   0.490949 0.368164 0.240215 -0.124545
C75   C     C_R   0.484090 0.353111 0.290003 -0.122342
C76   C     C_3   0.769356 0.658335 0.773242 -0.072182
C77   C     C_R   0.591358 0.298048 0.162853 -0.132916
C78   C     C_3   0.671720 0.762782 0.746939 -0.074351
C79   C     C_R   0.682335 0.211122 0.136102 -0.000758
C80   C     C_R   0.739622 0.055472 0.357519 -0.088474
C81   C     C_R   0.746533 0.068208 0.307812 0.022521
C82   C     C_R   0.659168 0.167552 0.285241 0.033947
C83   C     C_R   0.835857 0.981887 0.279699 0.159818
C84   C     C_R   0.835443 0.993373 0.229636 -0.105876
C85   C     C_R   0.750078 0.091897 0.207318 -0.020669
C86   C     C_R   0.662624 0.180464 0.234955 0.055267
C87   C     C_R   0.755408 0.105522 0.157899 -0.124228
C88   C     C_1   0.697139 0.607068 0.899829 0.001101
C89   C     C_1   0.688071 0.632302 0.857534 -0.032682
C90   C     C_R   0.643793 0.135071 0.384215 -0.016359
C91   C     C_R   0.048854 0.236441 0.949623 0.546279
C92   C     C_R   0.711575 0.562777 0.948059 0.545540
C93   C     C_R   0.722239 0.225749 0.950815 0.544875
C94   C     C_R   0.048571 0.244721 0.088274 0.548100
C95   C     C_R   0.708022 0.575939 0.085867 0.548147
C96   C     C_R   0.718775 0.233802 0.089473 0.548771
C97   C     C_2   0.434132 0.314019 0.796714 0.558328
C98   C     C_2   0.840227 0.657762 0.392811 0.578798
Cr1   Cr    Cr6+3 0.417550 0.169090 0.500530 1.038792
Cr2   Cr    Cr6+3 0.669180 0.913420 0.499920 1.085234
Cr3   Cr    Cr6+3 0.413260 0.917540 0.499520 1.088433
Cr4   Cr    Cr6+3 0.909170 0.177380 0.020380 1.032484
Cr5   Cr    Cr6+3 0.912710 0.429210 0.018220 1.032667
Cr6   Cr    Cr6+3 0.657170 0.432570 0.019030 1.036630
H1    H     H_    0.850130 0.651989 0.786585 0.155708
H2    H     H_    0.833033 0.502533 0.717381 0.110827
H3    H     H_    0.952820 0.587643 0.218942 0.114668
H4    H     H_    0.938261 0.606158 0.306287 0.179955
H5    H     H_    0.506238 0.705567 0.130745 0.126326
H6    H     H_    0.385579 0.775286 0.202177 0.110257
H7    H     H_    0.369426 0.791536 0.290410 0.134136
H8    H     H_    0.454588 0.773854 0.367281 0.178400
H9    H     H_    0.086685 0.058772 0.139803 0.126354
H10   H     H_    0.111639 0.952246 0.214168 0.118715
H11   H     H_    0.671772 0.842317 0.736911 0.149787
H12   H     H_    0.321102 0.166811 0.800658 0.145561
H13   H     H_    0.143520 0.932247 0.300863 0.199439
H14   H     H_    0.136516 0.351271 0.140979 0.127854
H15   H     H_    0.182768 0.414854 0.215508 0.105882
H16   H     H_    0.208905 0.399949 0.303349 0.120827
H17   H     H_    0.226332 0.301267 0.376568 0.148328
H18   H     H_    0.534017 0.379366 0.146044 0.123691
H19   H     H_    0.486532 0.298247 0.382958 0.130990
H20   H     H_    0.426688 0.446669 0.223500 0.111111
H21   H     H_    0.413609 0.419590 0.310741 0.119071
H22   H     H_    0.824373 0.036660 0.137338 0.133499
H23   H     H_    0.171387 0.329053 0.731424 0.161596
H24   H     H_    0.508804 0.830425 0.798010 0.116042
H25   H     H_    0.903998 0.926340 0.208248 0.129826
H26   H     H_    0.804252 0.978636 0.374952 0.216712
H27   H     H_    0.491770 0.680865 0.728954 0.120233
H28   H     H_    0.668830 0.490931 0.778041 0.108477
H29   H     H_    0.151439 0.995115 0.787636 0.126060
H30   H     H_    0.002270 0.156827 0.718362 0.109871
H31   H     H_    0.341364 0.987072 0.739426 0.106594
H32   H     H_    0.330248 0.383366 0.854703 0.342914
H33   H     H_    0.929098 0.574188 0.452318 0.341327
H34   H     H_    0.982066 0.336934 0.779491 0.106401
H35   H     H_    0.567100 0.369482 0.722555 0.129936
H36   H     H_    0.546094 0.085472 0.741799 0.114263
H37   H     H_    0.853113 0.062076 0.726783 0.133155
H38   H     H_    0.772014 0.271749 0.778464 0.108491
H39   H     H_    0.867734 0.586647 0.141397 0.131323
O1    O     O_R   0.301710 0.195650 0.554160 -0.501242
O2    O     O_R   0.635520 0.542770 0.964420 -0.504411
O3    O     O_R   0.665950 0.325030 0.970100 -0.492217
O4    O     O_R   0.522390 0.158990 0.550460 -0.493866
O5    O     O_R   0.816620 0.158530 0.074540 -0.522613
O6    O     O_R   0.004460 0.188870 0.069750 -0.502946
O7    O     O_R   0.025800 0.341780 0.072300 -0.521172
O8    O     O_R   0.807650 0.528950 0.067500 -0.504224
O9    O     O_R   0.633420 0.550490 0.071810 -0.517648
O10   O     O_R   0.664000 0.332180 0.069640 -0.498018
O11   O     O_3   0.826350 0.346390 0.019210 -0.250716
O12   O     O_R   0.658900 0.818120 0.449760 -0.470205
O13   O     O_R   0.694390 0.003530 0.554040 -0.499466
O14   O     O_R   0.657700 0.819660 0.549320 -0.490603
O15   O     O_R   0.501930 0.803280 0.552920 -0.501774
O16   O     O_R   0.318170 0.023580 0.549580 -0.488457
O17   O     O_R   0.303010 0.193990 0.446760 -0.529801
O18   O     O_R   0.523600 0.157450 0.450900 -0.504863
O19   O     O_R   0.695690 0.001860 0.446640 -0.496760
O20   O     O_2   0.354028 0.354298 0.768254 -0.542130
O21   O     O_R   0.414598 0.334378 0.846555 -0.699096
O22   O     O_2   0.901223 0.699523 0.385858 -0.478793
O23   O     O_R   0.503220 0.801620 0.445520 -0.505529
O24   O     O_R   0.860511 0.586241 0.432481 -0.692045
O25   O     O_R   0.319370 0.022040 0.450020 -0.449967
O26   O     O_3   0.499990 0.000010 0.499990 -0.271644
O27   O     O_R   0.818720 0.150820 0.967160 -0.499334
O28   O     O_R   0.006410 0.181720 0.970200 -0.494330
O29   O     O_R   0.027890 0.334070 0.964920 -0.502549
O30   O     O_R   0.809600 0.521790 0.967960 -0.492215

loop_
_geom_bond_atom_site_label_1
_geom_bond_atom_site_label_2
_ccdc_geom_bond_type
C44   H7    S    
C63   C65   A    
C84   C85   A    
C95   O8    A    
C69   H14   S    
C5    H29   S    
C79   C96   S    
C46   H6    S    
C32   C33   A    
C71   C90   A    
C74   C75   A    
C40   O12   A    
C75   H21   S    
C56   C78   S    
C60   H17   S    
C40   O23   A    
C44   C46   A    
C23   C34   S    
C42   C43   A    
C24   C30   S    
C22   C25   S    
C4    O15   A    
C19   C29   S    
C97   O21   S    
C23   C64   S    
C45   H27   S    
C25   C26   S    
C81   C83   A    
C18   H35   S    
C26   C29   S    
C39   C95   S    
Cr3   O16   S    
C35   C36   A    
C1    C21   S    
Cr2   O14   S    
C1    O13   A    
C32   C50   A    
C77   H18   S    
C49   H5    S    
C55   C57   A    
C53   C62   A    
C80   C90   A    
C20   C93   S    
C54   C68   A    
C97   O20   D    
C38   C39   A    
C54   C58   A    
C66   C68   A    
C67   C78   S    
Br1   C27   S    
C29   H36   S    
C23   H28   S    
C10   C11   S    
C56   C64   S    
C28   O18   A    
C87   H22   S    
C41   C50   A    
C72   C82   A    
C36   H3    S    
Cr4   O11   S    
C38   H39   S    
C9    C13   S    
C41   H8    S    
C7    C17   T    
Cr1   O17   S    
C20   C30   T    
C47   C49   A    
C10   H23   S    
C33   C43   A    
C14   H31   S    
C25   H37   S    
C94   O7    A    
C5    C9    S    
C52   C70   S    
Cr6   O10   S    
C74   H20   S    
C23   C45   S    
C91   O29   A    
Cr3   O26   S    
C4    C12   S    
Cr4   O27   S    
C34   C67   S    
Br3   C83   S    
C11   C14   S    
C52   O25   A    
Cr6   O11   S    
C64   H2    S    
C37   H4    S    
C42   C44   A    
Cr1   O26   S    
Cr4   O5    S    
C51   C53   A    
C19   C97   S    
C71   C72   A    
C2    C56   S    
C36   C37   A    
C11   C17   S    
C33   C37   A    
C64   C76   S    
C73   C74   A    
C35   C38   A    
C77   C79   A    
Br2   C51   S    
C13   H12   S    
C65   H15   S    
C88   C89   T    
C76   C78   S    
C82   C86   A    
C83   C84   A    
C13   C14   S    
C3    C5    S    
C4    O14   A    
C60   C70   A    
Cr5   O8    S    
C28   C90   S    
C40   C50   S    
C43   C48   A    
C55   H10   S    
C16   O1    A    
C53   C57   A    
C16   O16   A    
C61   C63   A    
C84   H25   S    
C98   O22   D    
C92   O30   A    
C26   C31   S    
Cr1   O1    S    
C3    C11   S    
C59   C94   S    
C34   C76   S    
C51   C70   A    
C80   C81   A    
C7    C16   S    
Cr5   O29   S    
Cr5   O7    S    
C96   O10   A    
C58   H9    S    
C47   C48   A    
C59   C69   A    
C98   O24   S    
Cr1   O4    S    
C81   C82   A    
H32   O21   S    
C8    H34   S    
C91   O28   A    
Cr3   O25   S    
C2    C12   T    
C85   C87   A    
Cr2   O19   S    
Cr4   O28   S    
C3    C8    S    
Cr2   O26   S    
Cr3   O15   S    
C66   C69   A    
C41   C42   A    
C45   C56   S    
Cr4   O6    S    
C18   C22   S    
C95   O9    A    
H33   O24   S    
C34   C89   S    
C65   C66   A    
C96   O5    A    
C92   O2    A    
C73   C77   A    
C45   C67   S    
C32   C98   S    
C8    C9    S    
Cr2   O12   S    
C28   O19   A    
C35   C48   A    
C22   C24   S    
Cr5   O11   S    
C1    O4    A    
C73   C86   A    
C5    C14   S    
C79   C87   A    
C19   C24   S    
C61   C62   A    
C3    H30   S    
C25   C27   S    
C52   O17   A    
C62   C68   A    
C27   C29   S    
Cr6   O2    S    
C8    C10   S    
Cr2   O13   S    
C54   C55   A    
C71   H19   S    
C18   C26   S    
C93   O3    A    
C78   H11   S    
C67   H24   S    
C94   O6    A    
C76   H1    S    
C57   H13   S    
C58   C59   A    
C72   C75   A    
C21   C31   T    
C80   H26   S    
C88   C92   S    
C60   C61   A    
Cr6   O3    S    
C6    C15   T    
C85   C86   A    
Cr1   O18   S    
C46   C47   A    
C10   C13   S    
C9    C15   S    
Cr5   O30   S    
C63   H16   S    
C22   H38   S    
C93   O27   A    
C18   C19   S    
C6    C91   S    
Cr6   O9    S    
C39   C49   A    
Cr3   O23   S    
C24   C27   S    
