data_mof_unit_12494.cif
_audit_creation_date              2012-12-10T18:54:27-0500
_audit_creation_method            fapswitch 2.2
_symmetry_space_group_name_H-M    P1
_symmetry_Int_Tables_number       1
_space_group_crystal_system       triclinic
_cell_length_a                    19.410622
_cell_length_b                    18.171239
_cell_length_c                    9.078057
_cell_angle_alpha                 89.831859
_cell_angle_beta                  90.212066
_cell_angle_gamma                 89.993182
_cell_volume                      3201.93159553

loop_
_atom_site_label
_atom_site_type_symbol
_atom_type_description
_atom_site_fract_x
_atom_site_fract_y
_atom_site_fract_z
_atom_type_partial_charge
C1    C     C_R   0.367642 0.500002 0.499872 0.781891
C2    C     C_R   0.632434 0.499997 0.500143 0.782148
C3    C     C_R   0.455895 0.721111 0.409869 0.088932
C4    C     C_R   0.544116 0.278889 0.590106 0.087720
C5    C     C_R   0.544126 0.720838 0.590086 0.089967
C6    C     C_R   0.455869 0.279162 0.409925 0.091480
C7    C     C_R   0.455080 0.798411 0.408090 -0.288016
C8    C     C_R   0.544930 0.201589 0.591886 -0.287673
C9    C     C_R   0.544940 0.798132 0.591859 -0.287100
C10   C     C_R   0.455055 0.201868 0.408152 -0.287433
C11   C     C_R   0.500007 0.838441 0.499981 0.110734
C12   C     C_R   0.499994 0.161560 0.500015 0.110587
C13   C     C_R   0.511129 0.961132 0.630883 -0.182195
C14   C     C_R   0.488870 0.038870 0.369114 -0.182230
C15   C     C_R   0.488874 0.961524 0.369104 -0.181692
C16   C     C_R   0.511126 0.038478 0.630892 -0.181657
C17   C     C_R   0.499997 0.078712 0.500008 0.120593
C18   C     C_R   0.500004 0.921289 0.499989 0.120592
C19   C     C_R   0.499963 0.500065 0.220444 0.852642
C20   C     C_R   0.500036 0.499935 0.779556 0.852526
C21   C     C_1   0.499985 0.500090 0.065494 -0.194416
C22   C     C_1   0.500013 0.499910 0.934506 -0.194425
C23   C     C_R   0.744211 0.437580 0.453037 -0.193252
C24   C     C_R   0.255953 0.441431 0.435786 -0.187849
C25   C     C_R   0.256142 0.558519 0.563988 -0.190766
C26   C     C_R   0.744338 0.562424 0.547498 -0.189827
C27   C     C_R   0.815928 0.437887 0.451774 -0.155299
C28   C     C_R   0.184222 0.441886 0.434313 -0.152814
C29   C     C_R   0.184423 0.557968 0.565737 -0.153896
C30   C     C_R   0.816063 0.562154 0.548697 -0.154641
C31   C     C_R   0.852048 0.500031 0.500205 0.139941
C32   C     C_R   0.148358 0.499892 0.500137 0.149081
C33   C     C_R   0.707933 0.499997 0.500243 -0.026224
C34   C     C_R   0.292289 0.499993 0.499852 -0.021951
C35   C     C_R   0.963935 0.547862 0.404747 -0.050391
C36   C     C_R   0.036718 0.451671 0.594647 -0.052019
C37   C     C_R   0.036415 0.548201 0.405757 -0.052335
C38   C     C_R   0.964236 0.452122 0.595750 -0.050686
C39   C     C_R   0.072578 0.499897 0.500149 -0.047058
C40   C     C_R   0.927965 0.500021 0.500265 -0.045731
Cu1   Cu    Cu3+1 0.500000 0.573360 0.500000 0.937639
Cu2   Cu    Cu3+1 0.500000 0.426640 0.500000 0.937787
H1    H     H_    0.420973 0.691026 0.339090 0.121651
H2    H     H_    0.579048 0.308976 0.660863 0.121138
H3    H     H_    0.579071 0.690540 0.660826 0.114369
H4    H     H_    0.420920 0.309461 0.339193 0.114387
N1    N     N_R   0.500000 0.683620 0.500000 -0.170998
N2    N     N_R   0.500000 0.316380 0.500000 -0.170959
O1    O     O_R   0.400190 0.561980 0.499980 -0.589810
O2    O     O_R   0.599810 0.438020 0.500020 -0.590749
O3    O     O_R   0.599810 0.561980 0.500020 -0.588337
O4    O     O_R   0.400190 0.438020 0.499980 -0.587160
O5    O     O_R   0.500000 0.561940 0.288400 -0.579993
O6    O     O_R   0.500000 0.438060 0.711600 -0.579867
O7    O     O_R   0.500000 0.561940 0.711600 -0.583959
O8    O     O_R   0.500000 0.438060 0.288400 -0.583987
H5    H     H_    0.717167 0.388983 0.415324 0.147010
H6    H     H_    0.283014 0.396053 0.384858 0.135063
H7    H     H_    0.283351 0.603938 0.614796 0.143832
H8    H     H_    0.717390 0.610999 0.585271 0.139631
H9    H     H_    0.843371 0.389811 0.413091 0.124153
H10   H     H_    0.156599 0.397137 0.382181 0.116087
H11   H     H_    0.156958 0.602713 0.617860 0.117206
H12   H     H_    0.843615 0.610230 0.587422 0.123299
C41   C     C_R   0.925649 0.595427 0.299494 0.137939
C42   C     C_R   0.920732 0.671507 0.323538 -0.146096
C43   C     C_R   0.883689 0.715859 0.225194 -0.131380
C44   C     C_R   0.851115 0.684478 0.102987 -0.105839
C45   C     C_R   0.855610 0.608705 0.078842 -0.143328
C46   C     C_R   0.892952 0.564248 0.176516 -0.134608
H13   H     H_    0.945039 0.696204 0.418876 0.110999
H14   H     H_    0.879957 0.774499 0.244090 0.120963
H15   H     H_    0.822235 0.718837 0.027244 0.116563
H16   H     H_    0.829970 0.584503 0.984688 0.120969
H17   H     H_    0.896344 0.505636 0.157096 0.116775
C47   C     C_R   0.075242 0.403760 0.698471 0.144385
C48   C     C_R   0.093415 0.430226 0.838130 -0.135051
C49   C     C_R   0.130568 0.385648 0.935957 -0.139993
C50   C     C_R   0.149492 0.314422 0.894686 -0.105349
C51   C     C_R   0.131327 0.287718 0.755571 -0.128459
C52   C     C_R   0.094296 0.332232 0.657482 -0.151488
H18   H     H_    0.078757 0.485283 0.870279 0.111931
H19   H     H_    0.144812 0.406210 0.043598 0.120808
H20   H     H_    0.178248 0.279954 0.970445 0.115729
H21   H     H_    0.146035 0.232585 0.723684 0.120733
H22   H     H_    0.080618 0.311198 0.549789 0.106295
C53   C     C_R   0.074619 0.596186 0.302150 0.144402
C54   C     C_R   0.093105 0.569534 0.163107 -0.135696
C55   C     C_R   0.130073 0.614156 0.065642 -0.139624
C56   C     C_R   0.148511 0.685601 0.106671 -0.108332
C57   C     C_R   0.130054 0.712478 0.245189 -0.131660
C58   C     C_R   0.093212 0.667922 0.342920 -0.150577
H23   H     H_    0.078861 0.514290 0.131181 0.111895
H24   H     H_    0.144565 0.593453 0.958484 0.121589
H25   H     H_    0.177132 0.720097 0.031200 0.116574
H26   H     H_    0.144410 0.767771 0.276910 0.120045
H27   H     H_    0.079362 0.689068 0.450213 0.106508
C59   C     C_R   0.926268 0.404442 0.700734 0.137750
C60   C     C_R   0.921726 0.328313 0.676883 -0.145305
C61   C     C_R   0.884890 0.283846 0.774771 -0.133570
C62   C     C_R   0.852137 0.315157 0.896318 -0.109063
C63   C     C_R   0.856256 0.390972 0.920276 -0.144075
C64   C     C_R   0.893406 0.435548 0.823086 -0.135376
H28   H     H_    0.946141 0.303664 0.582000 0.111295
H29   H     H_    0.881443 0.225172 0.756006 0.120701
H30   H     H_    0.823402 0.280710 0.971683 0.117514
H31   H     H_    0.830461 0.415114 0.013893 0.121890
H32   H     H_    0.896489 0.494196 0.842361 0.116779
H33   H     H_    0.418760 0.826484 0.336735 0.126704
H34   H     H_    0.581256 0.173516 0.663226 0.127048
H35   H     H_    0.581267 0.825989 0.663196 0.125800
H36   H     H_    0.418724 0.174011 0.336825 0.125649
H37   H     H_    0.518690 0.932532 0.734449 0.125938
H38   H     H_    0.481309 0.067470 0.265548 0.125932
H39   H     H_    0.481316 0.933234 0.265532 0.126031
H40   H     H_    0.518685 0.066768 0.734464 0.126046

loop_
_geom_bond_atom_site_label_1
_geom_bond_atom_site_label_2
_ccdc_geom_bond_type
C19   O8    A    
C9    H35   S    
C15   C18   A    
C53   C54   A    
C29   H11   S    
C11   C18   S    
C62   C63   A    
C30   H12   S    
Cu1   Cu2   S    
C38   C59   S    
C56   H25   S    
C48   C49   A    
C7    C11   A    
C5    N1    A    
C3    H1    S    
C61   H29   S    
C6    N2    A    
C13   C18   A    
C35   C37   A    
C29   C32   A    
C3    C7    A    
C30   C31   A    
C35   C41   S    
C41   C46   A    
C31   C40   S    
C43   H14   S    
C32   C39   S    
C55   H24   S    
Cu1   O7    S    
C36   C47   S    
Cu2   O8    S    
C57   H26   S    
C49   H19   S    
C42   H13   S    
C16   C17   A    
C23   C33   A    
C12   C17   S    
C58   H27   S    
C10   H36   S    
C64   H32   S    
C23   C27   A    
C2    O2    A    
C52   H22   S    
C4    C8    A    
C25   C34   A    
C19   O5    A    
C42   C43   A    
C21   C22   T    
C14   C17   A    
C45   C46   A    
C20   O7    A    
C16   H40   S    
Cu1   O1    S    
C1    C34   S    
C25   C29   A    
C27   C31   A    
C43   C44   A    
C28   C32   A    
C47   C48   A    
C20   O6    A    
C57   C58   A    
C49   C50   A    
C44   C45   A    
C4    H2    S    
C44   H15   S    
C14   H38   S    
C5    H3    S    
C24   C34   A    
C7    H33   S    
C27   H9    S    
C5    C9    A    
C51   H21   S    
C8    H34   S    
C26   C33   A    
C60   C61   A    
C8    C12   A    
Cu1   N1    S    
C63   H31   S    
Cu2   N2    S    
C9    C11   A    
Cu1   O5    S    
C10   C12   A    
Cu2   O2    S    
C2    C33   S    
C20   C22   S    
C26   C30   A    
C15   H39   S    
C4    N2    A    
C62   H30   S    
C23   H5    S    
C54   H23   S    
C6    H4    S    
C19   C21   S    
C14   C15   A    
C37   C53   S    
C36   C39   A    
C24   C28   A    
C51   C52   A    
C47   C52   A    
C6    C10   A    
C36   C38   A    
C35   C40   A    
C37   C39   A    
Cu2   O6    S    
C38   C40   A    
C56   C57   A    
C50   H20   S    
C26   H8    S    
C48   H18   S    
C3    N1    A    
C61   C62   A    
C60   H28   S    
C41   C42   A    
C63   C64   A    
C1    O4    A    
C2    O3    A    
C50   C51   A    
C54   C55   A    
C24   H6    S    
C59   C60   A    
C13   C16   A    
C46   H17   S    
C45   H16   S    
C25   H7    S    
C55   C56   A    
C53   C58   A    
C1    O1    A    
Cu1   O3    S    
C13   H37   S    
C59   C64   A    
Cu2   O4    S    
C28   H10   S    
