data_mof_unit_54321.cif
_audit_creation_date              2012-10-26T21:13:37-0400
_audit_creation_method            fapswitch 2.2
_symmetry_space_group_name_H-M    P1
_symmetry_Int_Tables_number       1
_space_group_crystal_system       triclinic
_cell_length_a                    9.057252
_cell_length_b                    10.879871
_cell_length_c                    9.583483
_cell_angle_alpha                 90.909612
_cell_angle_beta                  89.565024
_cell_angle_gamma                 90.458533
_cell_volume                      944.197466693

loop_
_atom_site_label
_atom_site_type_symbol
_atom_type_description
_atom_site_fract_x
_atom_site_fract_y
_atom_site_fract_z
_atom_type_partial_charge
C1    C     C_R   0.506951 0.262496 0.498660 0.580894
C2    C     C_R   0.595643 0.574003 0.926325 0.100669
C3    C     C_3   0.759608 0.575709 0.912646 -0.170569
C4    C     C_R   0.220820 0.499887 0.500314 0.560714
C5    C     C_3   0.765016 0.571320 0.070671 0.157764
C6    C     C_R   0.503108 0.737257 0.500859 0.542759
C7    C     C_R   0.779160 0.500107 0.499758 0.555529
C8    C     C_1   0.065588 0.499983 0.500564 -0.040917
C9    C     C_1   0.934361 0.500074 0.499808 -0.050431
C10   C     C_R   0.461822 0.066034 0.614159 -0.065121
C11   C     C_R   0.510998 0.128537 0.495625 -0.008641
C12   C     C_R   0.548790 0.931053 0.378979 -0.140976
C13   C     C_R   0.559316 0.059018 0.376853 0.203351
C14   C     C_R   0.506863 0.870193 0.500721 -0.024954
C15   C     C_R   0.465054 0.938848 0.618057 0.071555
C16   C     C_3   0.528406 0.941301 0.762570 0.196287
C17   C     C_3   0.516918 0.080364 0.760662 -0.169245
C18   C     C_R   0.597490 0.572539 0.073264 0.151612
C19   C     C_R   0.394365 0.439024 0.074690 0.049470
C20   C     C_R   0.394504 0.437736 0.925906 0.217663
Cu1   Cu    Cu3+1 0.499990 0.499980 0.640670 0.998878
Cu2   Cu    Cu3+1 0.500010 0.500020 0.359330 1.005469
H1    H     H_    0.803688 0.662286 0.868694 0.113673
H2    H     H_    0.781457 0.760267 0.095693 0.236418
H3    H     H_    0.811498 0.681627 0.240979 0.252688
H4    H     H_    0.324925 0.911904 0.856434 0.230062
H5    H     H_    0.469151 0.908240 0.965571 0.234773
H6    H     H_    0.721374 0.916028 0.868336 0.259396
H7    H     H_    0.683947 0.805940 0.748991 0.253783
H8    H     H_    0.282970 0.279305 0.890945 0.199362
H9    H     H_    0.181047 0.407122 0.879975 0.223255
H10   H     H_    0.583569 0.878166 0.288025 0.164444
H11   H     H_    0.431030 0.117550 0.832269 0.120343
H12   H     H_    0.625014 0.129452 0.766617 0.180889
H13   H     H_    0.311300 0.387004 0.130668 0.133340
H14   H     H_    0.803192 0.491258 0.860716 0.174439
H15   H     H_    0.465253 0.135943 0.105683 0.317099
H16   H     H_    0.903959 0.472550 0.199419 0.271858
H17   H     H_    0.755623 0.391333 0.139423 0.321488
N1    N     N_R   0.500920 0.500930 0.147930 -0.245584
N2    N     N_R   0.500930 0.500890 0.852020 -0.204954
N3    N     N_3   0.835327 0.456971 0.113777 -0.572582
N4    N     N_3   0.832772 0.681823 0.133702 -0.593407
N5    N     N_3   0.433479 0.881089 0.866128 -0.598760
N6    N     N_3   0.681859 0.900501 0.767289 -0.600226
N7    N     N_3   0.283239 0.368890 0.853498 -0.551804
O1    O     O_R   0.500000 0.319640 0.618810 -0.491353
O2    O     O_2   0.736821 0.025642 0.151370 -0.318624
O3    O     O_3   0.542745 0.197324 0.129564 -0.528960
O4    O     O_R   0.500020 0.319680 0.381230 -0.431222
O5    O     O_R   0.288380 0.499980 0.618770 -0.461682
O6    O     O_R   0.288400 0.500020 0.381190 -0.510163
O7    O     O_R   0.499980 0.680320 0.618770 -0.486007
O8    O     O_R   0.500000 0.680360 0.381190 -0.520099
O9    O     O_R   0.711600 0.499980 0.618810 -0.522614
O10   O     O_R   0.711620 0.500020 0.381230 -0.501695
O11   O     O_2   0.771461 0.212301 0.292230 -0.265474
S1    S     S_3+6 0.658378 0.123556 0.235169 -0.003856

loop_
_geom_bond_atom_site_label_1
_geom_bond_atom_site_label_2
_ccdc_geom_bond_type
C16   N6    S    
C8    C9    T    
C5    N3    S    
O2    S1    D    
C13   S1    S    
C2    C18   A    
H15   O3    S    
C1    O4    A    
C16   N5    S    
C3    H1    S    
C19   C20   A    
C1    C11   S    
C7    O9    A    
C4    C8    S    
Cu2   N1    S    
H3    N4    S    
C19   N1    A    
C2    C3    S    
C5    N4    S    
H4    N5    S    
Cu2   O8    S    
C19   H13   S    
Cu1   Cu2   S    
C12   H10   S    
Cu1   O7    S    
C11   C13   A    
O11   S1    D    
C17   H11   S    
C7    O10   A    
C4    O6    A    
Cu1   N2    S    
C4    O5    A    
C3    H14   S    
C12   C14   A    
C6    O8    A    
H17   N3    S    
C10   C15   A    
H6    N6    S    
C6    C14   S    
C17   H12   S    
C2    N2    A    
C10   C17   S    
H16   N3    S    
C7    C9    S    
Cu2   O4    S    
Cu1   O5    S    
C12   C13   A    
Cu2   O6    S    
C10   C11   A    
H7    N6    S    
Cu1   O9    S    
H2    N4    S    
C18   N1    A    
C14   C15   A    
C1    O1    A    
Cu2   O10   S    
C5    C18   S    
C6    O7    A    
Cu1   O1    S    
H5    N5    S    
H8    N7    S    
C20   N7    S    
O3    S1    S    
C15   C16   S    
C20   N2    A    
C16   C17   S    
C3    C5    S    
H9    N7    S    
