data_mof_unit_65470.cif
_audit_creation_date              2012-12-11T16:08:34-0500
_audit_creation_method            fapswitch 2.2
_symmetry_space_group_name_H-M    P1
_symmetry_Int_Tables_number       1
_space_group_crystal_system       triclinic
_cell_length_a                    7.519154
_cell_length_b                    22.314624
_cell_length_c                    22.523273
_cell_angle_alpha                 89.979586
_cell_angle_beta                  90.853774
_cell_angle_gamma                 90.531
_cell_volume                      3778.53260709

loop_
_atom_site_label
_atom_site_type_symbol
_atom_type_description
_atom_site_fract_x
_atom_site_fract_y
_atom_site_fract_z
_atom_type_partial_charge
O1    O     O_R   0.365470 0.806380 0.442440 -0.530090
O2    O     O_R   0.134530 0.193620 0.942440 -0.532244
O3    O     O_R   0.865470 0.693620 0.557560 -0.531148
O4    O     O_R   0.634530 0.306380 0.057560 -0.529199
O5    O     O_R   0.035730 0.813790 0.557160 -0.525055
O6    O     O_R   0.464270 0.186210 0.057160 -0.526470
O7    O     O_R   0.535730 0.686210 0.442840 -0.532156
O8    O     O_R   0.964270 0.313790 0.942840 -0.526832
C1    C     C_R   0.205061 0.826729 0.576653 0.697343
C2    C     C_R   0.296665 0.173773 0.077133 0.695092
C3    C     C_R   0.702201 0.673381 0.422791 0.708014
C4    C     C_R   0.795769 0.326849 0.923403 0.695987
O9    O     O_R   0.035760 0.813790 0.442850 -0.530577
O10   O     O_R   0.464240 0.186210 0.942850 -0.532281
O11   O     O_R   0.535760 0.686210 0.557150 -0.530337
O12   O     O_R   0.964240 0.313790 0.057150 -0.534849
O13   O     O_R   0.865450 0.693620 0.442430 -0.531648
O14   O     O_R   0.634550 0.306380 0.942430 -0.529901
O15   O     O_R   0.365450 0.806380 0.557570 -0.528516
O16   O     O_R   0.134550 0.193620 0.057570 -0.531411
C5    C     C_R   0.203942 0.827939 0.424255 0.704367
C6    C     C_R   0.294704 0.172068 0.924407 0.709961
C7    C     C_R   0.704437 0.672029 0.575644 0.715090
C8    C     C_R   0.797801 0.327202 0.076334 0.718958
O17   O     O_3   0.198970 0.710570 0.500000 -0.393095
O18   O     O_3   0.301030 0.289430 0.000000 -0.379684
O19   O     O_3   0.698970 0.789430 0.500000 -0.375013
O20   O     O_3   0.801030 0.210570 0.000000 -0.381396
V1    V     V_3+5 0.924120 0.757310 0.500000 1.402508
V2    V     V_3+5 0.575880 0.242690 0.000000 1.414073
V3    V     V_3+5 0.424120 0.742690 0.500000 1.389719
V4    V     V_3+5 0.075880 0.257310 0.000000 1.406618
C9    C     C_3   0.953465 0.537686 0.733275 0.434864
C10   C     C_3   0.556914 0.453445 0.233995 0.434316
C11   C     C_3   0.451602 0.963454 0.268228 0.437063
C12   C     C_3   0.046537 0.036664 0.765585 0.440999
C13   C     C_3   0.620220 0.546616 0.757582 -0.037162
C14   C     C_3   0.891345 0.455432 0.260156 -0.017017
C15   C     C_3   0.116183 0.955657 0.242587 -0.037270
C16   C     C_3   0.380739 0.046933 0.743396 -0.035695
C17   C     C_3   0.654626 0.498540 0.805828 -0.005116
C18   C     C_3   0.864903 0.509614 0.301780 -0.010213
C19   C     C_3   0.152125 0.004150 0.194972 -0.004560
C20   C     C_3   0.348686 0.998555 0.695046 -0.004670
H1    H     H_    0.488210 0.534376 0.739651 0.154289
H2    H     H_    0.022694 0.463526 0.241521 0.170840
H3    H     H_    0.985999 0.968012 0.260172 0.154988
H4    H     H_    0.511075 0.035135 0.762233 0.150739
H5    H     H_    0.524617 0.476408 0.812897 0.139127
H6    H     H_    0.979624 0.539645 0.293385 0.128798
H7    H     H_    0.023449 0.026681 0.187551 0.138899
H8    H     H_    0.479098 0.976970 0.688758 0.140854
C21   C     C_1   0.787584 0.367510 0.872999 -0.126227
C22   C     C_1   0.703563 0.632848 0.371518 -0.151959
C23   C     C_1   0.290374 0.134234 0.128527 -0.128416
C24   C     C_1   0.215049 0.867070 0.627333 -0.128499
C25   C     C_3   0.755339 0.539323 0.705648 -0.069900
C26   C     C_3   0.753066 0.457623 0.207574 -0.074036
C27   C     C_3   0.255018 0.961797 0.295184 -0.071667
C28   C     C_3   0.242751 0.039112 0.794553 -0.070572
C29   C     C_3   0.979536 0.476540 0.772309 0.505328
C30   C     C_3   0.523245 0.507623 0.281410 0.542123
C31   C     C_3   0.480068 0.025283 0.230415 0.505253
C32   C     C_3   0.022131 0.974818 0.727476 0.504185
C33   C     C_3   0.784999 0.448745 0.783160 -0.145484
C34   C     C_3   0.699762 0.548668 0.283222 -0.130526
C35   C     C_3   0.286862 0.053414 0.218851 -0.142714
C36   C     C_3   0.217106 0.948155 0.717292 -0.144867
C37   C     C_3   0.705253 0.425294 0.720880 0.180564
C38   C     C_3   0.732877 0.572851 0.216987 0.186842
C39   C     C_3   0.210852 0.075954 0.281078 0.181487
C40   C     C_3   0.295191 0.925486 0.779844 0.182486
C41   C     C_3   0.702140 0.477989 0.673007 0.447871
C42   C     C_3   0.786811 0.519827 0.173971 0.452982
C43   C     C_3   0.208272 0.022806 0.328407 0.445859
C44   C     C_3   0.292769 0.978013 0.827814 0.444944
C45   C     C_1   0.784393 0.402045 0.831097 0.046071
C46   C     C_1   0.699191 0.597589 0.329734 0.010955
C47   C     C_1   0.287415 0.100361 0.171017 0.046470
C48   C     C_1   0.218636 0.901408 0.669405 0.051806
C49   C     C_1   0.731844 0.588665 0.660761 0.156724
C50   C     C_1   0.782527 0.408345 0.163459 0.123482
C51   C     C_1   0.230886 0.911816 0.339457 0.156818
C52   C     C_1   0.265209 0.088578 0.839424 0.156899
C53   C     C_1   0.715287 0.626509 0.621965 -0.190371
C54   C     C_1   0.794136 0.371124 0.124101 -0.172935
C55   C     C_1   0.214258 0.873625 0.377942 -0.185218
C56   C     C_1   0.282074 0.126506 0.878176 -0.192030
H9    H     H_    0.566005 0.411705 0.729282 0.078215
H10   H     H_    0.844770 0.605662 0.219830 0.061338
H11   H     H_    0.071689 0.089333 0.272333 0.080896
H12   H     H_    0.435886 0.913959 0.772280 0.082702
I1    I     I_    0.128597 0.493086 0.855970 -0.354684
I2    I     I_    0.451423 0.474736 0.369716 -0.339313
I3    I     I_    0.624484 0.009848 0.147291 -0.380045
I4    I     I_    0.874929 0.988982 0.643306 -0.380757
O21   O     O_3   0.069323 0.535527 0.683340 -0.540518
C57   C     C_3   0.204019 0.579719 0.680146 0.137466
H13   H     H_    0.312360 0.561886 0.653474 0.181945
H14   H     H_    0.263297 0.588851 0.723537 0.177660
C58   C     C_3   0.144516 0.636666 0.648117 -0.321852
H15   H     H_    0.131830 0.627452 0.599739 0.217071
H16   H     H_    0.016604 0.652241 0.664798 0.217715
C59   C     C_3   0.274377 0.688061 0.659215 -0.757210
H17   H     H_    0.247722 0.708912 0.702595 0.230573
H18   H     H_    0.255619 0.722133 0.624449 0.229251
H19   H     H_    0.413355 0.672708 0.659324 0.244541
O22   O     O_3   0.440912 0.461514 0.183580 -0.538044
C60   C     C_3   0.292334 0.422502 0.179451 0.151348
H20   H     H_    0.182956 0.446944 0.158094 0.173902
H21   H     H_    0.244122 0.409496 0.223197 0.175398
C61   C     C_3   0.325566 0.368399 0.139393 -0.298583
H22   H     H_    0.288747 0.379612 0.092721 0.203535
H23   H     H_    0.466563 0.356730 0.140581 0.229329
C62   C     C_3   0.222718 0.312894 0.159320 -0.762946
H24   H     H_    0.287411 0.292081 0.198447 0.233022
H25   H     H_    0.222756 0.279534 0.123400 0.232865
H26   H     H_    0.084110 0.323636 0.170542 0.240729
O23   O     O_3   0.571274 0.963410 0.318503 -0.540658
C63   C     C_3   0.705505 0.919558 0.319576 0.141836
H27   H     H_    0.817186 0.936492 0.346973 0.177641
H28   H     H_    0.760161 0.913092 0.275645 0.175199
C64   C     C_3   0.647582 0.860417 0.348518 -0.321722
H29   H     H_    0.648435 0.865787 0.397563 0.215404
H30   H     H_    0.513194 0.846990 0.333701 0.219213
C65   C     C_3   0.768578 0.809163 0.331222 -0.756441
H31   H     H_    0.746766 0.797348 0.283876 0.249199
H32   H     H_    0.736577 0.769349 0.358123 0.210140
H33   H     H_    0.909939 0.821361 0.338168 0.243994
O24   O     O_3   0.927156 0.034744 0.814599 -0.539491
C66   C     C_3   0.798007 0.079946 0.817866 0.134650
H34   H     H_    0.687729 0.062653 0.844491 0.183276
H35   H     H_    0.740174 0.089681 0.774551 0.178894
C67   C     C_3   0.863409 0.136438 0.849934 -0.331205
H36   H     H_    0.884478 0.125841 0.897716 0.219139
H37   H     H_    0.987808 0.153362 0.830852 0.217364
C68   C     C_3   0.731655 0.187215 0.843086 -0.752617
H38   H     H_    0.754088 0.211110 0.800883 0.224626
H39   H     H_    0.752372 0.219190 0.879788 0.232623
H40   H     H_    0.593153 0.170529 0.843131 0.244409
O25   O     O_3   0.095994 0.437898 0.739372 -0.529881
C69   C     C_3   0.120443 0.376479 0.757244 0.196631
H41   H     H_    0.157301 0.352418 0.716093 0.154155
H42   H     H_    0.001921 0.352610 0.772494 0.150085
C70   C     C_3   0.266534 0.364657 0.803947 -0.401962
H43   H     H_    0.377207 0.396138 0.798647 0.213275
H44   H     H_    0.212080 0.369821 0.849133 0.229545
C71   C     C_3   0.336866 0.300717 0.799796 -0.797701
H45   H     H_    0.226899 0.267723 0.805685 0.235664
H46   H     H_    0.438627 0.293287 0.835173 0.242163
H47   H     H_    0.399425 0.293165 0.756148 0.240825
O26   O     O_3   0.362256 0.537375 0.262561 -0.530241
C72   C     C_3   0.326502 0.597559 0.281139 0.189521
H48   H     H_    0.217935 0.613299 0.251245 0.129101
H49   H     H_    0.434000 0.630221 0.274176 0.155116
C73   C     C_3   0.263754 0.606281 0.344831 -0.396954
H50   H     H_    0.163021 0.573236 0.357099 0.245613
H51   H     H_    0.373981 0.601199 0.377116 0.230332
C74   C     C_3   0.188422 0.669039 0.351925 -0.767952
H52   H     H_    0.288144 0.703640 0.339249 0.212412
H53   H     H_    0.155248 0.675914 0.398772 0.278982
H54   H     H_    0.066008 0.674387 0.324260 0.213968
O27   O     O_3   0.600122 0.063440 0.264450 -0.529876
C75   C     C_3   0.626988 0.125109 0.247294 0.199162
H55   H     H_    0.670464 0.148588 0.288594 0.154086
H56   H     H_    0.508301 0.149311 0.232658 0.152887
C76   C     C_3   0.767615 0.137537 0.200044 -0.403857
H57   H     H_    0.876900 0.105850 0.204173 0.214465
H58   H     H_    0.706644 0.133187 0.155091 0.228537
C77   C     C_3   0.842357 0.201366 0.204556 -0.801237
H59   H     H_    0.733831 0.234472 0.199066 0.243561
H60   H     H_    0.940809 0.208897 0.169009 0.238433
H61   H     H_    0.909848 0.208621 0.248121 0.241518
O28   O     O_3   0.906032 0.935909 0.761034 -0.528955
C78   C     C_3   0.879843 0.874448 0.743396 0.202460
H62   H     H_    0.846514 0.850131 0.784900 0.160907
H63   H     H_    0.997068 0.851357 0.727015 0.146579
C79   C     C_3   0.729166 0.862284 0.698127 -0.398867
H64   H     H_    0.621705 0.894499 0.703473 0.215059
H65   H     H_    0.780868 0.866300 0.652414 0.227836
C80   C     C_3   0.653719 0.798739 0.703978 -0.798346
H66   H     H_    0.760052 0.765241 0.697319 0.238248
H67   H     H_    0.547867 0.791303 0.669838 0.241187
H68   H     H_    0.595208 0.792032 0.748430 0.242307
I5    I     I_    0.992856 0.621020 0.789145 -0.384977
I6    I     I_    0.530952 0.361298 0.273892 -0.432540
I7    I     I_    0.478751 0.881865 0.210429 -0.381628
I8    I     I_    0.011186 0.118686 0.707853 -0.383125
I9    I     I_    0.544585 0.636153 0.787154 -0.420643
I10   I     I_    0.975132 0.370492 0.299044 -0.387297
I11   I     I_    0.032822 0.867038 0.210949 -0.398481
I12   I     I_    0.458235 0.137001 0.714150 -0.424095
I13   I     I_    0.687762 0.530818 0.896642 -0.239792
I14   I     I_    0.908238 0.490592 0.396655 -0.301866
I15   I     I_    0.178415 0.973271 0.103632 -0.263817
I16   I     I_    0.318550 0.030420 0.603993 -0.264929
I17   I     I_    0.875126 0.463650 0.595828 -0.370306
I18   I     I_    0.643488 0.519001 0.086402 -0.384857
I19   I     I_    0.390506 0.036575 0.405480 -0.369927
I20   I     I_    0.109556 0.961970 0.902482 -0.375361
O29   O     O_3   0.525163 0.486943 0.650510 -0.603205
C81   C     C_3   0.449995 0.441553 0.613977 0.064997
H69   H     H_    0.348316 0.416611 0.639661 0.165498
H70   H     H_    0.545636 0.409837 0.596877 0.125523
C82   C     C_3   0.362418 0.469845 0.559271 -0.265340
H71   H     H_    0.254152 0.499986 0.572818 0.232075
H72   H     H_    0.462397 0.497135 0.535080 0.227616
C83   C     C_3   0.286855 0.421689 0.517554 -0.682679
H73   H     H_    0.396196 0.394899 0.498654 0.240610
H74   H     H_    0.212109 0.443208 0.480674 0.284843
H75   H     H_    0.195061 0.391212 0.541545 0.237157
O30   O     O_3   0.973414 0.523132 0.162473 -0.608840
C84   C     C_3   0.033161 0.570110 0.125253 0.061190
H76   H     H_    0.134046 0.596905 0.150325 0.151557
H77   H     H_    0.929619 0.601263 0.111069 0.119609
C85   C     C_3   0.121426 0.543883 0.070306 -0.262984
H78   H     H_    0.239574 0.517832 0.084184 0.237480
H79   H     H_    0.027885 0.512884 0.046851 0.231126
C86   C     C_3   0.179463 0.592925 0.027284 -0.697919
H80   H     H_    0.062179 0.618304 0.010891 0.241468
H81   H     H_    0.245734 0.572353 0.988658 0.277802
H82   H     H_    0.274823 0.624246 0.049476 0.215847
O31   O     O_3   0.031989 0.013838 0.350297 -0.603001
C87   C     C_3   0.964759 0.057376 0.389455 0.069457
H83   H     H_    0.859792 0.083084 0.365701 0.166280
H84   H     H_    0.063810 0.089010 0.406855 0.125472
C88   C     C_3   0.884234 0.026157 0.443358 -0.269196
H85   H     H_    0.771666 0.996960 0.429010 0.231196
H86   H     H_    0.986137 0.997420 0.465123 0.227298
C89   C     C_3   0.818197 0.071680 0.488437 -0.675525
H87   H     H_    0.932431 0.096395 0.508918 0.247129
H88   H     H_    0.744436 0.048086 0.523902 0.280635
H89   H     H_    0.727234 0.104239 0.466745 0.234408
O32   O     O_3   0.468024 0.988251 0.851814 -0.603282
C90   C     C_3   0.538210 0.945498 0.891924 0.066808
H90   H     H_    0.641488 0.919314 0.868871 0.165096
H91   H     H_    0.440421 0.914334 0.910070 0.128765
C91   C     C_3   0.623171 0.978042 0.945115 -0.277296
H92   H     H_    0.734979 0.006736 0.930185 0.227453
H93   H     H_    0.523094 0.007451 0.965928 0.226691
C92   C     C_3   0.692268 0.933737 0.991535 -0.661847
H94   H     H_    0.579424 0.909529 0.012332 0.248834
H95   H     H_    0.768147 0.958318 0.026581 0.279331
H96   H     H_    0.781965 0.900667 0.970954 0.236286
O33   O     O_3   0.802730 0.375109 0.700743 -0.558105
C93   C     C_3   0.706417 0.334801 0.663603 0.058423
H97   H     H_    0.735598 0.346194 0.617027 0.172161
H98   H     H_    0.560511 0.334392 0.671099 0.088929
C94   C     C_3   0.775175 0.271245 0.671767 -0.304001
H99   H     H_    0.922725 0.271750 0.675818 0.220926
H100  H     H_    0.719200 0.252326 0.712853 0.208177
C95   C     C_3   0.719636 0.231861 0.618877 -0.684264
H101  H     H_    0.572941 0.232593 0.612321 0.244465
H102  H     H_    0.760883 0.184960 0.626553 0.287614
H103  H     H_    0.784119 0.248066 0.577742 0.216190
O34   O     O_3   0.575112 0.599577 0.194442 -0.548345
C96   C     C_3   0.599232 0.650194 0.157519 0.109289
H104  H     H_    0.468645 0.658894 0.135639 0.151322
H105  H     H_    0.689188 0.641650 0.120744 0.134549
C97   C     C_3   0.653900 0.707238 0.190806 -0.424550
H106  H     H_    0.543438 0.721926 0.219474 0.213533
H107  H     H_    0.773452 0.700296 0.219281 0.195690
C98   C     C_3   0.696037 0.756068 0.145620 -0.671170
H108  H     H_    0.807491 0.742327 0.116931 0.223733
H109  H     H_    0.736752 0.797258 0.169013 0.285780
H110  H     H_    0.577166 0.765815 0.117475 0.244558
O35   O     O_3   0.311135 0.125910 0.302368 -0.558597
C99   C     C_3   0.217661 0.166115 0.338810 0.058958
H111  H     H_    0.249420 0.155109 0.385580 0.171585
H112  H     H_    0.071159 0.165731 0.331235 0.087404
C100  C     C_3   0.287617 0.229767 0.329668 -0.300111
H113  H     H_    0.434165 0.229077 0.323923 0.227048
H114  H     H_    0.225151 0.248771 0.289040 0.210374
C101  C     C_3   0.246194 0.269367 0.383103 -0.681894
H115  H     H_    0.100870 0.269399 0.391257 0.244431
H116  H     H_    0.291537 0.316015 0.374939 0.290417
H117  H     H_    0.316609 0.252762 0.423491 0.215842
O36   O     O_3   0.200753 0.873710 0.799068 -0.558822
C102  C     C_3   0.297455 0.835648 0.837818 0.060445
H118  H     H_    0.262538 0.846915 0.883871 0.170894
H119  H     H_    0.444035 0.837940 0.832113 0.089588
C103  C     C_3   0.236413 0.770868 0.829264 -0.303212
H120  H     H_    0.089247 0.768721 0.823925 0.225222
H121  H     H_    0.297553 0.753044 0.788706 0.207871
C104  C     C_3   0.291803 0.732379 0.882552 -0.685502
H122  H     H_    0.438300 0.734637 0.889495 0.243063
H123  H     H_    0.252078 0.685030 0.874937 0.288503
H124  H     H_    0.225569 0.748089 0.923391 0.217364

loop_
_geom_bond_atom_site_label_1
_geom_bond_atom_site_label_2
_ccdc_geom_bond_type
C36   C48   S    
C100  C101  S    
C13   I9    S    
C87   C88   S    
C5    C55   S    
O1    C5    A    
C65   H31   S    
C16   C28   S    
C83   H74   S    
C98   H110  S    
C101  H117  S    
O13   V1    S    
O29   C81   S    
C64   H30   S    
O3    C7    A    
O27   C75   S    
C73   C74   S    
C85   C86   S    
C10   C30   S    
C40   C44   S    
C66   C67   S    
O15   V3    S    
C87   H83   S    
C67   C68   S    
C59   H18   S    
O21   C57   S    
C64   H29   S    
C76   H58   S    
C84   H76   S    
C33   C37   S    
C31   O27   S    
C68   H39   S    
C91   C92   S    
C94   H99   S    
C58   H15   S    
C30   O26   S    
C32   C36   S    
O2    V4    S    
C75   H55   S    
C85   H79   S    
C14   C18   S    
C104  H124  S    
C60   H21   S    
C40   H12   S    
C29   I1    S    
C82   C83   S    
O19   V1    S    
C77   H59   S    
C100  H113  S    
C91   H93   S    
C31   I3    S    
O1    V3    S    
C15   I11   S    
O22   C60   S    
C61   C62   S    
C89   H89   S    
C19   I15   S    
C101  H115  S    
O5    C1    A    
C102  C103  S    
C25   C41   S    
C10   I6    S    
C88   H85   S    
O28   C78   S    
C59   H17   S    
C17   I13   S    
C43   I19   S    
C96   C97   S    
C14   C26   S    
C98   H109  S    
C100  H114  S    
C11   C31   S    
C1    O15   A    
C3    O13   A    
O31   C87   S    
C2    O16   A    
C83   H73   S    
C62   H25   S    
C81   C82   S    
C41   I17   S    
O26   C72   S    
C38   C42   S    
C39   O35   S    
C90   H90   S    
C74   H53   S    
C37   C41   S    
O14   V2    S    
C6    C56   S    
C72   H49   S    
C93   H97   S    
C40   O36   S    
C4    C21   S    
C63   C64   S    
C36   C40   S    
C20   H8    S    
C12   C32   S    
O11   C7    A    
C43   O31   S    
O12   C8    A    
O33   C93   S    
C90   H91   S    
C69   C70   S    
C93   C94   S    
C38   H10   S    
O10   V2    S    
C97   C98   S    
C37   H9    S    
C17   H5    S    
C61   H22   S    
C70   H44   S    
C63   H28   S    
C70   H43   S    
C76   C77   S    
O5    V1    S    
C84   H77   S    
C42   I18   S    
C34   C46   S    
C68   H40   S    
C93   H98   S    
C20   I16   S    
O7    V3    S    
C81   H69   S    
C30   C34   S    
O8    V4    S    
C79   H64   S    
C98   H108  S    
C71   H47   S    
C35   C47   S    
C85   H78   S    
C32   I4    S    
C26   C50   S    
C78   H63   S    
C44   I20   S    
C80   H67   S    
C38   O34   S    
C76   H57   S    
C78   C79   S    
C64   C65   S    
C15   C19   S    
C65   H33   S    
C14   I10   S    
C82   H71   S    
C15   H3    S    
C41   O29   S    
C28   C44   S    
O4    V2    S    
C8    C54   S    
C42   O30   S    
C12   I8    S    
C9    I5    S    
C80   H66   S    
O7    C3    A    
C31   C35   S    
O2    C6    A    
C104  H122  S    
C12   O24   S    
C86   H81   S    
C33   C45   S    
C23   C47   T    
C79   H65   S    
C74   H52   S    
C16   I12   S    
C99   C100  S    
O8    C4    A    
C62   H26   S    
C15   C27   S    
O34   C96   S    
C96   H104  S    
C103  H120  S    
C74   H54   S    
O9    C5    A    
C19   C35   S    
C1    C24   S    
C71   H45   S    
C72   C73   S    
C89   H88   S    
C2    C23   S    
C3    C22   S    
C81   H70   S    
C18   H6    S    
C95   H103  S    
C61   H23   S    
C71   H46   S    
C97   H107  S    
O6    V2    S    
C99   H112  S    
C94   H100  S    
C57   H14   S    
C30   I2    S    
C83   H75   S    
C21   C45   T    
C90   C91   S    
C69   H42   S    
C60   C61   S    
C18   I14   S    
O32   C90   S    
O9    V1    S    
C13   H1    S    
C66   H34   S    
C11   I7    S    
C27   C43   S    
C86   H80   S    
C70   C71   S    
C63   H27   S    
C26   C42   S    
C95   H102  S    
O16   V4    S    
C80   H68   S    
C37   O33   S    
C16   H4    S    
C84   C85   S    
C91   H92   S    
C73   H50   S    
C94   C95   S    
C65   H32   S    
C92   H96   S    
C88   H86   S    
C69   H41   S    
O17   V3    S    
C75   C76   S    
C18   C34   S    
C52   C56   T    
C29   O25   S    
C27   C51   S    
C97   H106  S    
C66   H35   S    
C87   H84   S    
C51   C55   T    
O6    C2    A    
C17   C33   S    
O23   C63   S    
O11   V3    S    
C67   H36   S    
O18   V4    S    
C9    C25   S    
O12   V4    S    
C57   C58   S    
C68   H38   S    
C103  H121  S    
C24   C48   T    
C58   H16   S    
O35   C99   S    
C10   O22   S    
O10   C6    A    
C75   H56   S    
O24   C66   S    
C102  H118  S    
O20   V2    S    
C104  H123  S    
C78   H62   S    
C50   C54   T    
O25   C69   S    
C86   H82   S    
C39   C43   S    
C28   C52   S    
O3    V1    S    
C11   O23   S    
C34   C38   S    
C77   H60   S    
C19   H7    S    
C92   H94   S    
O4    C8    A    
C77   H61   S    
C73   H51   S    
C67   H37   S    
C35   C39   S    
C102  H119  S    
C13   C17   S    
C89   H87   S    
C25   C49   S    
C49   C53   T    
C14   H2    S    
C79   C80   S    
C20   C36   S    
C11   C27   S    
C29   C33   S    
C16   C20   S    
C88   C89   S    
C39   H11   S    
C99   H111  S    
C103  C104  S    
C9    C29   S    
C57   H13   S    
C7    C53   S    
C4    O14   A    
C10   C26   S    
C12   C28   S    
O36   C102  S    
C44   O32   S    
C58   C59   S    
C9    O21   S    
C92   H95   S    
C72   H48   S    
C60   H20   S    
C82   H72   S    
C32   O28   S    
C96   H105  S    
C59   H19   S    
C13   C25   S    
C62   H24   S    
O30   C84   S    
C95   H101  S    
C22   C46   T    
C101  H116  S    
