data_mof_unit_45177.cif
_audit_creation_date              2012-10-26T19:05:04-0400
_audit_creation_method            fapswitch 2.2
_symmetry_space_group_name_H-M    P1
_symmetry_Int_Tables_number       1
_space_group_crystal_system       triclinic
_cell_length_a                    15.874523
_cell_length_b                    10.782076
_cell_length_c                    9.61559
_cell_angle_alpha                 90.018329
_cell_angle_beta                  90.040779
_cell_angle_gamma                 92.599468
_cell_volume                      1644.11332911

loop_
_atom_site_label
_atom_site_type_symbol
_atom_type_description
_atom_site_fract_x
_atom_site_fract_y
_atom_site_fract_z
_atom_type_partial_charge
C1    C     C_R   0.496946 0.262609 0.500018 0.539208
C2    C     C_R   0.301348 0.051248 0.720294 -0.129413
C3    C     C_R   0.301459 0.922276 0.720495 -0.124865
C4    C     C_R   0.340337 0.499765 0.500023 0.535443
C5    C     C_R   0.363700 0.861526 0.648557 -0.101233
C6    C     C_R   0.428239 0.929593 0.576473 0.029253
C7    C     C_R   0.428122 0.060836 0.576299 0.025709
C8    C     C_R   0.491052 0.128398 0.499863 0.001714
C9    C     C_R   0.549798 0.067365 0.420174 -0.150606
C10   C     C_R   0.549828 0.939441 0.420230 -0.157556
C11   C     C_R   0.491236 0.870482 0.500041 0.005401
C12   C     C_3   0.948969 0.429293 0.627252 -0.212393
C13   C     C_R   0.613167 0.663773 0.143754 -0.065942
C14   C     C_R   0.669749 0.743075 0.071835 -0.027663
C15   C     C_R   0.668550 0.743288 0.928029 -0.153256
C16   C     C_R   0.497283 0.737062 0.500040 0.523352
C17   C     C_R   0.612479 0.664304 0.856297 -0.096329
C18   C     C_R   0.555291 0.580811 0.925320 0.152326
C19   C     C_R   0.555422 0.580704 0.074679 0.141837
C20   C     C_R   0.447363 0.423130 0.073743 0.000547
C21   C     C_R   0.447403 0.423124 0.925976 0.000160
C22   C     C_R   0.659668 0.500613 0.499988 0.537848
C23   C     C_3   0.917270 0.502240 0.500105 0.072943
C24   C     C_3   0.046591 0.429010 0.627252 -0.215085
C25   C     C_3   0.046815 0.440010 0.365807 -0.214026
C26   C     C_3   0.949195 0.440308 0.365792 -0.213196
C27   C     C_1   0.749428 0.501584 0.500061 -0.041163
C28   C     C_3   0.082834 0.501770 0.500111 0.073651
C29   C     C_3   0.732000 0.827861 0.147628 -0.415839
C30   C     C_3   0.955537 0.636920 0.507263 -0.215518
C31   C     C_3   0.053205 0.636645 0.507293 -0.212414
C32   C     C_1   0.825049 0.502178 0.500091 -0.079412
C33   C     C_1   0.175040 0.501265 0.500079 -0.080701
C34   C     C_1   0.250623 0.500565 0.500019 -0.045712
C35   C     C_R   0.363456 0.120301 0.648103 -0.111444
Cu1   Cu    Cu3+1 0.499990 0.499990 0.640660 0.913140
Cu2   Cu    Cu3+1 0.500010 0.500010 0.359340 0.923684
H1    H     H_    0.922436 0.331971 0.624477 0.112245
H2    H     H_    0.597121 0.893958 0.360127 0.113614
H3    H     H_    0.404195 0.360014 0.128672 0.116170
H4    H     H_    0.066881 0.331557 0.624473 0.109244
H5    H     H_    0.616956 0.671032 0.253366 0.180847
H6    H     H_    0.711665 0.804934 0.870557 0.114418
H7    H     H_    0.617225 0.672704 0.746692 0.183339
H8    H     H_    0.404264 0.359988 0.870872 0.109781
H9    H     H_    0.071827 0.490770 0.272742 0.112084
H10   H     H_    0.067089 0.342751 0.358259 0.110972
H11   H     H_    0.922656 0.343194 0.358202 0.111870
H12   H     H_    0.071425 0.471751 0.725288 0.110166
H13   H     H_    0.927376 0.491243 0.272742 0.113495
H14   H     H_    0.078169 0.683128 0.603163 0.109807
H15   H     H_    0.078338 0.690970 0.416801 0.113515
H16   H     H_    0.933638 0.683528 0.603125 0.108932
H17   H     H_    0.728501 0.814545 0.262032 0.109156
H18   H     H_    0.797012 0.808766 0.113762 0.130384
H19   H     H_    0.719250 0.925997 0.123704 0.136434
H20   H     H_    0.926972 0.472168 0.725292 0.113329
H21   H     H_    0.933813 0.691353 0.416743 0.109179
H22   H     H_    0.597180 0.119261 0.360070 0.127382
H23   H     H_    0.358936 0.220003 0.647000 0.125381
H24   H     H_    0.252228 0.098010 0.774698 0.101873
H25   H     H_    0.252413 0.868948 0.775035 0.106273
H26   H     H_    0.359380 0.761258 0.647978 0.144235
N1    N     N_R   0.500800 0.501210 0.147910 -0.242665
N2    N     N_R   0.500820 0.501290 0.852040 -0.239549
O1    O     O_R   0.499990 0.319640 0.618810 -0.499024
O2    O     O_R   0.500000 0.319660 0.381240 -0.497499
O3    O     O_R   0.379430 0.499990 0.618840 -0.511264
O4    O     O_R   0.379440 0.500020 0.381260 -0.490879
O5    O     O_R   0.500000 0.680340 0.618760 -0.526281
O6    O     O_R   0.500010 0.680360 0.381190 -0.515703
O7    O     O_R   0.620560 0.499980 0.618740 -0.509049
O8    O     O_R   0.620570 0.500010 0.381160 -0.514660

loop_
_geom_bond_atom_site_label_1
_geom_bond_atom_site_label_2
_ccdc_geom_bond_type
C2    C35   A    
C20   N1    A    
Cu1   O3    S    
C6    C7    A    
C29   H19   S    
Cu2   O4    S    
C1    C8    S    
C24   C28   S    
C9    C10   A    
C25   H10   S    
Cu1   O1    S    
C4    O3    A    
C2    H24   S    
C26   H11   S    
C31   H15   S    
C3    C5    A    
C10   C11   A    
C23   C32   S    
C9    H22   S    
C26   H13   S    
C2    C3    A    
C27   C32   T    
C17   H7    S    
C15   H6    S    
C7    C8    A    
C17   C18   A    
C13   C14   A    
C18   N2    A    
C24   H4    S    
C12   C23   S    
C30   C31   S    
C16   O6    A    
C12   H20   S    
Cu2   O2    S    
C22   O7    A    
C13   H5    S    
C1    O2    A    
C19   N1    A    
Cu1   O5    S    
C28   C33   S    
C33   C34   T    
C21   H8    S    
C22   C27   S    
Cu2   O6    S    
C12   H1    S    
C5    C6    A    
C20   H3    S    
C30   H16   S    
C4    C34   S    
C3    H25   S    
C29   H17   S    
C13   C19   A    
C14   C29   S    
C23   C30   S    
C30   H21   S    
C6    C11   A    
Cu2   N1    S    
C16   O5    A    
C20   C21   A    
C5    H26   S    
C8    C9    A    
Cu1   Cu2   S    
C18   C19   A    
C11   C16   S    
C23   C26   S    
C24   H12   S    
C15   C17   A    
C12   C24   S    
Cu1   N2    S    
C4    O4    A    
Cu2   O8    S    
C29   H18   S    
C22   O8    A    
C21   N2    A    
C25   C26   S    
C14   C15   A    
C7    C35   A    
C25   H9    S    
C10   H2    S    
C28   C31   S    
Cu1   O7    S    
C31   H14   S    
C35   H23   S    
C25   C28   S    
C1    O1    A    
