data_mof_unit_56155.cif
_audit_creation_date              2012-12-10T18:53:00-0500
_audit_creation_method            fapswitch 2.2
_symmetry_space_group_name_H-M    P1
_symmetry_Int_Tables_number       1
_space_group_crystal_system       triclinic
_cell_length_a                    9.897258
_cell_length_b                    10.687757
_cell_length_c                    16.715586
_cell_angle_alpha                 91.063529
_cell_angle_beta                  84.405817
_cell_angle_gamma                 90.878446
_cell_volume                      1759.2792889

loop_
_atom_site_label
_atom_site_type_symbol
_atom_type_description
_atom_site_fract_x
_atom_site_fract_y
_atom_site_fract_z
_atom_type_partial_charge
C1    C     C_R   0.500935 0.739848 0.499569 0.961230
C2    C     C_R   0.499093 0.260161 0.500011 0.962194
C3    C     C_R   0.615199 0.937561 0.464333 0.665710
C4    C     C_R   0.384431 0.062427 0.534222 0.669248
C5    C     C_R   0.612997 0.065810 0.464355 -0.329946
C6    C     C_R   0.386448 0.934271 0.533930 -0.324726
C7    C     C_R   0.498075 0.127682 0.499397 -0.245597
C8    C     C_R   0.501732 0.872340 0.499453 -0.234386
C9    C     C_R   0.930630 0.403377 0.465889 -0.117349
C10   C     C_R   0.069374 0.596679 0.534047 -0.107875
C11   C     C_R   0.073816 0.403088 0.464884 0.067769
C12   C     C_R   0.926177 0.596911 0.535125 0.066103
C13   C     C_R   0.480073 0.505530 0.653063 0.927784
C14   C     C_R   0.520161 0.500805 0.346934 0.912222
C15   C     C_R   0.465914 0.531574 0.739184 -0.262116
C16   C     C_R   0.538556 0.525964 0.261620 -0.260343
C17   C     C_R   0.547948 0.465948 0.786709 0.673741
C18   C     C_R   0.475062 0.631860 0.235703 0.649586
C19   C     C_R   0.544609 0.493442 0.867678 -0.195501
C20   C     C_R   0.503872 0.671758 0.157922 -0.199458
C21   C     C_R   0.462558 0.589374 0.902395 -0.027102
C22   C     C_R   0.592115 0.604055 0.103675 -0.032084
C23   C     C_R   0.376746 0.656055 0.856439 -0.021083
C24   C     C_R   0.660053 0.498146 0.128580 -0.013419
C25   C     C_R   0.376805 0.625510 0.773620 -0.131312
C26   C     C_R   0.635377 0.460289 0.209514 -0.130310
C27   C     C_2   0.468478 0.616958 0.987744 -0.189072
C28   C     C_2   0.588129 0.627600 0.018250 -0.161339
H1    H     H_    0.681935 0.628338 0.978663 0.164558
H2    H     H_    0.374210 0.612422 0.026893 0.164790
H3    H     H_    0.451653 0.752535 0.138438 0.185400
H4    H     H_    0.607855 0.440110 0.903634 0.180665
H5    H     H_    0.700244 0.116616 0.436380 0.196588
H6    H     H_    0.298680 0.883712 0.561387 0.195179
H7    H     H_    0.878148 0.327025 0.438011 0.132808
H8    H     H_    0.121854 0.673134 0.561800 0.135043
N1    N     N_R   0.142790 0.500030 0.500020 -0.089522
N2    N     N_R   0.857210 0.499970 0.499980 -0.089455
O1    O     O_R   0.385380 0.683250 0.500010 -0.637857
O2    O     O_R   0.614620 0.316750 0.499990 -0.640502
O3    O     O_R   0.614710 0.683220 0.500000 -0.566269
O4    O     O_R   0.385290 0.316780 0.500000 -0.559740
O5    O     O_R   0.371780 0.500040 0.615800 -0.641953
O6    O     O_R   0.628220 0.499960 0.384200 -0.638583
O7    O     O_R   0.601110 0.500010 0.615800 -0.515852
O8    O     O_R   0.398890 0.499990 0.384200 -0.510113
Zn1   Zn    Zn3+2 0.346870 0.500020 0.500000 1.056572
Zn2   Zn    Zn3+2 0.653130 0.499980 0.500000 1.050958
F1    F     F_    0.630812 0.373935 0.754661 -0.622853
F2    F     F_    0.388251 0.699726 0.286805 -0.638711
C29   C     C_2   0.708738 0.353762 0.240930 0.567348
H9    H     H_    0.658244 0.295024 0.287345 0.026727
O9    O     O_2   0.827642 0.334187 0.218171 -0.517691
C30   C     C_2   0.287407 0.692428 0.722657 0.578469
H10   H     H_    0.326972 0.723967 0.663641 0.020429
O10   O     O_2   0.167866 0.709136 0.745227 -0.526936
C31   C     C_2   0.296945 0.762290 0.894706 0.536215
H11   H     H_    0.256640 0.758351 0.957307 0.045934
O11   O     O_2   0.280520 0.857635 0.857926 -0.499912
C32   C     C_2   0.746010 0.423032 0.067990 0.518319
H12   H     H_    0.810259 0.469298 0.020899 0.044935
O12   O     O_2   0.741626 0.308804 0.068110 -0.500473
F3    F     F_    0.725760 0.877817 0.428343 -0.650487
F4    F     F_    0.273789 0.122029 0.570237 -0.642479
C33   C     C_2   0.143267 0.295163 0.424446 0.517352
H13   H     H_    0.104816 0.201290 0.437344 0.071665
O13   O     O_2   0.236149 0.309366 0.371883 -0.537239
C34   C     C_2   0.856713 0.704794 0.575621 0.529339
H14   H     H_    0.895055 0.798690 0.562688 0.071150
O14   O     O_2   0.763979 0.690536 0.628270 -0.536382

loop_
_geom_bond_atom_site_label_1
_geom_bond_atom_site_label_2
_ccdc_geom_bond_type
C19   C21   A    
C1    O3    A    
C10   H8    S    
C15   C17   A    
C11   N1    A    
C3    F3    S    
N1    Zn1   S    
C1    C8    S    
C9    C11   A    
C4    F4    S    
N2    Zn2   S    
C2    C7    S    
C24   C32   S    
C6    H6    S    
C3    C5    A    
C13   C15   S    
C21   C27   S    
C32   H12   S    
C14   O8    A    
C16   C18   A    
C22   C28   S    
C26   C29   S    
C27   H2    S    
C13   O7    A    
C12   C34   S    
C4    C7    A    
C31   H11   S    
C10   C12   A    
C2    O4    A    
C10   N1    A    
C23   C31   S    
C19   H4    S    
C22   C24   A    
C14   O6    A    
C28   H1    S    
C17   C19   A    
O3    Zn2   S    
C20   C22   A    
C3    C8    A    
O5    Zn1   S    
C14   C16   S    
O4    Zn1   S    
C21   C23   A    
C12   N2    A    
C30   O10   D    
C31   O11   D    
C4    C6    A    
C15   C25   A    
C1    O1    A    
C9    H7    S    
C29   H9    S    
C2    O2    A    
C13   O5    A    
C23   C25   A    
C25   C30   S    
C18   F2    S    
C18   C20   A    
C32   O12   D    
C33   H13   S    
O7    Zn2   S    
C17   F1    S    
C27   C28   D    
C5    C7    A    
C34   O14   D    
O2    Zn2   S    
O8    Zn1   S    
C9    N2    A    
C6    C8    A    
C29   O9    D    
C30   H10   S    
O1    Zn1   S    
C11   C33   S    
C20   H3    S    
O6    Zn2   S    
C24   C26   A    
C34   H14   S    
C33   O13   D    
C16   C26   A    
C5    H5    S    
