data_mof_unit_52156.cif
_audit_creation_date              2012-12-10T18:31:53-0500
_audit_creation_method            fapswitch 2.2
_symmetry_space_group_name_H-M    P1
_symmetry_Int_Tables_number       1
_space_group_crystal_system       triclinic
_cell_length_a                    10.756696
_cell_length_b                    14.945383
_cell_length_c                    15.40802
_cell_angle_alpha                 82.514161
_cell_angle_beta                  89.345497
_cell_angle_gamma                 104.13224
_cell_volume                      2379.18903495

loop_
_atom_site_label
_atom_site_type_symbol
_atom_type_description
_atom_site_fract_x
_atom_site_fract_y
_atom_site_fract_z
_atom_type_partial_charge
C1    C     C_R   0.477504 0.441874 0.662370 1.027227
C2    C     C_R   0.399385 0.442197 0.899654 0.081222
C3    C     C_R   0.370970 0.345554 0.932151 0.113206
C4    C     C_R   0.741484 0.499694 0.502397 0.968722
C5    C     C_R   0.398037 0.508556 0.957031 0.069020
C6    C     C_R   0.395009 0.479557 0.047813 0.056004
C7    C     C_R   0.358226 0.383278 0.079346 -0.266524
C8    C     C_R   0.343420 0.316681 0.022361 -0.002266
C9    C     C_R   0.403607 0.603294 0.926995 -0.200496
C10   C     C_R   0.422729 0.669240 0.984693 -0.221182
C11   C     C_R   0.442605 0.643200 0.072621 0.164704
C12   C     C_3   0.120042 0.499237 0.508347 -0.242507
C13   C     C_R   0.431116 0.548103 0.104078 0.105999
C14   C     C_R   0.476646 0.710781 0.129306 -0.185400
C15   C     C_R   0.503488 0.684709 0.216094 -0.138409
C16   C     C_R   0.514663 0.557994 0.337662 0.866080
C17   C     C_R   0.465885 0.524653 0.189177 -0.266666
C18   C     C_R   0.665324 0.835768 0.652166 -0.293961
C19   C     C_R   0.638473 0.747791 0.626437 0.042456
C20   C     C_R   0.536737 0.799466 0.500686 0.029247
C21   C     C_R   0.556202 0.889442 0.524806 0.004866
C22   C     C_R   0.622602 0.906612 0.602297 0.162526
C23   C     C_3   0.069948 0.492885 0.413611 -0.476514
C24   C     C_R   0.508185 0.960971 0.476977 0.084724
C25   C     C_R   0.525568 0.048486 0.508898 0.069324
C26   C     C_R   0.596063 0.063275 0.584909 -0.209388
C27   C     C_R   0.643933 0.993614 0.630275 -0.168431
C28   C     C_R   0.257285 0.498920 0.503400 0.968654
C29   C     C_R   0.440349 0.947031 0.399782 -0.139195
C30   C     C_R   0.383684 0.013852 0.358364 -0.177251
C31   C     C_R   0.395759 0.098094 0.390440 0.159932
C32   C     C_R   0.469447 0.117561 0.464638 -0.004903
C33   C     C_R   0.336055 0.163902 0.348008 -0.293438
C34   C     C_3   0.100673 0.599124 0.532581 0.677101
C35   C     C_R   0.352353 0.249335 0.377980 0.037379
C36   C     C_R   0.483527 0.206213 0.490855 -0.040169
C37   C     C_3   0.892647 0.415192 0.577580 0.205357
C38   C     C_3   0.035663 0.405606 0.568701 0.241797
C39   C     C_3   0.925984 0.488998 0.415843 -0.474594
C40   C     C_3   0.954943 0.590961 0.537485 -0.426451
C41   C     C_3   0.876982 0.498663 0.509040 -0.147743
C42   C     C_1   0.306955 0.219391 0.059265 0.148609
C43   C     C_1   0.027004 0.322962 0.521633 0.232304
C44   C     C_R   0.445495 0.406772 0.755012 0.000551
C45   C     C_R   0.499326 0.591239 0.245846 -0.054636
C46   C     C_R   0.374481 0.280860 0.873781 -0.203692
C47   C     C_R   0.411272 0.311379 0.785865 -0.133120
C48   C     C_R   0.439625 0.470892 0.811882 -0.156569
H1    H     H_    0.827829 0.352660 0.555522 0.107606
H2    H     H_    0.337958 0.358503 0.148432 0.144272
H3    H     H_    0.390868 0.627696 0.859357 0.179406
H4    H     H_    0.483200 0.783545 0.106392 0.144773
H5    H     H_    0.695673 0.007396 0.689035 0.162780
H6    H     H_    0.542033 0.229605 0.543553 0.147516
H7    H     H_    0.309787 0.301976 0.344466 0.127178
H8    H     H_    0.329852 0.999358 0.300567 0.166199
H9    H     H_    0.716387 0.847763 0.711466 0.157283
H10   H     H_    0.668547 0.691866 0.665431 0.157579
H11   H     H_    0.491573 0.780425 0.442048 0.164978
H12   H     H_    0.907538 0.545127 0.366598 0.238693
H13   H     H_    0.614355 0.127517 0.612528 0.171809
H14   H     H_    0.427056 0.884410 0.369888 0.178416
H15   H     H_    0.279173 0.149970 0.291436 0.160347
H16   H     H_    0.872602 0.421619 0.395961 0.193236
H17   H     H_    0.086504 0.431618 0.385812 0.185465
H18   H     H_    0.930410 0.651081 0.497576 0.208044
H19   H     H_    0.920408 0.597563 0.603447 0.254626
H20   H     H_    0.115937 0.819515 0.481473 0.369865
H21   H     H_    0.680298 0.301648 0.769156 0.375874
H22   H     H_    0.042799 0.256289 0.778642 0.379123
H23   H     H_    0.122583 0.550092 0.364008 0.268440
H24   H     H_    0.096624 0.606173 0.774937 0.389488
H25   H     H_    0.470809 0.454234 0.211683 0.163161
H26   H     H_    0.527025 0.737200 0.259611 0.161362
H27   H     H_    0.427924 0.741330 0.959636 0.158552
H28   H     H_    0.351337 0.206690 0.895891 0.158755
H29   H     H_    0.413479 0.260464 0.742243 0.181407
H30   H     H_    0.471387 0.543999 0.787244 0.161232
N1    N     N_R   0.573860 0.731700 0.552730 -0.105928
N2    N     N_R   0.426060 0.268290 0.447230 -0.099913
N3    N     N_1   0.277817 0.141587 0.088918 -0.209160
N4    N     N_1   0.020016 0.258740 0.485527 -0.190145
O1    O     O_R   0.462770 0.383110 0.605620 -0.586843
O2    O     O_2   0.072633 0.701966 0.372859 -0.361418
O3    O     O_3   0.199324 0.802597 0.479646 -0.491126
O4    O     O_2   0.906587 0.416610 0.760648 -0.152395
O5    O     O_2   0.748770 0.486372 0.688548 -0.362534
O6    O     O_3   0.707606 0.307608 0.706630 -0.587612
O7    O     O_2   0.213528 0.323096 0.644254 -0.341990
O8    O     O_2   0.158247 0.438668 0.724371 -0.230878
O9    O     O_3   0.996880 0.277098 0.727507 -0.491970
O10   O     O_2   0.289199 0.615072 0.660483 -0.278075
O11   O     O_2   0.175433 0.736691 0.639008 -0.273133
O12   O     O_R   0.510160 0.531900 0.639510 -0.610225
O13   O     O_3   0.057278 0.581709 0.722239 -0.489788
O14   O     O_R   0.661510 0.425600 0.483070 -0.640624
O15   O     O_R   0.708900 0.574390 0.516960 -0.620403
O16   O     O_R   0.489840 0.468100 0.360490 -0.641336
O17   O     O_R   0.537230 0.616890 0.394380 -0.617850
O18   O     O_R   0.291100 0.425610 0.483040 -0.610902
O19   O     O_R   0.338490 0.574400 0.516930 -0.526201
O20   O     O_2   0.287883 0.689709 0.399188 -0.330917
S1    S     S_3+6 0.167398 0.698323 0.443584 0.009104
S2    S     S_3+6 0.817238 0.410412 0.686567 0.063501
S3    S     S_3+6 0.106376 0.364485 0.668491 0.066022
S4    S     S_3+6 0.161829 0.634389 0.638692 0.064607
Zn1   Zn    Zn3+2 0.468350 0.400660 0.477370 0.993404
Zn2   Zn    Zn3+2 0.531650 0.599340 0.522630 1.043762

loop_
_geom_bond_atom_site_label_1
_geom_bond_atom_site_label_2
_ccdc_geom_bond_type
O9    S3    S    
H22   O9    S    
C9    H3    S    
O4    S2    D    
C46   H28   S    
C7    C8    A    
C39   C41   S    
C39   H16   S    
C12   C23   S    
O12   Zn2   S    
C26   C27   A    
C37   C38   S    
C12   C28   S    
C34   C40   S    
C32   C36   A    
C26   H13   S    
C17   C45   A    
C30   C31   A    
C11   C14   A    
C4    C41   S    
C35   N2    A    
C18   C19   A    
C48   H30   S    
C24   C29   A    
C18   H9    S    
C29   H14   S    
O15   Zn2   S    
C28   O19   A    
C14   H4    S    
C1    O12   A    
C40   H19   S    
C31   C33   A    
C9    C10   A    
O3    S1    S    
C44   C47   A    
C28   O18   A    
C25   C32   A    
C40   H18   S    
C4    O15   A    
C17   H25   S    
H20   O3    S    
H24   O13   S    
C42   N3    T    
O6    S2    S    
C19   H10   S    
C4    O14   A    
C35   H7    S    
C34   S4    S    
C23   H23   S    
C24   C25   A    
C7    H2    S    
C3    C8    A    
C36   N2    A    
C2    C48   A    
C25   C26   A    
C30   H8    S    
O16   Zn1   S    
C5    C9    A    
C29   C30   A    
O17   Zn2   S    
O13   S4    S    
O11   S4    D    
C37   H1    S    
C10   H27   S    
C1    C44   S    
C31   C32   A    
N2    Zn1   S    
C33   H15   S    
C20   H11   S    
C19   N1    A    
H21   O6    S    
O10   S4    D    
C40   C41   S    
O14   Zn1   S    
C22   C27   A    
C2    C5    A    
C47   H29   S    
C12   C34   S    
C12   C38   S    
C43   N4    T    
C46   C47   A    
O18   Zn1   S    
C20   N1    A    
C18   C22   A    
O8    S3    D    
C8    C42   S    
C16   C45   S    
C37   S2    S    
C27   H5    S    
C16   O17   A    
C6    C7    A    
C1    O1    A    
C3    C46   A    
C34   S1    S    
C13   C17   A    
C23   H17   S    
C38   S3    S    
C2    C3    A    
C38   C43   S    
C6    C13   A    
C11   C13   A    
C16   O16   A    
C5    C6    A    
O19   Zn2   S    
C23   C39   S    
C39   H12   S    
C33   C35   A    
O1    Zn1   S    
N1    Zn2   S    
C37   C41   S    
O20   S1    D    
C36   H6    S    
C10   C11   A    
O5    S2    D    
C15   H26   S    
C20   C21   A    
C21   C24   A    
O7    S3    D    
O2    S1    D    
C15   C45   A    
C14   C15   A    
C21   C22   A    
C44   C48   A    
