data_mof_unit_9342.cif
_audit_creation_date              2012-12-10T18:00:17-0500
_audit_creation_method            fapswitch 2.2
_symmetry_space_group_name_H-M    P1
_symmetry_Int_Tables_number       1
_space_group_crystal_system       triclinic
_cell_length_a                    10.827161
_cell_length_b                    9.535546
_cell_length_c                    10.654237
_cell_angle_alpha                 90.639875
_cell_angle_beta                  90.148098
_cell_angle_gamma                 90.018812
_cell_volume                      1099.90189783

loop_
_atom_site_label
_atom_site_type_symbol
_atom_type_description
_atom_site_fract_x
_atom_site_fract_y
_atom_site_fract_z
_atom_type_partial_charge
C1    C     C_R   0.871751 0.500021 0.500265 -0.019600
C2    C     C_R   0.128258 0.499984 0.499879 -0.017302
C3    C     C_R   0.262122 0.499986 0.499882 0.776730
C4    C     C_R   0.737880 0.500015 0.500173 0.780827
C5    C     C_R   0.495885 0.499188 0.259609 0.803081
C6    C     C_R   0.502599 0.500994 0.740656 0.806745
C7    C     C_3   0.426486 0.606691 0.042098 0.186561
C8    C     C_3   0.568679 0.394801 0.959464 0.178487
C9    C     C_3   0.545738 0.623985 0.964633 0.174034
C10   C     C_3   0.449400 0.378136 0.036222 0.186067
C11   C     C_3   0.382597 0.486584 0.953450 -0.226242
C12   C     C_3   0.612644 0.514890 0.047198 -0.294737
C13   C     C_3   0.503030 0.503399 0.877461 -0.131626
C14   C     C_3   0.492990 0.497902 0.123159 -0.150795
C15   C     C_R   0.415025 0.073473 0.431326 -0.031193
C16   C     C_R   0.585823 0.926523 0.567457 -0.035343
C17   C     C_R   0.585508 0.075195 0.567925 -0.033619
C18   C     C_R   0.414892 0.924780 0.431501 -0.028961
C19   C     C_R   0.063845 0.372567 0.501441 -0.191815
C20   C     C_R   0.936168 0.627440 0.498749 -0.192458
C21   C     C_R   0.936090 0.372585 0.501687 -0.192673
C22   C     C_R   0.063923 0.627421 0.498487 -0.190759
Cu1   Cu    Cu3+1 0.500000 0.640660 0.500000 0.929211
Cu2   Cu    Cu3+1 0.500000 0.359340 0.500000 0.928225
H1    H     H_    0.347021 0.128622 0.376079 0.110936
H2    H     H_    0.654681 0.871314 0.621534 0.124331
H3    H     H_    0.654027 0.131686 0.622541 0.110245
H4    H     H_    0.346664 0.868234 0.376533 0.111388
H5    H     H_    0.289706 0.474695 0.910368 0.143447
H6    H     H_    0.706271 0.526510 0.088880 0.144740
H7    H     H_    0.111868 0.272937 0.502547 0.147189
H8    H     H_    0.888147 0.727070 0.497663 0.146498
H9    H     H_    0.888010 0.272965 0.502999 0.146941
H10   H     H_    0.112006 0.727040 0.497169 0.146609
N1    N     N_R   0.500000 0.852070 0.500000 -0.154634
N2    N     N_R   0.500000 0.147930 0.500000 -0.152514
O1    O     O_R   0.319640 0.618740 0.499990 -0.593863
O2    O     O_R   0.680360 0.381260 0.500010 -0.590495
O3    O     O_R   0.680360 0.618740 0.500010 -0.590182
O4    O     O_R   0.319640 0.381260 0.499990 -0.590782
O5    O     O_R   0.499970 0.618770 0.316850 -0.584347
O6    O     O_R   0.500030 0.381230 0.683150 -0.587633
O7    O     O_R   0.500030 0.618770 0.683150 -0.575044
O8    O     O_R   0.499970 0.381230 0.316850 -0.582786
C23   C     C_3   0.339628 0.717812 0.098591 -0.370355
C24   C     C_3   0.239875 0.764076 0.006412 -0.875572
H11   H     H_    0.281021 0.803546 0.918542 0.263821
H12   H     H_    0.177148 0.675303 0.983456 0.249072
H13   H     H_    0.183579 0.848566 0.050188 0.236735
H14   H     H_    0.292349 0.672759 0.181339 0.192932
H15   H     H_    0.394195 0.809472 0.131911 0.202585
C25   C     C_3   0.654244 0.280533 0.907216 -0.386219
C26   C     C_3   0.721381 0.201171 0.010513 -0.841461
H16   H     H_    0.776278 0.274444 0.070115 0.251589
H17   H     H_    0.655050 0.143733 0.069927 0.254972
H18   H     H_    0.785201 0.123501 0.967243 0.236304
H19   H     H_    0.599657 0.205826 0.849298 0.205911
H20   H     H_    0.723957 0.330305 0.845650 0.189700
C27   C     C_3   0.617342 0.755901 0.927559 -0.388647
C28   C     C_3   0.534990 0.874879 0.883581 -0.829624
H21   H     H_    0.468744 0.838769 0.810753 0.277174
H22   H     H_    0.484411 0.920821 0.964158 0.257450
H23   H     H_    0.593556 0.958311 0.843362 0.227206
H24   H     H_    0.671599 0.794014 0.009798 0.197369
H25   H     H_    0.683588 0.727593 0.851958 0.193621
C29   C     C_3   0.386616 0.243758 0.080500 -0.379266
C30   C     C_3   0.325395 0.164587 0.971862 -0.870636
H26   H     H_    0.246827 0.225794 0.933883 0.250738
H27   H     H_    0.392385 0.143710 0.895394 0.265029
H28   H     H_    0.289140 0.063469 0.006103 0.245611
H29   H     H_    0.454878 0.175203 0.127258 0.207540
H30   H     H_    0.314557 0.271883 0.150424 0.193534

loop_
_geom_bond_atom_site_label_1
_geom_bond_atom_site_label_2
_ccdc_geom_bond_type
C2    C22   A    
C15   C18   A    
Cu2   O2    S    
Cu1   Cu2   S    
C1    C21   A    
C8    C13   S    
C17   N2    A    
Cu2   O6    S    
C18   N1    A    
C8    C25   S    
C9    C27   S    
C29   H29   S    
Cu1   O5    S    
C4    O3    A    
C8    C12   S    
C30   H28   S    
C19   H7    S    
C1    C4    S    
C10   C29   S    
C2    C3    S    
C27   H24   S    
C18   H4    S    
C27   C28   S    
C20   H8    S    
C23   C24   S    
C27   H25   S    
C6    C13   S    
C7    C11   S    
Cu2   O8    S    
C11   C13   S    
C24   H13   S    
C3    O1    A    
C5    C14   S    
Cu2   N2    S    
C25   H20   S    
C23   H14   S    
C28   H23   S    
Cu1   O3    S    
C7    C23   S    
C8    C10   S    
C19   C21   A    
C5    O8    A    
C12   C14   S    
C3    O4    A    
C29   C30   S    
Cu1   N1    S    
C6    O7    A    
C26   H17   S    
C16   N1    A    
C16   H2    S    
C22   H10   S    
C9    C12   S    
C24   H12   S    
C15   H1    S    
C21   H9    S    
C10   C11   S    
C23   H15   S    
C30   H26   S    
C17   H3    S    
C15   N2    A    
Cu1   O7    S    
C25   C26   S    
C11   H5    S    
C28   H22   S    
C25   H19   S    
C26   H18   S    
C10   C14   S    
C7    C9    S    
C9    C13   S    
C24   H11   S    
C16   C17   A    
C1    C20   A    
C5    O5    A    
Cu2   O4    S    
C2    C19   A    
Cu1   O1    S    
C12   H6    S    
C4    O2    A    
C7    C14   S    
C29   H30   S    
C26   H16   S    
C20   C22   A    
C28   H21   S    
C30   H27   S    
C6    O6    A    
