data_mof_unit_19940.cif
_audit_creation_date              2012-12-10T17:00:01-0500
_audit_creation_method            fapswitch 2.2
_symmetry_space_group_name_H-M    P1
_symmetry_Int_Tables_number       1
_space_group_crystal_system       triclinic
_cell_length_a                    15.157998
_cell_length_b                    15.130734
_cell_length_c                    10.015858
_cell_angle_alpha                 89.502519
_cell_angle_beta                  90.604814
_cell_angle_gamma                 89.88848
_cell_volume                      2296.9340759

loop_
_atom_site_label
_atom_site_type_symbol
_atom_type_description
_atom_site_fract_x
_atom_site_fract_y
_atom_site_fract_z
_atom_type_partial_charge
C1    C     C_R   0.384768 0.877821 0.499672 0.963256
C2    C     C_2   0.740244 0.189546 0.398405 -0.272415
C3    C     C_2   0.192052 0.261033 0.391022 -0.267066
C4    C     C_2   0.240244 0.689546 0.398405 -0.272416
C5    C     C_2   0.669253 0.800735 0.504073 -0.385884
C6    C     C_2   0.682747 0.186507 0.498342 -0.410200
C7    C     C_2   0.169254 0.300735 0.504073 -0.385885
C8    C     C_2   0.182747 0.686507 0.498342 -0.410199
C9    C     C_2   0.253985 0.187150 0.394801 0.509872
C10   C     C_2   0.302644 0.761902 0.387387 0.529827
C11   C     C_2   0.753985 0.687150 0.394801 0.509875
C12   C     C_R   0.380119 0.117706 0.498702 0.971559
C13   C     C_2   0.802645 0.261902 0.387388 0.529827
C14   C     C_2   0.314698 0.184912 0.493550 -0.423945
C15   C     C_2   0.329651 0.801531 0.500128 -0.432279
C16   C     C_2   0.814698 0.684912 0.493550 -0.423943
C17   C     C_2   0.829651 0.301530 0.500128 -0.432279
C18   C     C_2   0.516778 0.068772 0.924307 -0.121866
C19   C     C_2   0.016759 0.568777 0.924306 -0.121856
C20   C     C_2   0.512555 0.069605 0.074281 -0.148632
C21   C     C_2   0.012540 0.569608 0.074281 -0.148632
C22   C     C_3   0.245135 0.146416 0.172850 0.100939
C23   C     C_R   0.884768 0.377821 0.499672 0.963256
C24   C     C_3   0.262604 0.067718 0.082128 -0.329849
C25   C     C_3   0.269795 0.096206 0.936070 -0.947121
C26   C     C_3   0.274878 0.802578 0.166667 0.094808
C27   C     C_3   0.281702 0.737686 0.050870 -0.344675
C28   C     C_3   0.215735 0.760233 0.939411 -0.975840
C29   C     C_3   0.745128 0.646413 0.172851 0.100932
C30   C     C_3   0.762596 0.567715 0.082129 -0.329847
C31   C     C_3   0.769781 0.596202 0.936070 -0.947123
C32   C     C_3   0.774880 0.302579 0.166667 0.094808
C33   C     C_3   0.781702 0.237687 0.050870 -0.344673
C34   C     C_R   0.880119 0.617706 0.498702 0.971558
C35   C     C_3   0.715737 0.260239 0.939410 -0.975851
C36   C     C_R   0.618470 0.118877 0.499966 0.961485
C37   C     C_R   0.615612 0.878101 0.500935 0.959526
C38   C     C_R   0.118470 0.618877 0.499966 0.961484
C39   C     C_R   0.115612 0.378101 0.500935 0.959526
C40   C     C_2   0.692052 0.761033 0.391022 -0.267070
H1    H     H_    0.666628 0.784206 0.295277 0.165513
H2    H     H_    0.311628 0.777155 0.598302 0.126455
H3    H     H_    0.821494 0.736559 0.567416 0.110227
H4    H     H_    0.811627 0.277155 0.598303 0.126455
H5    H     H_    0.532321 0.130506 0.874084 0.161145
H6    H     H_    0.032282 0.630516 0.874083 0.161135
H7    H     H_    0.482011 0.942511 0.898180 0.162634
H8    H     H_    0.982033 0.442503 0.898180 0.162631
H9    H     H_    0.520149 0.132843 0.123236 0.160760
H10   H     H_    0.020120 0.632848 0.123236 0.160756
H11   H     H_    0.497790 0.939379 0.103079 0.170291
H12   H     H_    0.738891 0.140630 0.319603 0.180747
H13   H     H_    0.997800 0.439378 0.103080 0.170289
H14   H     H_    0.297271 0.197133 0.155619 0.127951
H15   H     H_    0.179234 0.174070 0.145901 0.133444
H16   H     H_    0.324956 0.034759 0.113714 0.242258
H17   H     H_    0.208060 0.019173 0.092074 0.211211
H18   H     H_    0.207353 0.127805 0.901344 0.260346
H19   H     H_    0.282700 0.037407 0.873537 0.273580
H20   H     H_    0.325061 0.143543 0.923352 0.267192
H21   H     H_    0.288624 0.870074 0.127975 0.156476
H22   H     H_    0.205837 0.803855 0.204542 0.126121
H23   H     H_    0.166627 0.284206 0.295277 0.165513
H24   H     H_    0.349563 0.739825 0.009946 0.228609
H25   H     H_    0.268803 0.669475 0.087427 0.218129
H26   H     H_    0.147231 0.756921 0.977462 0.257502
H27   H     H_    0.222438 0.712063 0.857076 0.271100
H28   H     H_    0.228474 0.827624 0.899186 0.265525
H29   H     H_    0.797263 0.697132 0.155614 0.127950
H30   H     H_    0.679226 0.674065 0.145908 0.133449
H31   H     H_    0.824949 0.534758 0.113710 0.242258
H32   H     H_    0.708053 0.519169 0.092080 0.211212
H33   H     H_    0.707337 0.627799 0.901348 0.260347
H34   H     H_    0.238891 0.640630 0.319602 0.180747
H35   H     H_    0.782684 0.537403 0.873537 0.273580
H36   H     H_    0.825044 0.643541 0.923346 0.267190
H37   H     H_    0.788628 0.370075 0.127977 0.156481
H38   H     H_    0.705839 0.303858 0.204543 0.126119
H39   H     H_    0.849564 0.239823 0.009948 0.228611
H40   H     H_    0.768799 0.169476 0.087426 0.218126
H41   H     H_    0.647232 0.256930 0.977460 0.257500
H42   H     H_    0.722439 0.212068 0.857075 0.271098
H43   H     H_    0.728480 0.327629 0.899186 0.265529
H44   H     H_    0.687394 0.774413 0.601805 0.156465
H45   H     H_    0.679592 0.235110 0.577072 0.148095
H46   H     H_    0.187394 0.274413 0.601806 0.156464
H47   H     H_    0.179592 0.735110 0.577072 0.148095
H48   H     H_    0.321493 0.236558 0.567417 0.110229
N1    N     N_2   0.501330 0.000000 0.852150 -0.190734
N2    N     N_2   0.001330 0.500000 0.852150 -0.190731
N3    N     N_2   0.501360 0.000000 0.147810 -0.201416
N4    N     N_2   0.001360 0.500000 0.147810 -0.201414
O1    O     O_R   0.409520 0.909540 0.613040 -0.634034
O2    O     O_R   0.590440 0.909540 0.613100 -0.619587
O3    O     O_R   0.090440 0.590460 0.613100 -0.618669
O4    O     O_R   0.090440 0.409540 0.613100 -0.619590
O5    O     O_R   0.590480 0.090460 0.386960 -0.619596
O6    O     O_R   0.590480 0.909540 0.386960 -0.613661
O7    O     O_R   0.090480 0.590460 0.386960 -0.619594
O8    O     O_R   0.090480 0.409540 0.386960 -0.613662
O9    O     O_3   0.245914 0.116596 0.306931 -0.621210
O10   O     O_3   0.340164 0.782325 0.264692 -0.622572
O11   O     O_3   0.745913 0.616594 0.306933 -0.621210
O12   O     O_R   0.409520 0.090460 0.613040 -0.623050
O13   O     O_3   0.840165 0.282324 0.264693 -0.622571
O14   O     O_R   0.909520 0.409540 0.613040 -0.634031
O15   O     O_R   0.909520 0.590460 0.613040 -0.623053
O16   O     O_R   0.409560 0.909540 0.386900 -0.557839
O17   O     O_R   0.409560 0.090460 0.386900 -0.582345
O18   O     O_R   0.909560 0.409540 0.386900 -0.557838
O19   O     O_R   0.909560 0.590460 0.386900 -0.582346
O20   O     O_R   0.590440 0.090460 0.613100 -0.618673
Zn1   Zn    Zn3+2 0.499970 0.000000 0.650990 0.932106
Zn2   Zn    Zn3+2 0.999970 0.500000 0.650990 0.932108
Zn3   Zn    Zn3+2 0.500030 0.000000 0.349010 0.959339
Zn4   Zn    Zn3+2 0.000030 0.500000 0.349010 0.959339

loop_
_geom_bond_atom_site_label_1
_geom_bond_atom_site_label_2
_ccdc_geom_bond_type
C5    C37   S    
O8    Zn4   S    
C4    C8    D    
C30   H31   S    
C35   H41   S    
C19   H6    S    
C22   H14   S    
C26   C27   S    
C29   C30   S    
C6    H45   S    
O14   Zn2   S    
C3    C9    S    
C34   O15   A    
O16   Zn3   S    
C28   H28   S    
C26   H21   S    
C12   O12   A    
C3    C7    D    
C10   C15   D    
C30   C31   S    
C31   H33   S    
C7    H46   S    
O3    Zn2   S    
C29   O11   S    
C39   O8    A    
C2    C13   S    
C12   O17   A    
C16   C34   S    
C32   H37   S    
O2    Zn1   S    
C6    C36   S    
C24   H17   S    
C38   O3    A    
C36   O20   A    
O19   Zn4   S    
C1    C15   S    
C25   H20   S    
O5    Zn3   S    
C4    H34   S    
H11   N3    S    
H8    N2    S    
C34   O19   A    
H7    N1    S    
O4    Zn2   S    
C2    C6    D    
C8    C38   S    
C37   O6    A    
C35   H42   S    
C29   H29   S    
C20   N3    D    
N1    Zn1   S    
C10   O10   S    
C28   H27   S    
C24   C25   S    
C13   O13   S    
O7    Zn4   S    
C5    H44   S    
C35   H43   S    
C33   H39   S    
O1    Zn1   S    
C23   O14   A    
C28   H26   S    
C9    C14   D    
O15   Zn2   S    
C20   H9    S    
C27   H25   S    
C11   C16   D    
C31   H35   S    
H13   N4    S    
C17   C23   S    
N4    Zn4   S    
C16   H3    S    
C36   O5    A    
C2    H12   S    
C9    O9    S    
C40   H1    S    
C12   C14   S    
C22   O9    S    
C32   O13   S    
C22   C24   S    
C25   H18   S    
C4    C10   S    
C18   H5    S    
O18   Zn4   S    
C29   H30   S    
C23   O18   A    
C19   C21   S    
C18   N1    D    
C15   H2    S    
C38   O7    A    
C30   H32   S    
C33   H40   S    
C22   H15   S    
C3    H23   S    
C24   H16   S    
C25   H19   S    
O20   Zn1   S    
C13   C17   D    
C8    H47   S    
C32   C33   S    
C26   H22   S    
C17   H4    S    
C14   H48   S    
C19   N2    D    
C26   O10   S    
C31   H36   S    
C33   C35   S    
N3    Zn3   S    
C37   O2    A    
O6    Zn3   S    
C18   C20   S    
N2    Zn2   S    
C11   C40   S    
C39   O4    A    
C27   H24   S    
O17   Zn3   S    
C1    O16   A    
C32   H38   S    
O12   Zn1   S    
C1    O1    A    
C5    C40   D    
C27   C28   S    
C7    C39   S    
C11   O11   S    
C21   H10   S    
C21   N4    D    
