data_mof_unit_47593.cif
_audit_creation_date              2012-12-10T17:48:44-0500
_audit_creation_method            fapswitch 2.2
_symmetry_space_group_name_H-M    P1
_symmetry_Int_Tables_number       1
_space_group_crystal_system       triclinic
_cell_length_a                    15.720977
_cell_length_b                    10.679346
_cell_length_c                    9.980208
_cell_angle_alpha                 90.220094
_cell_angle_beta                  91.43383
_cell_angle_gamma                 93.849429
_cell_volume                      1671.24536712

loop_
_atom_site_label
_atom_site_type_symbol
_atom_type_description
_atom_site_fract_x
_atom_site_fract_y
_atom_site_fract_z
_atom_type_partial_charge
C1    C     C_R   0.506922 0.261453 0.500083 0.850553
C2    C     C_R   0.674193 0.082299 0.784893 -0.140905
C3    C     C_R   0.675018 0.952252 0.783258 -0.152182
C4    C     C_R   0.338538 0.499999 0.498672 0.911936
C5    C     C_R   0.625047 0.881957 0.689131 -0.190043
C6    C     C_R   0.570811 0.940985 0.597218 0.107587
C7    C     C_R   0.570689 0.072951 0.597805 0.104594
C8    C     C_R   0.520722 0.130311 0.498517 -0.108246
C9    C     C_R   0.483249 0.060959 0.391734 -0.232778
C10   C     C_R   0.479913 0.933565 0.394343 -0.218356
C11   C     C_R   0.519101 0.873165 0.499841 -0.108488
C12   C     C_3   0.950336 0.420362 0.619197 -0.406567
C13   C     C_R   0.393274 0.307215 0.123051 0.073477
C14   C     C_R   0.355471 0.208715 0.040972 0.080130
C15   C     C_R   0.359312 0.217015 0.904343 -0.211795
C16   C     C_R   0.506498 0.739676 0.500499 0.862258
C17   C     C_R   0.400299 0.320051 0.847459 -0.194448
C18   C     C_R   0.450790 0.409138 0.923059 0.134187
C19   C     C_R   0.449486 0.406525 0.067404 0.131493
C20   C     C_R   0.547492 0.586608 0.073714 -0.115291
C21   C     C_R   0.547500 0.586425 0.931306 -0.109711
C22   C     C_R   0.661497 0.500514 0.501429 0.876106
C23   C     C_3   0.917412 0.501529 0.503267 0.351248
C24   C     C_3   0.048217 0.417485 0.614379 -0.400375
C25   C     C_3   0.043330 0.448316 0.365130 -0.467261
C26   C     C_3   0.945157 0.447635 0.368019 -0.394981
C27   C     C_1   0.750498 0.500531 0.504492 -0.186686
C28   C     C_3   0.082737 0.501822 0.498972 0.357012
C29   C     C_3   0.956829 0.637587 0.520351 -0.448298
C30   C     C_3   0.055577 0.638655 0.516486 -0.034075
C31   C     C_1   0.825909 0.500790 0.505012 -0.116147
C32   C     C_1   0.174205 0.500632 0.496084 -0.091956
C33   C     C_1   0.249559 0.500140 0.495910 -0.193608
C34   C     C_R   0.623765 0.142732 0.691924 -0.176067
H1    H     H_    0.920634 0.322911 0.611163 0.169551
H2    H     H_    0.586478 0.657732 0.128614 0.143207
H3    H     H_    0.065246 0.319122 0.598146 0.163972
H4    H     H_    0.324549 0.147341 0.841102 0.168609
H5    H     H_    0.586652 0.657391 0.880394 0.135358
H6    H     H_    0.067132 0.506067 0.279505 0.167406
H7    H     H_    0.062424 0.351019 0.348581 0.174346
H8    H     H_    0.916985 0.349876 0.353871 0.172998
H9    H     H_    0.077097 0.693809 0.427427 0.138528
H10   H     H_    0.935881 0.678215 0.616007 0.165582
H11   H     H_    0.629986 0.243976 0.691978 0.168740
H12   H     H_    0.077704 0.448399 0.712450 0.171532
H13   H     H_    0.294012 0.341640 0.235672 0.165308
H14   H     H_    0.354402 0.233029 0.301996 0.154735
H15   H     H_    0.340204 0.056082 0.161267 0.175734
H16   H     H_    0.252105 0.139945 0.143706 0.170372
H17   H     H_    0.388961 0.327681 0.742977 0.221383
H18   H     H_    0.921562 0.504552 0.283351 0.168046
H19   H     H_    0.068430 0.662751 0.722595 0.191530
H20   H     H_    0.084318 0.795000 0.633573 0.177923
H21   H     H_    0.932423 0.459417 0.717360 0.165025
H22   H     H_    0.933247 0.697434 0.438123 0.154757
H23   H     H_    0.453611 0.104491 0.307394 0.162639
H24   H     H_    0.714592 0.136841 0.856081 0.133456
H25   H     H_    0.716077 0.905792 0.853111 0.128057
H26   H     H_    0.632274 0.782199 0.686360 0.147481
H27   H     H_    0.444353 0.882191 0.314827 0.170626
N1    N     N_R   0.499210 0.498800 0.142780 -0.103363
N2    N     N_R   0.499180 0.498720 0.857170 -0.113288
N3    N     N_3   0.357063 0.317822 0.250632 -0.368249
N4    N     N_3   0.303544 0.105760 0.093969 -0.466587
N5    N     N_3   0.096223 0.699824 0.636001 -0.458210
O1    O     O_R   0.500000 0.316780 0.614690 -0.650176
O2    O     O_R   0.499990 0.316750 0.385360 -0.598748
O3    O     O_R   0.377150 0.500020 0.614720 -0.626327
O4    O     O_R   0.377140 0.499990 0.385380 -0.590939
O5    O     O_R   0.500010 0.683250 0.614640 -0.616514
O6    O     O_R   0.500000 0.683220 0.385310 -0.620289
O7    O     O_R   0.622860 0.500010 0.614620 -0.632356
O8    O     O_R   0.622850 0.499980 0.385280 -0.609394
Zn1   Zn    Zn3+2 0.500010 0.500020 0.653130 0.929099
Zn2   Zn    Zn3+2 0.499990 0.499980 0.346870 0.956120

loop_
_geom_bond_atom_site_label_1
_geom_bond_atom_site_label_2
_ccdc_geom_bond_type
C1    C8    S    
C16   O6    A    
O6    Zn2   S    
C17   H17   S    
C4    O4    A    
C7    C8    A    
C25   C28   S    
C12   C23   S    
O8    Zn2   S    
C23   C29   S    
C25   H6    S    
C5    C6    A    
C18   N2    A    
H14   N3    S    
C19   N1    A    
C1    O2    A    
C18   C19   A    
C23   C26   S    
C8    C9    A    
C9    C10   A    
C2    C34   A    
C13   C14   A    
O7    Zn1   S    
N1    Zn2   S    
C16   O5    A    
C4    O3    A    
C24   H3    S    
C13   C19   A    
C27   C31   T    
C28   C32   S    
C25   H7    S    
C6    C11   A    
C25   C26   S    
C23   C31   S    
C15   H4    S    
C29   C30   S    
C26   H18   S    
C11   C16   S    
C21   H5    S    
C17   C18   A    
C34   H11   S    
C12   H1    S    
H19   N5    S    
C30   N5    S    
H15   N4    S    
C22   C27   S    
C29   H10   S    
O4    Zn2   S    
C7    C34   A    
C30   H9    S    
C10   H27   S    
O1    Zn1   S    
C22   O8    A    
H13   N3    S    
C26   H8    S    
C15   C17   A    
C4    C33   S    
C5    H26   S    
C24   C28   S    
C3    C5    A    
C2    H24   S    
C6    C7    A    
H20   N5    S    
C29   H22   S    
O2    Zn2   S    
C12   C24   S    
C24   H12   S    
C32   C33   T    
C28   C30   S    
C2    C3    A    
O5    Zn1   S    
C13   N3    S    
N2    Zn1   S    
C1    O1    A    
C14   N4    S    
O3    Zn1   S    
C9    H23   S    
C20   N1    A    
H16   N4    S    
C21   N2    A    
C12   H21   S    
C10   C11   A    
C20   H2    S    
C20   C21   A    
C14   C15   A    
C22   O7    A    
C3    H25   S    
