data_mof_unit_58748.cif
_audit_creation_date              2012-12-10T18:19:53-0500
_audit_creation_method            fapswitch 2.2
_symmetry_space_group_name_H-M    P1
_symmetry_Int_Tables_number       1
_space_group_crystal_system       triclinic
_cell_length_a                    10.679604
_cell_length_b                    10.662645
_cell_length_c                    9.499501
_cell_angle_alpha                 86.841525
_cell_angle_beta                  90.435511
_cell_angle_gamma                 89.917466
_cell_volume                      1080.05875127

loop_
_atom_site_label
_atom_site_type_symbol
_atom_type_description
_atom_site_fract_x
_atom_site_fract_y
_atom_site_fract_z
_atom_type_partial_charge
C1    C     C_R   0.503887 0.259589 0.502988 0.776660
C2    C     C_R   0.496190 0.740285 0.497018 0.775545
C3    C     C_3   0.418255 0.954153 0.593812 0.224495
C4    C     C_3   0.582317 0.045165 0.406453 0.222907
C5    C     C_3   0.475736 0.609696 0.039993 0.296223
C6    C     C_3   0.524270 0.390184 0.959908 0.297169
C7    C     C_3   0.392120 0.533811 0.945003 -0.072248
C8    C     C_3   0.607906 0.465997 0.054979 -0.076438
C9    C     C_3   0.583812 0.576038 0.944759 -0.120702
C10   C     C_3   0.416245 0.423892 0.055236 -0.122405
C11   C     C_R   0.259794 0.503488 0.499514 0.768197
C12   C     C_R   0.740342 0.500697 0.500340 0.770853
C13   C     C_3   0.043522 0.478928 0.631825 -0.187869
C14   C     C_3   0.956644 0.531704 0.367864 -0.177903
C15   C     C_3   0.962100 0.391836 0.545337 0.135174
C16   C     C_3   0.038533 0.619106 0.454782 0.139962
C17   C     C_3   0.877445 0.502915 0.500606 -0.028886
C18   C     C_3   0.122873 0.507163 0.499435 -0.030602
C19   C     C_3   0.957305 0.591153 0.586600 -0.216848
C20   C     C_3   0.042531 0.418727 0.413273 -0.194442
C21   C     C_3   0.536242 0.028454 0.631033 -0.188341
C22   C     C_3   0.464089 0.971002 0.369181 -0.189682
C23   C     C_3   0.613688 0.950128 0.529888 -0.222377
C24   C     C_3   0.386400 0.049143 0.470424 -0.225005
C25   C     C_3   0.494940 0.877350 0.493320 -0.053960
C26   C     C_3   0.505334 0.122279 0.506795 -0.055601
Cu1   Cu    Cu3+1 0.500030 0.499990 0.643150 0.920781
Cu2   Cu    Cu3+1 0.499970 0.500010 0.356850 0.921004
H1    H     H_    0.080436 0.456519 0.739912 0.134554
H2    H     H_    0.918995 0.552196 0.259757 0.126633
H3    H     H_    0.919867 0.661570 0.657304 0.129894
H4    H     H_    0.079379 0.348187 0.342411 0.125674
H5    H     H_    0.706069 0.905412 0.552052 0.126580
H6    H     H_    0.292624 0.091096 0.448039 0.128117
H7    H     H_    0.563995 0.047087 0.739698 0.153039
H8    H     H_    0.435721 0.952212 0.260751 0.146844
H9    H     H_    0.301277 0.561601 0.894939 0.118823
H10   H     H_    0.698638 0.437590 0.104928 0.119143
H11   H     H_    0.653594 0.641126 0.894745 0.120387
H12   H     H_    0.346415 0.358859 0.105256 0.120780
N1    N     N_3   0.500090 0.499970 0.858290 -0.170267
N2    N     N_3   0.499910 0.500030 0.141710 -0.171104
O1    O     O_R   0.500060 0.316850 0.620870 -0.581236
O2    O     O_R   0.499940 0.683150 0.379130 -0.581251
O3    O     O_R   0.500000 0.316860 0.379090 -0.588172
O4    O     O_R   0.500000 0.683140 0.620910 -0.590735
O5    O     O_R   0.316880 0.499960 0.620870 -0.590681
O6    O     O_R   0.683120 0.500040 0.379130 -0.591581
O7    O     O_R   0.316830 0.499970 0.379090 -0.582520
O8    O     O_R   0.683170 0.500030 0.620910 -0.581385
C27   C     C_3   0.916126 0.264952 0.604631 -0.432732
C28   C     C_3   0.018063 0.164712 0.603433 -0.331432
C29   C     C_3   0.970453 0.040887 0.670814 -0.874333
H13   H     H_    0.940492 0.053032 0.781052 0.252812
H14   H     H_    0.890501 0.006322 0.608839 0.249710
H15   H     H_    0.045683 0.969580 0.672482 0.245741
H16   H     H_    0.047183 0.150401 0.493543 0.208459
H17   H     H_    0.100599 0.196427 0.663445 0.216269
H18   H     H_    0.889907 0.276790 0.715430 0.205372
H19   H     H_    0.832845 0.236064 0.543964 0.179567
C30   C     C_3   0.081108 0.753553 0.415169 -0.428168
C31   C     C_3   0.019281 0.805930 0.278361 -0.324590
C32   C     C_3   0.044650 0.946206 0.253456 -0.873306
H20   H     H_    0.989651 0.999617 0.328717 0.261013
H21   H     H_    0.145563 0.967301 0.267555 0.250373
H22   H     H_    0.015948 0.977359 0.144524 0.238207
H23   H     H_    0.055197 0.754927 0.188194 0.215147
H24   H     H_    0.916515 0.791342 0.283843 0.213357
H25   H     H_    0.055529 0.813841 0.502026 0.196892
H26   H     H_    0.184464 0.756413 0.405743 0.177429
C33   C     C_3   0.322652 0.901332 0.700542 -0.405643
C34   C     C_3   0.290751 0.996218 0.809401 -0.874432
H27   H     H_    0.371277 0.007601 0.882114 0.240625
H28   H     H_    0.268200 0.088914 0.756950 0.255070
H29   H     H_    0.209228 0.962476 0.872571 0.251949
H30   H     H_    0.237146 0.874655 0.642855 0.182584
H31   H     H_    0.359996 0.815513 0.756906 0.224679
C35   C     C_3   0.680404 0.095292 0.300840 -0.408617
C36   C     C_3   0.709045 0.000180 0.191278 -0.870857
H32   H     H_    0.733653 0.907866 0.243748 0.255139
H33   H     H_    0.626670 0.988425 0.121340 0.239438
H34   H     H_    0.788544 0.034166 0.125111 0.249971
H35   H     H_    0.646698 0.183290 0.245683 0.222810
H36   H     H_    0.767793 0.116520 0.358534 0.192771
C37   C     C_3   0.448276 0.745097 0.072654 -0.421772
C38   C     C_3   0.312633 0.760684 0.116703 -0.828886
H37   H     H_    0.247803 0.732225 0.032469 0.229424
H38   H     H_    0.294290 0.702445 0.214157 0.284391
H39   H     H_    0.292533 0.860398 0.133673 0.234486
H40   H     H_    0.515418 0.777421 0.151590 0.222323
H41   H     H_    0.463991 0.805473 0.975667 0.182398
C39   C     C_3   0.550277 0.254292 0.927403 -0.411154
C40   C     C_3   0.683178 0.238063 0.874648 -0.844844
H42   H     H_    0.690878 0.284243 0.768276 0.283592
H43   H     H_    0.752537 0.279525 0.946068 0.231555
H44   H     H_    0.706847 0.137129 0.870499 0.227259
H45   H     H_    0.539451 0.195041 0.026169 0.184439
H46   H     H_    0.479496 0.221265 0.852527 0.218318

loop_
_geom_bond_atom_site_label_1
_geom_bond_atom_site_label_2
_ccdc_geom_bond_type
C30   H26   S    
C7    C10   S    
C21   C26   S    
C32   H21   S    
C11   C18   S    
C40   H42   S    
C10   N2    S    
C11   O5    A    
C12   O6    A    
C19   H3    S    
C37   H41   S    
C39   H46   S    
C29   H13   S    
C2    O4    A    
C5    C9    S    
C13   C18   S    
C13   H1    S    
C24   C26   S    
C33   H30   S    
C38   H38   S    
C30   H25   S    
C9    H11   S    
C22   C25   S    
C10   H12   S    
C35   H35   S    
C1    O1    A    
C2    O2    A    
C8    C9    S    
C23   H5    S    
C6    N1    S    
C12   C17   S    
C15   C27   S    
C18   C20   S    
Cu1   O8    S    
C5    C37   S    
C23   C25   S    
C32   H22   S    
C40   H43   S    
C14   C17   S    
C3    C24   S    
C8    H10   S    
C14   H2    S    
C34   H29   S    
C39   H45   S    
C29   H14   S    
C15   C20   S    
Cu2   O3    S    
C13   C19   S    
C27   C28   S    
C14   C20   S    
C3    C25   S    
C34   H28   S    
C36   H33   S    
C4    C23   S    
C35   C36   S    
C6    C8    S    
C37   C38   S    
Cu2   O2    S    
C24   H6    S    
C32   H20   S    
C3    C33   S    
C4    C35   S    
C31   C32   S    
C11   O7    A    
Cu1   O1    S    
C4    C22   S    
Cu2   O7    S    
Cu1   N1    S    
C4    C26   S    
C7    H9    S    
C28   H17   S    
C31   H23   S    
Cu1   O4    S    
C40   H44   S    
C13   C15   S    
C1    C26   S    
C14   C16   S    
C3    C21   S    
C27   H18   S    
C16   C30   S    
C33   H31   S    
C28   C29   S    
C5    N2    S    
C5    C7    S    
C20   H4    S    
C29   H15   S    
Cu1   O5    S    
C15   C17   S    
Cu2   O6    S    
C38   H37   S    
C8    N2    S    
C34   H27   S    
C38   H39   S    
C6    C10   S    
C36   H34   S    
C12   O8    A    
C37   H40   S    
C21   H7    S    
C22   H8    S    
C9    N1    S    
C31   H24   S    
C21   C23   S    
C33   C34   S    
C1    O3    A    
C16   C19   S    
C6    C39   S    
Cu2   N2    S    
C39   C40   S    
C17   C19   S    
C2    C25   S    
C22   C24   S    
C7    N1    S    
C30   C31   S    
C28   H16   S    
C36   H32   S    
C35   H36   S    
C16   C18   S    
Cu1   Cu2   S    
C27   H19   S    
