data_mof_unit_53269.cif
_audit_creation_date              2012-12-11T15:06:38-0500
_audit_creation_method            fapswitch 2.2
_symmetry_space_group_name_H-M    P1
_symmetry_Int_Tables_number       1
_space_group_crystal_system       triclinic
_cell_length_a                    7.235378
_cell_length_b                    15.02689
_cell_length_c                    22.447844
_cell_angle_alpha                 90.009072
_cell_angle_beta                  89.919922
_cell_angle_gamma                 89.971965
_cell_volume                      2440.64427976

loop_
_atom_site_label
_atom_site_type_symbol
_atom_type_description
_atom_site_fract_x
_atom_site_fract_y
_atom_site_fract_z
_atom_type_partial_charge
O1    O     O_R   0.390810 0.844810 0.447340 -0.545168
O2    O     O_R   0.109190 0.155190 0.947340 -0.544593
O3    O     O_R   0.890810 0.655190 0.552660 -0.544843
O4    O     O_R   0.609190 0.344810 0.052660 -0.547433
O5    O     O_R   0.720550 0.655820 0.440420 -0.553117
O6    O     O_R   0.779450 0.344180 0.940420 -0.556563
O7    O     O_R   0.220550 0.844180 0.559580 -0.553350
O8    O     O_R   0.279450 0.155820 0.059580 -0.552820
C1    C     C_R   0.553045 0.627607 0.425553 0.739723
C2    C     C_R   0.947096 0.372952 0.925980 0.740803
C3    C     C_R   0.052861 0.872649 0.574228 0.740372
C4    C     C_R   0.447026 0.127436 0.074290 0.743502
O9    O     O_R   0.720530 0.844130 0.440420 -0.524506
O10   O     O_R   0.779470 0.155870 0.940420 -0.523920
O11   O     O_R   0.220530 0.655870 0.559580 -0.524536
O12   O     O_R   0.279470 0.344130 0.059580 -0.522110
O13   O     O_R   0.890830 0.844810 0.552660 -0.521691
O14   O     O_R   0.609170 0.155190 0.052660 -0.520818
O15   O     O_R   0.390830 0.655190 0.447340 -0.522079
O16   O     O_R   0.109170 0.344810 0.947340 -0.522713
C5    C     C_R   0.552774 0.873451 0.426515 0.760190
C6    C     C_R   0.947395 0.126643 0.926464 0.762461
C7    C     C_R   0.052618 0.626703 0.573612 0.760237
C8    C     C_R   0.447201 0.373254 0.073574 0.739166
O17   O     O_3   0.557310 0.749980 0.536820 -0.381820
O18   O     O_3   0.942690 0.250020 0.036820 -0.380445
O19   O     O_3   0.057310 0.750020 0.463180 -0.382087
O20   O     O_3   0.442690 0.249980 0.963180 -0.382875
V1    V     V_3+5 0.832160 0.749980 0.493170 1.453315
V2    V     V_3+5 0.667840 0.250020 0.993170 1.443350
V3    V     V_3+5 0.332160 0.750020 0.506830 1.452513
V4    V     V_3+5 0.167840 0.249980 0.006830 1.450776
C9    C     C_R   0.809831 0.587004 0.853273 -0.201323
C10   C     C_R   0.694605 0.414935 0.351934 -0.204429
C11   C     C_R   0.307027 0.914396 0.147624 -0.204989
C12   C     C_R   0.192304 0.086065 0.647170 -0.203599
H1    H     H_    0.777936 0.706442 0.767608 0.153705
H2    H     H_    0.726605 0.295360 0.266411 0.153217
H3    H     H_    0.276077 0.794703 0.233108 0.152950
H4    H     H_    0.222608 0.206020 0.732603 0.153620
C13   C     C_R   0.945262 0.446102 0.881894 -0.108970
C14   C     C_R   0.555964 0.554980 0.381026 -0.107290
C15   C     C_R   0.444616 0.054616 0.118603 -0.107982
C16   C     C_R   0.055057 0.945647 0.618421 -0.106712
C17   C     C_R   0.108147 0.467103 0.593832 0.387692
C18   C     C_R   0.389009 0.533294 0.093309 0.387613
C19   C     C_R   0.610067 0.032919 0.406366 0.387652
C20   C     C_R   0.892148 0.967047 0.906351 0.387287
C21   C     C_R   0.095394 0.391750 0.630562 0.420858
C22   C     C_R   0.402424 0.608562 0.129750 0.429804
C23   C     C_R   0.598691 0.108298 0.369611 0.421085
C24   C     C_R   0.904995 0.891682 0.869609 0.419742
C25   C     C_R   0.050169 0.401465 0.690945 -0.301944
C26   C     C_R   0.450174 0.599496 0.189954 -0.308863
C27   C     C_R   0.553310 0.098744 0.309268 -0.301997
C28   C     C_R   0.949551 0.901412 0.809182 -0.301303
C29   C     C_R   0.007312 0.485369 0.715459 0.030536
C30   C     C_R   0.494492 0.515821 0.214501 0.030631
C31   C     C_R   0.508831 0.015019 0.284835 0.030189
C32   C     C_R   0.992129 0.985312 0.784686 0.030533
C33   C     C_R   0.989413 0.558720 0.675376 -0.019223
C34   C     C_R   0.512807 0.442406 0.174452 -0.013533
C35   C     C_R   0.489962 0.941751 0.324949 -0.019479
C36   C     C_R   0.010268 0.058638 0.824760 -0.019297
C37   C     C_R   0.967778 0.497547 0.777648 0.023496
C38   C     C_R   0.534536 0.503837 0.276652 0.024095
C39   C     C_R   0.468525 0.002985 0.222730 0.023813
C40   C     C_R   0.031711 0.997424 0.722534 0.023336
C41   C     C_R   0.874574 0.576709 0.794969 0.072666
C42   C     C_R   0.628922 0.424947 0.293813 0.074088
C43   C     C_R   0.373788 0.924191 0.205638 0.073442
C44   C     C_R   0.125791 0.076328 0.705282 0.074090
C45   C     C_R   0.846815 0.645615 0.754135 -0.174100
C46   C     C_R   0.657175 0.356049 0.253001 -0.176070
C47   C     C_R   0.345845 0.855299 0.246457 -0.174096
C48   C     C_R   0.153324 0.145325 0.746056 -0.174140
C49   C     C_R   0.911226 0.638449 0.696067 -0.146323
C50   C     C_R   0.592210 0.362927 0.195076 -0.144119
C51   C     C_R   0.410806 0.862253 0.304383 -0.144970
C52   C     C_R   0.088492 0.138320 0.804072 -0.146360
C53   C     C_R   0.016603 0.435274 0.823649 0.353660
C54   C     C_R   0.484697 0.565848 0.322804 0.353880
C55   C     C_R   0.517619 0.065074 0.176592 0.353047
C56   C     C_R   0.982501 0.935241 0.676524 0.352442
C57   C     C_R   0.843180 0.522141 0.895870 -0.253485
C58   C     C_R   0.660666 0.479701 0.394540 -0.249314
C59   C     C_R   0.339687 0.979443 0.105128 -0.248923
C60   C     C_R   0.159731 0.020881 0.604752 -0.249507
C61   C     C_R   0.048298 0.550220 0.615212 -0.249687
C62   C     C_R   0.451805 0.450336 0.114504 -0.252822
C63   C     C_R   0.548964 0.950043 0.385033 -0.249620
C64   C     C_R   0.951711 0.050141 0.884927 -0.249709
H5    H     H_    0.039748 0.341527 0.716953 0.196421
H6    H     H_    0.460460 0.659601 0.215818 0.196138
H7    H     H_    0.544131 0.158722 0.283252 0.196732
H8    H     H_    0.959997 0.841501 0.783122 0.195853
H9    H     H_    0.789780 0.531464 0.940425 0.132471
H10   H     H_    0.716254 0.471254 0.438750 0.134844
H11   H     H_    0.283061 0.971286 0.061036 0.135363
H12   H     H_    0.216239 0.028977 0.560579 0.135243
H13   H     H_    0.731255 0.645407 0.865961 0.176734
H14   H     H_    0.774546 0.356901 0.364446 0.173599
H15   H     H_    0.226905 0.856432 0.135159 0.173926
H16   H     H_    0.272142 0.144079 0.634564 0.174176
O21   O     O_3   0.134096 0.364560 0.813106 -0.584610
C65   C     C_3   0.317837 0.395176 0.817644 -0.247489
H17   H     H_    0.412346 0.337939 0.810717 0.159641
H18   H     H_    0.346823 0.422954 0.862672 0.147835
H19   H     H_    0.349623 0.445509 0.782743 0.145591
O22   O     O_3   0.366901 0.636427 0.312362 -0.584943
C66   C     C_3   0.183305 0.605577 0.316914 -0.247108
H20   H     H_    0.088530 0.662682 0.309973 0.159184
H21   H     H_    0.154138 0.577828 0.361953 0.151080
H22   H     H_    0.152064 0.555156 0.282036 0.146067
O23   O     O_3   0.636093 0.135431 0.186809 -0.584715
C67   C     C_3   0.819403 0.104152 0.182105 -0.244705
H23   H     H_    0.914687 0.161076 0.188834 0.159346
H24   H     H_    0.847846 0.076143 0.137080 0.150847
H25   H     H_    0.850657 0.053816 0.217034 0.145060
O24   O     O_3   0.864254 0.864852 0.687004 -0.584877
C68   C     C_3   0.680847 0.896035 0.682603 -0.245473
H26   H     H_    0.585739 0.839078 0.689538 0.159245
H27   H     H_    0.651978 0.923940 0.637609 0.150592
H28   H     H_    0.649785 0.946420 0.717557 0.145282
O25   O     O_3   0.184775 0.461112 0.537300 -0.546070
C69   C     C_3   0.059923 0.419543 0.497889 -0.197174
H29   H     H_    0.912372 0.426841 0.511303 0.094953
H30   H     H_    0.094937 0.347934 0.493479 0.179166
H31   H     H_    0.075816 0.450255 0.453226 0.137935
O26   O     O_3   0.300054 0.540464 0.038867 -0.537819
C70   C     C_3   0.431638 0.551884 0.993200 -0.210092
H32   H     H_    0.511336 0.489820 0.985730 0.119630
H33   H     H_    0.526288 0.608504 0.002191 0.136073
H34   H     H_    0.357395 0.566949 0.951173 0.152692
O27   O     O_3   0.686897 0.038562 0.462820 -0.545965
C71   C     C_3   0.563262 0.081065 0.502327 -0.197437
H35   H     H_    0.415513 0.074824 0.489062 0.095185
H36   H     H_    0.600369 0.152417 0.506676 0.178777
H37   H     H_    0.578250 0.050286 0.546990 0.137543
O28   O     O_3   0.815500 0.961156 0.962889 -0.546321
C72   C     C_3   0.939725 0.919027 0.002255 -0.194064
H38   H     H_    0.087357 0.925742 0.988831 0.095717
H39   H     H_    0.903588 0.847560 0.006619 0.180691
H40   H     H_    0.924342 0.949744 0.046942 0.136650
O29   O     O_3   0.132451 0.308519 0.607253 -0.551349
C73   C     C_3   0.964148 0.261382 0.601983 -0.299002
H41   H     H_    0.918215 0.235892 0.646042 0.155951
H42   H     H_    0.852227 0.302140 0.581535 0.131344
H43   H     H_    0.986387 0.203428 0.572228 0.184964
O30   O     O_3   0.363687 0.691311 0.106013 -0.544856
C74   C     C_3   0.531080 0.738983 0.099996 -0.271472
H44   H     H_    0.576365 0.765841 0.143723 0.148818
H45   H     H_    0.644087 0.698185 0.080102 0.125763
H46   H     H_    0.507736 0.796046 0.069589 0.185337
O31   O     O_3   0.637283 0.191378 0.392839 -0.551273
C75   C     C_3   0.469822 0.239277 0.398278 -0.298580
H47   H     H_    0.424307 0.264971 0.354262 0.156212
H48   H     H_    0.357176 0.199037 0.418824 0.131620
H49   H     H_    0.493106 0.297110 0.428024 0.184613
O32   O     O_3   0.869228 0.808404 0.892982 -0.552182
C76   C     C_3   0.038223 0.761704 0.898065 -0.292538
H50   H     H_    0.083732 0.736109 0.853975 0.153928
H51   H     H_    0.150010 0.802821 0.918224 0.135657
H52   H     H_    0.017217 0.703852 0.927979 0.187514
H53   H     H_    0.891915 0.694706 0.666753 0.161454
H54   H     H_    0.611672 0.306509 0.165882 0.162876
H55   H     H_    0.390976 0.806050 0.333709 0.161886
H56   H     H_    0.107842 0.194585 0.833377 0.161987

loop_
_geom_bond_atom_site_label_1
_geom_bond_atom_site_label_2
_ccdc_geom_bond_type
C30   C34   A    
O18   V4    S    
C69   H29   S    
C27   C31   A    
O19   V1    S    
O13   V1    S    
O3    C7    A    
C66   H20   S    
C14   C54   A    
C44   C48   A    
C70   H34   S    
O15   V3    S    
O29   C73   S    
O27   C71   S    
C35   C51   A    
C12   C60   A    
O1    C5    A    
C23   O31   S    
C1    C14   S    
C10   H14   S    
C9    H13   S    
C54   O22   S    
O9    V1    S    
C75   H47   S    
C18   O26   S    
C4    C15   S    
C11   H15   S    
C72   H39   S    
C5    C63   S    
O4    C8    A    
C37   C41   A    
C39   C43   A    
C65   H17   S    
C49   H53   S    
O23   C67   S    
O1    V3    S    
C15   C55   A    
C67   H23   S    
C68   H27   S    
O2    V4    S    
C10   C58   A    
C74   H46   S    
O3    V1    S    
C9    C57   A    
O22   C66   S    
C68   H28   S    
C31   C39   A    
C11   C59   A    
C1    O15   A    
C12   C44   A    
C33   C49   A    
C42   C46   A    
C74   H44   S    
C7    C61   S    
C41   C45   A    
C14   C58   A    
H3    C47   S    
O8    C4    A    
C17   C61   A    
C10   C42   A    
O5    V1    S    
C9    C41   A    
O11   C7    A    
C11   C43   A    
O12   C8    A    
H2    C46   S    
C2    C13   S    
C36   C52   A    
C35   C63   A    
O10   V2    S    
C71   H37   S    
C76   H51   S    
C33   C61   A    
C76   H50   S    
C73   H42   S    
C53   O21   S    
C50   H54   S    
O7    V3    S    
C20   O28   S    
C25   H5    S    
O8    V4    S    
C55   O23   S    
O28   C72   S    
C71   H36   S    
C72   H40   S    
C2    O16   A    
C25   C29   A    
C19   C23   A    
C69   H31   S    
C70   H33   S    
H4    C48   S    
C40   C44   A    
C40   C56   A    
O7    C3    A    
O2    C6    A    
C38   C54   A    
C73   H43   S    
C22   O30   S    
C37   C53   A    
C17   C21   A    
C56   O24   S    
C13   C53   A    
C26   C30   A    
C21   O29   S    
C3    C16   S    
C66   H21   S    
C22   C26   A    
C39   C55   A    
O11   V3    S    
C68   H26   S    
C60   H12   S    
O14   V2    S    
C27   H7    S    
O6    V2    S    
C20   C64   A    
O25   C69   S    
C36   C64   A    
C4    O14   A    
C70   H32   S    
C76   H52   S    
O24   C68   S    
C30   C38   A    
C73   H41   S    
O16   V4    S    
C28   H8    S    
H1    C45   S    
C3    O13   A    
C69   H30   S    
C19   O27   S    
C19   C63   A    
O17   V3    S    
C34   C50   A    
C75   H49   S    
C48   C52   A    
C29   C37   A    
C71   H35   S    
C16   C56   A    
C8    C62   S    
O6    C2    A    
C29   C33   A    
C18   C62   A    
O12   V4    S    
C13   C57   A    
O21   C65   S    
C18   C22   A    
C31   C35   A    
C67   H25   S    
C32   C36   A    
C12   H16   S    
C15   C59   A    
O32   C76   S    
O10   C6    A    
O20   V2    S    
O26   C70   S    
C72   H38   S    
O9    C5    A    
C43   C47   A    
C38   C42   A    
C65   H18   S    
C21   C25   A    
C34   C62   A    
C75   H48   S    
C67   H24   S    
C66   H22   S    
C23   C27   A    
C74   H45   S    
C58   H10   S    
C26   H6    S    
C57   H9    S    
C59   H11   S    
C28   C32   A    
C20   C24   A    
C32   C40   A    
C45   C49   A    
C46   C50   A    
C17   O25   S    
O31   C75   S    
C6    C64   S    
O30   C74   S    
O5    C1    A    
C51   H55   S    
C16   C60   A    
C47   C51   A    
C24   O32   S    
C52   H56   S    
O4    V2    S    
C24   C28   A    
C65   H19   S    
