data_mof_unit_31179.cif
_audit_creation_date              2012-12-11T15:56:55-0500
_audit_creation_method            fapswitch 2.2
_symmetry_space_group_name_H-M    P1
_symmetry_Int_Tables_number       1
_space_group_crystal_system       triclinic
_cell_length_a                    17.550606
_cell_length_b                    24.359509
_cell_length_c                    15.141119
_cell_angle_alpha                 90.006972
_cell_angle_beta                  126.561008
_cell_angle_gamma                 89.720551
_cell_volume                      5199.32548155

loop_
_atom_site_label
_atom_site_type_symbol
_atom_type_description
_atom_site_fract_x
_atom_site_fract_y
_atom_site_fract_z
_atom_type_partial_charge
C1    C     C_R   0.308618 0.124223 0.906036 -0.034231
C2    C     C_R   0.309739 0.874931 0.907164 -0.064000
C3    C     C_R   0.808618 0.624223 0.906036 -0.034232
C4    C     C_R   0.809739 0.374931 0.907164 -0.064001
C5    C     C_R   0.653915 0.150300 0.092904 -0.153870
C6    C     C_R   0.649059 0.847581 0.091994 -0.156803
C7    C     C_R   0.153915 0.650300 0.092904 -0.153872
C8    C     C_R   0.149059 0.347581 0.091994 -0.156803
C9    C     C_R   0.556061 0.847456 0.909502 -0.133859
C10   C     C_R   0.563308 0.150542 0.909679 -0.121502
C11   C     C_R   0.056061 0.347456 0.909502 -0.133857
C12   C     C_R   0.063308 0.650542 0.909679 -0.121504
C13   C     C_R   0.522634 0.998678 0.695940 -0.222787
C14   C     C_R   0.022634 0.498679 0.695940 -0.222793
C15   C     C_R   0.823898 0.999104 0.271492 0.027003
C16   C     C_R   0.323898 0.499104 0.271491 0.027001
C17   C     C_R   0.627464 0.180578 0.001849 0.088580
C18   C     C_R   0.617398 0.815896 0.000696 0.088969
C19   C     C_R   0.127464 0.680578 0.001849 0.088583
C20   C     C_R   0.117399 0.315896 0.000696 0.088968
C21   C     C_3   0.018442 0.959316 0.515711 -0.168998
C22   C     C_3   0.024827 0.048469 0.497661 -0.160504
C23   C     C_3   0.518444 0.459311 0.515704 -0.169004
C24   C     C_3   0.524823 0.548467 0.497667 -0.160503
C25   C     C_3   0.948395 0.007501 0.473203 -0.140167
C26   C     C_3   0.448394 0.507494 0.473203 -0.140158
C27   C     C_3   0.924102 0.998644 0.358644 0.186293
C28   C     C_3   0.424102 0.498644 0.358643 0.186293
C29   C     C_3   0.993555 0.950250 0.400414 -0.167784
C30   C     C_3   0.999742 0.039642 0.382106 -0.144936
C31   C     C_3   0.493558 0.450252 0.400406 -0.167787
C32   C     C_3   0.499740 0.539646 0.382111 -0.144938
C33   C     C_3   0.071785 0.991215 0.426337 -0.145948
C34   C     C_3   0.571786 0.491221 0.426336 -0.145942
C35   C     C_R   0.403212 0.875540 0.092184 -0.164958
C36   C     C_R   0.401300 0.124011 0.090816 -0.157745
C37   C     C_R   0.903212 0.375540 0.092184 -0.164957
C38   C     C_R   0.901300 0.624011 0.090817 -0.157746
C39   C     C_3   0.094306 0.000225 0.539757 0.197685
C40   C     C_3   0.594305 0.500225 0.539756 0.197683
C41   C     C_3   0.265248 0.815983 0.107255 -0.600015
C42   C     C_3   0.240120 0.174368 0.087294 -0.618651
C43   C     C_3   0.765249 0.315983 0.107255 -0.600015
C44   C     C_3   0.740121 0.674368 0.087295 -0.618652
C45   C     C_3   0.709552 0.266834 0.105813 0.616709
C46   C     C_3   0.693209 0.725994 0.095949 0.578641
C47   C     C_3   0.209552 0.766834 0.105813 0.616708
C48   C     C_3   0.193208 0.225993 0.095947 0.578644
C49   C     C_3   0.807839 0.261993 0.000066 0.470073
C50   C     C_3   0.810151 0.736514 0.017306 0.425989
C51   C     C_3   0.307840 0.761993 0.000068 0.470074
C52   C     C_3   0.310151 0.236514 0.017306 0.425992
C53   C     C_3   0.151665 0.819613 0.900913 0.518257
C54   C     C_3   0.154428 0.187309 0.882440 0.503267
C55   C     C_3   0.651664 0.319613 0.900914 0.518259
C56   C     C_3   0.654428 0.687309 0.882441 0.503265
C57   C     C_3   0.259546 0.816252 0.000721 0.046285
C58   C     C_3   0.254123 0.182370 0.995688 0.060313
C59   C     C_3   0.759546 0.316252 0.000720 0.046286
C60   C     C_3   0.754123 0.682370 0.995689 0.060313
C61   C     C_3   0.673149 0.230788 0.002372 0.112416
C62   C     C_3   0.663522 0.765726 0.999679 0.143502
C63   C     C_3   0.173149 0.730788 0.002372 0.112415
C64   C     C_3   0.163522 0.265726 0.999679 0.143502
C65   C     C_3   0.758271 0.211994 0.004705 -0.635372
C66   C     C_3   0.753323 0.785455 0.012772 -0.626105
C67   C     C_3   0.258271 0.711994 0.004705 -0.635372
C68   C     C_3   0.253324 0.285455 0.012774 -0.626105
C69   C     C_3   0.605391 0.265054 0.895484 -0.440217
C70   C     C_3   0.598877 0.734078 0.888955 -0.526089
C71   C     C_3   0.105391 0.765054 0.895484 -0.440219
C72   C     C_3   0.098878 0.234079 0.888954 -0.526086
C73   C     C_3   0.619623 0.045424 0.638876 0.460304
C74   C     C_3   0.594310 0.942856 0.616573 0.490074
C75   C     C_3   0.119622 0.545425 0.638875 0.460308
C76   C     C_3   0.094312 0.442857 0.616574 0.490075
C77   C     C_R   0.557065 0.045254 0.306877 -0.043412
C78   C     C_R   0.554879 0.954259 0.305675 -0.077147
C79   C     C_R   0.057065 0.545254 0.306876 -0.043413
C80   C     C_R   0.054879 0.454259 0.305675 -0.077149
C81   C     C_3   0.608206 0.053472 0.529094 -0.742633
C82   C     C_3   0.625400 0.951205 0.541206 -0.623208
C83   C     C_3   0.108204 0.553473 0.529092 -0.742630
C84   C     C_3   0.125401 0.451206 0.541207 -0.623208
C85   C     C_3   0.450968 0.008673 0.503219 -0.621361
C86   C     C_3   0.950968 0.508672 0.503219 -0.621357
C87   C     C_3   0.546886 0.998485 0.616967 0.090824
C88   C     C_3   0.046886 0.498486 0.616967 0.090828
C89   C     C_3   0.567153 0.999775 0.460595 0.112033
C90   C     C_3   0.067152 0.499775 0.460595 0.112031
C91   C     C_3   0.457663 0.994985 0.408305 1.167250
C92   C     C_3   0.957663 0.494984 0.408305 1.167247
C93   C     C_R   0.236584 0.954104 0.701126 -0.198816
C94   C     C_R   0.235414 0.046058 0.702194 -0.181422
C95   C     C_R   0.736584 0.454104 0.701126 -0.198813
C96   C     C_R   0.735413 0.546058 0.702194 -0.181423
C97   C     C_R   0.311751 0.137723 0.997187 0.107628
C98   C     C_R   0.314438 0.861217 0.999696 0.031558
C99   C     C_R   0.811751 0.637724 0.997188 0.107633
C100  C     C_R   0.814437 0.361217 0.999696 0.031556
C101  C     C_R   0.575243 0.999602 0.370146 0.083139
C102  C     C_R   0.075243 0.499603 0.370146 0.083141
C103  C     C_R   0.184878 0.000183 0.645600 0.048121
C104  C     C_R   0.684878 0.500182 0.645600 0.048121
C105  C     C_R   0.492023 0.044866 0.723113 0.570118
C106  C     C_R   0.499567 0.953095 0.732018 0.454222
C107  C     C_R   0.992023 0.544867 0.723112 0.570116
C108  C     C_R   0.999567 0.453095 0.732018 0.454225
C109  C     C_R   0.768851 0.953363 0.247620 -0.133877
C110  C     C_R   0.769180 0.045584 0.247473 -0.132340
C111  C     C_R   0.268851 0.453363 0.247620 -0.133879
C112  C     C_R   0.269180 0.545583 0.247473 -0.132336
H1    H     H_    0.253123 0.133261 0.821192 0.080116
H2    H     H_    0.254688 0.864977 0.822548 0.096951
H3    H     H_    0.753123 0.633261 0.821192 0.080116
H4    H     H_    0.754688 0.364977 0.822548 0.096953
H5    H     H_    0.027921 0.926781 0.572933 0.102948
H6    H     H_    0.039289 0.088723 0.538849 0.107249
H7    H     H_    0.527925 0.426773 0.572922 0.102950
H8    H     H_    0.539283 0.588718 0.538860 0.107251
H9    H     H_    0.978594 0.910285 0.357886 0.107873
H10   H     H_    0.988827 0.072101 0.324094 0.104646
H11   H     H_    0.478600 0.410289 0.357872 0.107875
H12   H     H_    0.488822 0.572109 0.324104 0.104646
H13   H     H_    0.125844 0.984687 0.411319 0.101209
H14   H     H_    0.625846 0.484698 0.411316 0.101210
H15   H     H_    0.339691 0.811920 0.181860 0.117281
H16   H     H_    0.308684 0.167130 0.168858 0.132924
H17   H     H_    0.839692 0.311919 0.181859 0.117281
H18   H     H_    0.808685 0.667130 0.168858 0.132925
H19   H     H_    0.237052 0.855188 0.114646 0.232327
H20   H     H_    0.195562 0.137595 0.068434 0.242845
H21   H     H_    0.737054 0.355188 0.114648 0.232326
H22   H     H_    0.695562 0.637596 0.068434 0.242845
H23   H     H_    0.760759 0.241698 0.180718 -0.026736
H24   H     H_    0.747557 0.747343 0.174632 -0.015900
H25   H     H_    0.260759 0.741698 0.180718 -0.026735
H26   H     H_    0.247555 0.247342 0.174632 -0.015902
H27   H     H_    0.882059 0.261226 0.077997 0.037169
H28   H     H_    0.877903 0.733949 0.102612 0.028798
H29   H     H_    0.382059 0.761226 0.078001 0.037167
H30   H     H_    0.377903 0.233948 0.102612 0.028798
H31   H     H_    0.809354 0.188022 0.081114 0.144254
H32   H     H_    0.799372 0.809960 0.089347 0.144092
H33   H     H_    0.309353 0.688022 0.081114 0.144255
H34   H     H_    0.299374 0.309958 0.089350 0.144090
H35   H     H_    0.140918 0.823773 0.820943 -0.002689
H36   H     H_    0.166011 0.199922 0.820621 0.047523
H37   H     H_    0.640917 0.323773 0.820943 -0.002688
H38   H     H_    0.666011 0.699923 0.820622 0.047525
H39   H     H_    0.433486 0.868285 0.177400 0.120565
H40   H     H_    0.430549 0.131998 0.175602 0.111056
H41   H     H_    0.933486 0.368285 0.177400 0.120565
H42   H     H_    0.930549 0.631999 0.175602 0.111054
H43   H     H_    0.036573 0.772456 0.881844 0.190488
H44   H     H_    0.035844 0.217977 0.880808 0.207938
H45   H     H_    0.536573 0.272456 0.881844 0.190487
H46   H     H_    0.535844 0.717975 0.880812 0.207940
H47   H     H_    0.589213 0.241930 0.822783 0.117353
H48   H     H_    0.573067 0.761195 0.817300 0.119627
H49   H     H_    0.089213 0.741930 0.822783 0.117354
H50   H     H_    0.073071 0.261196 0.817300 0.119628
H51   H     H_    0.734469 0.184108 0.934345 0.231691
H52   H     H_    0.732535 0.813040 0.942829 0.227449
H53   H     H_    0.234469 0.684109 0.934345 0.231690
H54   H     H_    0.232538 0.313041 0.942833 0.227448
H55   H     H_    0.692646 0.029002 0.699803 0.042707
H56   H     H_    0.657687 0.934221 0.702556 -0.027896
H57   H     H_    0.192645 0.529004 0.699802 0.042700
H58   H     H_    0.157689 0.434223 0.702558 -0.027897
H59   H     H_    0.677864 0.062596 0.546358 0.191414
H60   H     H_    0.702683 0.960183 0.591576 0.147162
H61   H     H_    0.177861 0.562598 0.546354 0.191414
H62   H     H_    0.202684 0.460185 0.591577 0.147163
H63   H     H_    0.557778 0.086850 0.477838 0.201826
H64   H     H_    0.616374 0.912496 0.497856 0.201623
H65   H     H_    0.057773 0.586850 0.477835 0.201826
H66   H     H_    0.116377 0.412497 0.497858 0.201622
H67   H     H_    0.435422 0.052868 0.500320 0.194724
H68   H     H_    0.392114 0.986251 0.494305 0.153253
H69   H     H_    0.935420 0.552867 0.500319 0.194724
H70   H     H_    0.892114 0.486251 0.494305 0.153251
H71   H     H_    0.569775 0.087728 0.332382 0.081085
H72   H     H_    0.565363 0.911508 0.329034 0.089603
H73   H     H_    0.069775 0.587728 0.332382 0.081084
H74   H     H_    0.065362 0.411508 0.329035 0.089605
H75   H     H_    0.220642 0.912366 0.671700 0.116064
H76   H     H_    0.218132 0.087885 0.673821 0.101400
H77   H     H_    0.720643 0.412365 0.671700 0.116062
H78   H     H_    0.718131 0.587884 0.673821 0.101400
H79   H     H_    0.791991 0.911016 0.264608 0.094523
H80   H     H_    0.793407 0.087539 0.265649 0.100387
H81   H     H_    0.291991 0.411016 0.264607 0.094525
H82   H     H_    0.293407 0.587539 0.265648 0.100386
H83   H     H_    0.696686 0.163125 0.177725 0.084741
H84   H     H_    0.692601 0.834250 0.176829 0.084928
H85   H     H_    0.196686 0.663125 0.177725 0.084742
H86   H     H_    0.192602 0.334250 0.176829 0.084927
H87   H     H_    0.510178 0.834164 0.825529 0.141113
H88   H     H_    0.523764 0.163819 0.825606 0.121496
H89   H     H_    0.010178 0.334164 0.825529 0.141113
H90   H     H_    0.023763 0.663819 0.825606 0.121497
H91   H     H_    0.895841 0.013461 0.490685 0.113420
H92   H     H_    0.395840 0.513449 0.490685 0.113414
N1    N     N_R   0.392450 0.103580 0.942190 -0.053806
N2    N     N_R   0.392450 0.896420 0.942190 -0.045953
N3    N     N_R   0.892450 0.603580 0.942190 -0.053807
N4    N     N_R   0.892450 0.396420 0.942190 -0.045953
N5    N     N_R   0.450490 0.896000 0.057360 -0.042294
N6    N     N_R   0.450490 0.104000 0.057360 -0.046177
N7    N     N_R   0.950490 0.396000 0.057360 -0.042293
N8    N     N_R   0.950490 0.604000 0.057360 -0.046177
N9    N     N_R   0.525490 0.028390 0.207550 -0.039729
N10   N     N_R   0.525490 0.971610 0.207550 -0.044491
N11   N     N_R   0.025490 0.528390 0.207550 -0.039729
N12   N     N_R   0.025490 0.471610 0.207550 -0.044490
N13   N     N_R   0.317450 0.971190 0.792000 -0.034004
N14   N     N_R   0.317450 0.028810 0.792000 -0.042605
N15   N     N_R   0.817450 0.471190 0.792000 -0.034004
N16   N     N_R   0.817450 0.528810 0.792000 -0.042605
N17   N     N_R   0.473900 0.028390 0.792280 -0.152540
N18   N     N_R   0.473900 0.971610 0.792280 -0.129640
N19   N     N_R   0.973900 0.528390 0.792280 -0.152540
N20   N     N_R   0.973900 0.471610 0.792280 -0.129640
N21   N     N_R   0.682310 0.971180 0.208170 -0.044537
N22   N     N_R   0.682310 0.028820 0.208170 -0.044530
N23   N     N_R   0.182310 0.471180 0.208170 -0.044537
N24   N     N_R   0.182310 0.528820 0.208170 -0.044530
N25   N     N_R   0.606470 0.103570 0.057210 -0.038666
N26   N     N_R   0.606470 0.896430 0.057210 -0.040006
N27   N     N_R   0.106470 0.603570 0.057210 -0.038666
N28   N     N_R   0.106470 0.396430 0.057210 -0.040006
N29   N     N_R   0.549740 0.896000 0.943240 -0.039612
N30   N     N_R   0.549740 0.104000 0.943240 -0.048037
N31   N     N_R   0.049740 0.396000 0.943240 -0.039612
N32   N     N_R   0.049740 0.604000 0.943240 -0.048037
Ni1   Ni    Ni4+2 0.433780 0.065390 0.868430 0.194327
Ni2   Ni    Ni4+2 0.433780 0.934610 0.868430 0.202721
Ni3   Ni    Ni4+2 0.933780 0.565390 0.868430 0.194327
Ni4   Ni    Ni4+2 0.933780 0.434610 0.868430 0.202722
Ni5   Ni    Ni4+2 0.565800 0.934190 0.131570 0.200500
Ni6   Ni    Ni4+2 0.565800 0.065810 0.131570 0.203080
Ni7   Ni    Ni4+2 0.065800 0.434190 0.131570 0.200500
Ni8   Ni    Ni4+2 0.065800 0.565810 0.131570 0.203080
O1    O     O_3   0.131571 0.785800 0.103034 -0.599000
C113  C     C_3   0.156461 0.789124 0.210374 -0.344462
H93   H     H_    0.222932 0.812606 0.266369 0.140039
H94   H     H_    0.163637 0.747385 0.244267 0.143989
H95   H     H_    0.098980 0.810886 0.206697 0.173063
O2    O     O_3   0.112260 0.211136 0.090150 -0.622858
C114  C     C_3   0.138023 0.198833 0.195826 -0.321674
H96   H     H_    0.162566 0.236337 0.247641 0.138674
H97   H     H_    0.193340 0.166115 0.236928 0.151805
H98   H     H_    0.074515 0.183536 0.187311 0.174444
O3    O     O_3   0.631571 0.285800 0.103033 -0.598999
C115  C     C_3   0.656461 0.289124 0.210373 -0.344461
H99   H     H_    0.722932 0.312605 0.266370 0.140039
H100  H     H_    0.663635 0.247385 0.244265 0.143990
H101  H     H_    0.598980 0.310886 0.206695 0.173063
O4    O     O_3   0.612263 0.711136 0.090154 -0.622861
C116  C     C_3   0.638027 0.698833 0.195831 -0.321675
H102  H     H_    0.662571 0.736337 0.247646 0.138674
H103  H     H_    0.693345 0.666115 0.236932 0.151806
H104  H     H_    0.574520 0.683536 0.187318 0.174445
O5    O     O_3   0.104321 0.862017 0.916012 -0.642368
C117  C     C_3   0.104790 0.913563 0.873242 0.199316
H105  H     H_    0.029826 0.926863 0.812943 0.115111
H106  H     H_    0.137030 0.913457 0.828553 0.061390
C118  C     C_3   0.155575 0.955279 0.967073 -0.334084
H107  H     H_    0.124118 0.954642 0.012680 0.208748
H108  H     H_    0.231692 0.944363 0.025418 0.207103
C119  C     C_3   0.147787 0.013131 0.924594 -0.908490
H109  H     H_    0.175111 0.014571 0.874643 0.266172
H110  H     H_    0.190222 0.041556 0.995126 0.278008
H111  H     H_    0.072535 0.026707 0.874188 0.265557
O6    O     O_3   0.104377 0.136950 0.854773 -0.662201
C120  C     C_3   0.045984 0.126906 0.739720 0.178297
H112  H     H_    0.037146 0.081840 0.727704 0.138530
H113  H     H_    0.078384 0.139824 0.698517 0.063351
C121  C     C_3   0.947722 0.153046 0.683692 -0.307941
H114  H     H_    0.921132 0.143366 0.732559 0.217267
H115  H     H_    0.952717 0.198266 0.679983 0.184828
C122  C     C_3   0.876890 0.131913 0.566799 -1.026844
H116  H     H_    0.903261 0.139322 0.516962 0.267939
H117  H     H_    0.808067 0.153714 0.527432 0.275994
H118  H     H_    0.864788 0.087373 0.568336 0.259078
O7    O     O_3   0.604321 0.362017 0.916013 -0.642367
C123  C     C_3   0.604790 0.413563 0.873242 0.199314
H119  H     H_    0.529826 0.426863 0.812944 0.115111
H120  H     H_    0.637029 0.413457 0.828554 0.061391
C124  C     C_3   0.655574 0.455279 0.967074 -0.334083
H121  H     H_    0.624118 0.454642 0.012681 0.208748
H122  H     H_    0.731692 0.444363 0.025419 0.207103
C125  C     C_3   0.647786 0.513131 0.924595 -0.908488
H123  H     H_    0.675111 0.514571 0.874644 0.266172
H124  H     H_    0.690222 0.541556 0.995127 0.278008
H125  H     H_    0.572535 0.526707 0.874188 0.265557
O8    O     O_3   0.604379 0.636949 0.854773 -0.662202
C126  C     C_3   0.545987 0.626905 0.739721 0.178288
H126  H     H_    0.537154 0.581840 0.727705 0.138528
H127  H     H_    0.578386 0.639826 0.698517 0.063353
C127  C     C_3   0.447723 0.653042 0.683693 -0.307930
H128  H     H_    0.421133 0.643357 0.732558 0.217267
H129  H     H_    0.452714 0.698262 0.679987 0.184829
C128  C     C_3   0.376894 0.631911 0.566798 -1.026842
H130  H     H_    0.403262 0.639327 0.516961 0.267939
H131  H     H_    0.308067 0.653707 0.527434 0.275992
H132  H     H_    0.364799 0.587368 0.568332 0.259078
O9    O     O_3   0.804386 0.259168 0.903928 -0.636463
C129  C     C_3   0.895512 0.248704 0.931779 -0.202088
H133  H     H_    0.919297 0.206445 0.965305 0.175646
H134  H     H_    0.948140 0.279425 0.991039 0.167102
H135  H     H_    0.892358 0.252359 0.856881 0.156642
O10   O     O_3   0.825557 0.743507 0.935820 -0.645839
C130  C     C_3   0.916016 0.765433 0.982204 -0.143212
H136  H     H_    0.971778 0.734460 0.036333 0.167135
H137  H     H_    0.927434 0.803953 0.028058 0.139516
H138  H     H_    0.921301 0.775593 0.914753 0.169999
O11   O     O_3   0.304389 0.759168 0.903932 -0.636465
C131  C     C_3   0.395516 0.748705 0.931786 -0.202075
H139  H     H_    0.419301 0.706445 0.965307 0.175648
H140  H     H_    0.448144 0.779425 0.991050 0.167098
H141  H     H_    0.392366 0.752364 0.856891 0.156639
O12   O     O_3   0.325557 0.243507 0.935820 -0.645838
C132  C     C_3   0.416015 0.265432 0.982203 -0.143216
H142  H     H_    0.471777 0.234460 0.036331 0.167135
H143  H     H_    0.427434 0.303953 0.028057 0.139517
H144  H     H_    0.421300 0.275592 0.914751 0.169999
O13   O     O_3   0.615813 0.092747 0.691667 -0.627355
C133  C     C_3   0.627998 0.144857 0.660520 0.335243
H145  H     H_    0.610976 0.175802 0.700406 0.115458
H146  H     H_    0.575020 0.153638 0.571885 0.073069
C134  C     C_3   0.730393 0.155579 0.702251 -0.361152
H147  H     H_    0.775975 0.159526 0.793116 0.220689
H148  H     H_    0.759307 0.121313 0.682410 0.196002
C135  C     C_3   0.734845 0.208205 0.650842 -0.996967
H149  H     H_    0.690619 0.204070 0.559973 0.253714
H150  H     H_    0.808679 0.216372 0.680977 0.266626
H151  H     H_    0.708915 0.243698 0.672413 0.287349
O14   O     O_3   0.530065 0.898425 0.573406 -0.589341
C136  C     C_3   0.577529 0.846994 0.610553 0.298781
H152  H     H_    0.592080 0.836537 0.690813 0.123331
H153  H     H_    0.646364 0.846538 0.621852 0.048154
C137  C     C_3   0.513120 0.803433 0.525581 -0.264146
H154  H     H_    0.443900 0.803335 0.512902 0.201244
H155  H     H_    0.499723 0.813648 0.445832 0.201324
C138  C     C_3   0.557524 0.746328 0.562068 -1.086133
H156  H     H_    0.626280 0.745046 0.573736 0.276892
H157  H     H_    0.509073 0.715759 0.498623 0.274141
H158  H     H_    0.569236 0.735233 0.640261 0.266886
O15   O     O_3   0.115807 0.592749 0.691660 -0.627349
C139  C     C_3   0.128002 0.644858 0.660520 0.335229
H159  H     H_    0.110980 0.675805 0.700403 0.115460
H160  H     H_    0.075030 0.653641 0.571884 0.073069
C140  C     C_3   0.230400 0.655576 0.702260 -0.361157
H161  H     H_    0.275979 0.659521 0.793124 0.220688
H162  H     H_    0.259313 0.621309 0.682418 0.195998
C141  C     C_3   0.234862 0.708203 0.650858 -0.996955
H163  H     H_    0.190640 0.704069 0.559989 0.253714
H164  H     H_    0.308699 0.716367 0.680999 0.266620
H165  H     H_    0.208931 0.743696 0.672427 0.287349
O16   O     O_3   0.030068 0.398425 0.573409 -0.589339
C142  C     C_3   0.077534 0.346994 0.610557 0.298777
H166  H     H_    0.092083 0.336537 0.690816 0.123332
H167  H     H_    0.146370 0.346540 0.621859 0.048154
C143  C     C_3   0.013128 0.303434 0.525584 -0.264149
H168  H     H_    0.943907 0.303335 0.512903 0.201245
H169  H     H_    0.999732 0.313649 0.445836 0.201326
C144  C     C_3   0.057533 0.246329 0.562071 -1.086130
H170  H     H_    0.126291 0.245048 0.573744 0.276892
H171  H     H_    0.009084 0.215760 0.498624 0.274141
H172  H     H_    0.069242 0.235233 0.640262 0.266886
O17   O     O_3   0.405385 0.031474 0.314868 -0.649131
C145  C     C_3   0.323697 0.057397 0.293888 -0.418927
H173  H     H_    0.342713 0.098746 0.331906 0.163037
H174  H     H_    0.287474 0.033784 0.321307 0.141511
H175  H     H_    0.271655 0.063111 0.203867 0.200879
O18   O     O_3   0.432153 0.939237 0.374448 -0.622557
C146  C     C_3   0.333787 0.929692 0.303614 -0.218701
H176  H     H_    0.301515 0.948323 0.221538 0.173082
H177  H     H_    0.296598 0.942806 0.338810 0.101493
H178  H     H_    0.323867 0.884834 0.292811 0.145773
O19   O     O_3   0.905384 0.531472 0.314867 -0.649131
C147  C     C_3   0.823696 0.557395 0.293886 -0.418927
H179  H     H_    0.842711 0.598744 0.331905 0.163037
H180  H     H_    0.787473 0.533782 0.321306 0.141512
H181  H     H_    0.771653 0.563109 0.203866 0.200880
O20   O     O_3   0.932155 0.439236 0.374450 -0.622557
C148  C     C_3   0.833789 0.429690 0.303616 -0.218701
H182  H     H_    0.801517 0.448320 0.221539 0.173082
H183  H     H_    0.796599 0.442804 0.338811 0.101494
H184  H     H_    0.823870 0.384832 0.292815 0.145773
O21   O     O_3   0.466367 0.095512 0.669705 -0.641844
C149  C     C_3   0.380204 0.117165 0.644050 0.153000
H185  H     H_    0.383896 0.162446 0.638660 0.127272
H186  H     H_    0.370502 0.110141 0.709042 0.087818
C150  C     C_3   0.294653 0.096582 0.531927 -0.315741
H187  H     H_    0.312682 0.095292 0.473382 0.201400
H188  H     H_    0.276071 0.054426 0.540760 0.182537
C151  C     C_3   0.208648 0.134702 0.481492 -1.029889
H189  H     H_    0.189000 0.141233 0.537926 0.267695
H190  H     H_    0.147337 0.116591 0.403892 0.266107
H191  H     H_    0.224190 0.175206 0.461953 0.260000
O22   O     O_3   0.473903 0.901423 0.686663 -0.651922
C152  C     C_3   0.374679 0.899544 0.602039 0.245685
H192  H     H_    0.363177 0.898490 0.521663 0.155901
H193  H     H_    0.333688 0.935384 0.600135 0.053220
C153  C     C_3   0.333201 0.847036 0.612349 -0.314492
H194  H     H_    0.375118 0.810907 0.618574 0.200117
H195  H     H_    0.337016 0.848778 0.688223 0.192594
C154  C     C_3   0.230018 0.840014 0.512579 -1.070756
H196  H     H_    0.186891 0.876394 0.501996 0.269170
H197  H     H_    0.199526 0.803267 0.523576 0.284755
H198  H     H_    0.225861 0.834614 0.437005 0.262752
O23   O     O_3   0.966365 0.595512 0.669705 -0.641837
C155  C     C_3   0.880202 0.617164 0.644050 0.153008
H199  H     H_    0.883894 0.662445 0.638661 0.127271
H200  H     H_    0.870500 0.610140 0.709041 0.087815
C156  C     C_3   0.794652 0.596581 0.531926 -0.315741
H201  H     H_    0.812681 0.595292 0.473382 0.201402
H202  H     H_    0.776071 0.554425 0.540759 0.182535
C157  C     C_3   0.708646 0.634702 0.481490 -1.029898
H203  H     H_    0.688997 0.641231 0.537924 0.267697
H204  H     H_    0.647336 0.616591 0.403889 0.266107
H205  H     H_    0.724189 0.675206 0.461953 0.260002
O24   O     O_3   0.973904 0.401423 0.686663 -0.651921
C158  C     C_3   0.874680 0.399544 0.602038 0.245682
H206  H     H_    0.863179 0.398491 0.521662 0.155904
H207  H     H_    0.833689 0.435384 0.600134 0.053222
C159  C     C_3   0.833201 0.347036 0.612345 -0.314494
H208  H     H_    0.875118 0.310908 0.618569 0.200116
H209  H     H_    0.837016 0.348776 0.688219 0.192597
C160  C     C_3   0.730018 0.340015 0.512575 -1.070773
H210  H     H_    0.686891 0.376393 0.501996 0.269174
H211  H     H_    0.699527 0.303266 0.523568 0.284761
H212  H     H_    0.725860 0.334618 0.437001 0.262754

loop_
_geom_bond_atom_site_label_1
_geom_bond_atom_site_label_2
_ccdc_geom_bond_type
C158  H206  S    
C112  N24   A    
C55   C59   S    
C154  H197  S    
C15   C109  A    
C77   C101  A    
N19   N20   A    
C64   C72   S    
C42   C58   S    
C6    H84   S    
C80   N12   A    
C134  H147  S    
C46   C62   S    
C150  H188  S    
C108  N20   A    
C86   C88   S    
C44   H18   S    
C115  H101  S    
C29   C33   S    
C62   C70   S    
C141  H165  S    
N25   N30   A    
C43   H21   S    
C37   N7    A    
C21   H5    S    
C17   C61   S    
C124  H121  S    
C19   C63   S    
C119  H109  S    
C75   H57   S    
C95   N15   A    
C79   C102  A    
C36   C97   A    
C51   C57   S    
C120  H113  S    
C42   H16   S    
C144  H172  S    
N12   Ni7   S    
C136  H153  S    
O1    C113  S    
C78   C101  A    
C78   N10   A    
C1    H1    S    
C73   C81   S    
C44   C46   S    
C4    N4    A    
C113  H94   S    
C11   N31   A    
C129  H134  S    
C11   C20   A    
C24   H8    S    
C133  H145  S    
C9    N29   A    
C131  H141  S    
C114  H96   S    
C156  C157  S    
O14   C136  S    
N6    Ni6   S    
C41   H19   S    
C135  H149  S    
O10   C130  S    
C96   N16   A    
C21   C29   S    
C91   O18   S    
N17   Ni1   S    
N30   Ni1   S    
C32   C34   S    
C7    H85   S    
N11   N12   A    
C24   C32   S    
C15   C27   S    
N23   N24   A    
N24   Ni8   S    
C160  H212  S    
C139  H159  S    
C50   C66   S    
C33   H13   S    
N2    Ni2   S    
O22   C152  S    
C76   H58   S    
C52   C58   S    
C45   O3    S    
C14   C107  A    
C63   C71   S    
C7    C19   A    
C118  H108  S    
C148  H182  S    
O8    C126  S    
O19   C147  S    
C53   C71   S    
C47   O1    S    
C68   H34   S    
C134  C135  S    
C22   H6    S    
C71   H49   S    
C89   C101  S    
C36   H40   S    
C13   C106  A    
C114  H98   S    
C147  H180  S    
C91   O17   S    
O21   C149  S    
C52   O12   S    
C48   H26   S    
C3    N3    A    
C155  H199  S    
C14   C88   S    
N19   Ni3   S    
C152  H192  S    
N25   Ni6   S    
C2    H2    S    
C119  H111  S    
C53   O5    S    
C77   H71   S    
C50   H28   S    
C81   H59   S    
C159  H209  S    
C149  H185  S    
C61   C65   S    
C66   H32   S    
C54   O6    S    
C80   H74   S    
C38   N8    A    
O18   C146  S    
C16   C111  A    
C123  H120  S    
C68   H54   S    
C72   H44   S    
C27   C29   S    
N28   Ni7   S    
N31   Ni4   S    
C41   H15   S    
C8    H86   S    
C156  H201  S    
C93   C103  A    
C158  H207  S    
N11   Ni8   S    
C82   C89   S    
C64   C68   S    
N9    Ni6   S    
C124  H122  S    
C24   C26   S    
C23   H7    S    
C116  H102  S    
N22   Ni6   S    
C40   C104  S    
O16   C142  S    
C139  C140  S    
C93   N13   A    
C96   H78   S    
C132  H143  S    
C145  H173  S    
C90   C102  S    
O20   C148  S    
C128  H131  S    
C22   C25   S    
C115  H100  S    
C67   H33   S    
C86   H69   S    
C69   H45   S    
C2    N2    A    
C12   H90   S    
C74   C87   S    
C89   C91   S    
C78   H72   S    
C43   C59   S    
C67   H53   S    
C120  H112  S    
C122  H118  S    
C59   C100  S    
C65   H51   S    
C84   C90   S    
C135  H151  S    
C55   H37   S    
C51   H29   S    
C44   H22   S    
C127  H129  S    
C45   H23   S    
C62   C66   S    
C66   H52   S    
C155  C156  S    
C30   H10   S    
C43   H17   S    
C121  H114  S    
C110  N22   A    
C152  C153  S    
N5    Ni5   S    
C18   C62   S    
C146  H178  S    
C51   C67   S    
N13   N14   A    
C80   C102  A    
C145  H175  S    
C131  H140  S    
N17   N18   A    
N20   Ni4   S    
C13   C87   S    
C55   O7    S    
C41   C47   S    
C31   C34   S    
C75   O15   S    
C42   C48   S    
C141  H164  S    
C43   C45   S    
C143  C144  S    
C112  H82   S    
N27   N32   A    
C117  H106  S    
C140  H162  S    
C49   H27   S    
C157  H203  S    
C142  C143  S    
C56   H38   S    
C106  O22   S    
C54   H36   S    
C21   C25   S    
C113  H93   S    
C130  H138  S    
C22   C30   S    
C82   H64   S    
C151  H189  S    
C25   H91   S    
C117  C118  S    
C116  H104  S    
C49   C59   S    
N32   Ni3   S    
C50   C60   S    
C55   C69   S    
C6    N26   A    
N27   Ni8   S    
C150  H187  S    
C138  H158  S    
N1    N6    A    
C85   H68   S    
C105  N17   A    
C22   C39   S    
C69   H47   S    
C70   H48   S    
C126  C127  S    
C3    C99   A    
C9    C18   A    
C137  H154  S    
C157  H205  S    
C119  H110  S    
C120  C121  S    
C122  H116  S    
C72   H50   S    
C74   O14   S    
C9    H87   S    
C144  H171  S    
C113  H95   S    
O12   C132  S    
C121  C122  S    
C73   H55   S    
C76   C84   S    
C74   H56   S    
C77   N9    A    
C146  H176  S    
C7    N27   A    
N9    N10   A    
C133  H146  S    
C81   H63   S    
C156  H202  S    
C47   C63   S    
C125  H123  S    
C65   H31   S    
C48   C64   S    
C5    C17   A    
O24   C158  S    
N21   Ni5   S    
C23   C40   S    
C23   C26   S    
C143  H168  S    
C73   C87   S    
C73   O13   S    
O15   C139  S    
C160  H211  S    
C133  C134  S    
C29   H9    S    
C107  O23   S    
C142  H166  S    
C86   H70   S    
C35   C98   A    
N3    Ni3   S    
C81   C89   S    
C14   C108  A    
C130  H136  S    
C118  H107  S    
C154  H198  S    
C46   O4    S    
C15   C110  A    
C35   H39   S    
C74   C82   S    
C151  H191  S    
C84   H62   S    
C134  H148  S    
C82   H60   S    
C10   N30   A    
C83   H65   S    
N7    Ni7   S    
C125  H125  S    
C13   C105  A    
C150  C151  S    
N15   N16   A    
C53   C57   S    
O4    C116  S    
O2    C114  S    
C136  H152  S    
C105  O21   S    
C56   C60   S    
C70   H46   S    
C155  H200  S    
N15   Ni4   S    
C26   H92   S    
C126  H126  S    
C123  C124  S    
C37   H41   S    
O7    C123  S    
C137  C138  S    
C28   C32   S    
C34   H14   S    
C71   H43   S    
C33   C39   S    
N1    Ni1   S    
C159  C160  S    
C149  H186  S    
C111  H81   S    
C135  H150  S    
C92   O20   S    
C94   C103  A    
C138  H156  S    
C16   C112  A    
C129  H133  S    
C4    H4    S    
C28   C31   S    
C94   H76   S    
C38   C99   A    
C149  C150  S    
C10   H88   S    
C39   C103  S    
C41   C57   S    
C3    H3    S    
C123  H119  S    
C75   C83   S    
C44   C60   S    
N4    N7    A    
C57   C98   S    
C12   C19   A    
C45   C61   S    
C132  H142  S    
C145  H174  S    
C114  H97   S    
O11   C131  S    
C153  H194  S    
C128  H130  S    
C118  C119  S    
C154  H196  S    
C148  H183  S    
C42   H20   S    
N14   Ni1   S    
C23   C31   S    
C129  H135  S    
C16   C28   S    
C122  H117  S    
O13   C133  S    
C32   H12   S    
C94   N14   A    
N29   Ni2   S    
C60   C99   S    
C147  H179  S    
N4    Ni4   S    
C85   C91   S    
O9    C129  S    
C127  C128  S    
C8    C20   A    
C49   C65   S    
N10   Ni5   S    
C34   C40   S    
C121  H115  S    
C152  H193  S    
N23   Ni7   S    
C139  H160  S    
C146  H177  S    
C10   C17   A    
C92   O19   S    
C53   H35   S    
N26   N29   A    
C11   H89   S    
C159  H208  S    
C76   O16   S    
C90   C92   S    
C140  H161  S    
N16   Ni3   S    
C1    N1    A    
O5    C117  S    
C76   C88   S    
C52   C68   S    
C5    H83   S    
C79   N11   A    
C83   H61   S    
C27   C30   S    
C157  H204  S    
C142  H167  S    
C58   C97   S    
C49   O9    S    
C107  N19   A    
C85   C87   S    
C6    C18   A    
C158  C159  S    
C63   C67   S    
C130  H137  S    
C148  H184  S    
C124  C125  S    
C151  H190  S    
C1    C97   A    
C116  H103  S    
C109  N21   A    
C56   O8    S    
N18   Ni2   S    
N28   N31   A    
C52   H30   S    
C20   C64   S    
C132  H144  S    
C108  O24   S    
C138  H157  S    
O23   C155  S    
C21   C39   S    
C153  C154  S    
C85   H67   S    
C128  H132  S    
C115  H99   S    
C47   H25   S    
N21   N22   A    
C54   C72   S    
O6    C120  S    
C84   H66   S    
C126  H127  S    
C93   H75   S    
C137  H155  S    
C56   C70   S    
C4    C100  A    
N3    N8    A    
C5    N25   A    
C38   H42   S    
O3    C115  S    
C147  H181  S    
C95   C104  A    
C144  H170  S    
C54   C58   S    
C136  C137  S    
C61   C69   S    
C12   N32   A    
C83   C90   S    
C127  H128  S    
C79   H73   S    
C30   C33   S    
C153  H195  S    
C25   C27   S    
C26   C28   S    
C111  N23   A    
C131  H139  S    
C96   C104  A    
C35   N5    A    
C31   H11   S    
N8    Ni8   S    
N26   Ni5   S    
C86   C92   S    
O17   C145  S    
C125  H124  S    
C8    N28   A    
N2    N5    A    
C106  N18   A    
C109  H79   S    
C110  H80   S    
C24   C40   S    
C37   C100  A    
C48   O2    S    
C141  H163  S    
C143  H169  S    
C117  H105  S    
C95   H77   S    
C46   H24   S    
C50   O10   S    
C75   C88   S    
C140  C141  S    
C51   O11   S    
C2    C98   A    
C160  H210  S    
N13   Ni2   S    
C36   N6    A    
