data_mof_unit_67502.cif
_audit_creation_date              2012-10-26T18:47:57-0400
_audit_creation_method            fapswitch 2.2
_symmetry_space_group_name_H-M    P1
_symmetry_Int_Tables_number       1
_space_group_crystal_system       triclinic
_cell_length_a                    15.886578
_cell_length_b                    8.852348
_cell_length_c                    7.657661
_cell_angle_alpha                 102.464508
_cell_angle_beta                  96.579986
_cell_angle_gamma                 92.376076
_cell_volume                      1042.17899671

loop_
_atom_site_label
_atom_site_type_symbol
_atom_type_description
_atom_site_fract_x
_atom_site_fract_y
_atom_site_fract_z
_atom_type_partial_charge
C1    C     C_R   0.495443 0.201205 0.454966 0.539621
C2    C     C_2   0.519327 0.964790 0.563130 0.015366
C3    C     C_R   0.340665 0.499743 0.497536 0.545660
C4    C     C_R   0.504395 0.798810 0.545038 0.548327
C5    C     C_R   0.658798 0.496651 0.501164 0.564151
C6    C     C_3   0.061381 0.415890 0.664526 0.220114
C7    C     C_3   0.029371 0.332775 0.322970 -0.054964
C8    C     C_3   0.930200 0.360058 0.299920 0.238562
C9    C     C_1   0.747538 0.484841 0.504690 0.096401
C10   C     C_3   0.081452 0.463521 0.483839 -0.100114
C11   C     C_2   0.920249 0.243441 0.657569 0.686895
C12   C     C_3   0.959181 0.402685 0.650543 -0.100398
C13   C     C_2   0.098966 0.533972 0.840648 0.682217
C14   C     C_2   0.906438 0.726909 0.370648 0.618404
C15   C     C_2   0.409549 0.957760 0.296470 0.566116
C16   C     C_2   0.590025 0.042459 0.703735 0.605962
C17   C     C_2   0.403995 0.369935 0.939636 0.803221
C18   C     C_3   0.178573 0.242667 0.695785 0.021301
C19   C     C_3   0.210532 0.146292 0.526849 -0.336256
C20   C     C_2   0.066976 0.292459 0.146603 0.617663
C21   C     C_2   0.877308 0.201848 0.250164 0.585642
C22   C     C_3   0.824639 0.430396 0.083597 0.046102
C23   C     C_3   0.913893 0.468272 0.487676 -0.115608
C24   C     C_3   0.806703 0.556157 0.980538 -0.330368
C25   C     C_2   0.104155 0.774023 0.546797 0.617821
C26   C     C_2   0.942030 0.741661 0.689764 0.544221
C27   C     C_3   0.953155 0.640670 0.504064 0.019783
C28   C     C_3   0.048190 0.625596 0.464686 -0.100024
C29   C     C_1   0.822470 0.475243 0.502974 0.058048
C30   C     C_1   0.174119 0.474083 0.477742 0.068491
C31   C     C_1   0.250289 0.488755 0.486003 0.097405
C32   C     C_2   0.480326 0.035273 0.436963 0.000302
Cu1   Cu    Cu3+1 0.509300 0.517380 0.684380 1.083714
Cu2   Cu    Cu3+1 0.490700 0.482620 0.315620 1.106354
H1    H     H_    0.939431 0.475935 0.771487 0.146601
H2    H     H_    0.352212 0.160908 0.799159 0.293584
H3    H     H_    0.191290 0.181338 0.806863 0.159086
H4    H     H_    0.218095 0.349770 0.738393 0.213273
H5    H     H_    0.272447 0.197425 0.505799 0.084398
H6    H     H_    0.223710 0.028401 0.542478 0.185372
H7    H     H_    0.165309 0.138153 0.403614 0.206951
H8    H     H_    0.069820 0.128809 0.917808 0.382618
H9    H     H_    0.831576 0.024771 0.051153 0.317726
H10   H     H_    0.780525 0.441691 0.184175 0.125144
H11   H     H_    0.805269 0.316459 0.993525 0.221109
H12   H     H_    0.571647 0.611330 0.047660 0.229482
H13   H     H_    0.771520 0.503805 0.847513 0.159545
H14   H     H_    0.766750 0.643431 0.051228 0.155173
H15   H     H_    0.866665 0.615159 0.964233 0.216437
H16   H     H_    0.198964 0.885737 0.735772 0.326187
H17   H     H_    0.859227 0.836426 0.853381 0.344069
H18   H     H_    0.033723 0.221225 0.365124 0.181264
H19   H     H_    0.049613 0.618078 0.318372 0.223490
H20   H     H_    0.919411 0.011758 0.590877 0.392473
H21   H     H_    0.200794 0.659833 0.994421 0.382109
H22   H     H_    0.912857 0.848173 0.177234 0.360975
H23   H     H_    0.354457 0.925069 0.039005 0.347854
H24   H     H_    0.644315 0.077295 0.961940 0.340019
N1    N     N_2   0.476670 0.456430 0.038530 -0.134238
N2    N     N_2   0.523330 0.543570 0.961470 -0.262308
O1    O     O_R   0.506050 0.286130 0.619770 -0.477802
O2    O     O_R   0.954712 0.106107 0.580407 -0.576353
O3    O     O_2   0.055148 0.577847 0.960750 -0.448127
O4    O     O_R   0.184652 0.586606 0.872379 -0.631736
O5    O     O_2   0.831129 0.749667 0.374656 -0.501255
O6    O     O_R   0.950077 0.788576 0.250382 -0.614709
O7    O     O_2   0.353521 0.876567 0.335338 -0.518765
O8    O     O_R   0.405725 0.982291 0.121436 -0.620122
O9    O     O_2   0.646531 0.122339 0.664435 -0.475305
O10   O     O_R   0.593152 0.019725 0.879432 -0.624687
O11   O     O_2   0.335034 0.422617 0.956434 -0.507286
O12   O     O_R   0.490330 0.256780 0.308370 -0.460109
O13   O     O_R   0.409627 0.216166 0.850750 -0.657791
O14   O     O_3   0.089957 0.263598 0.669571 -0.537048
O15   O     O_2   0.129046 0.366201 0.120315 -0.502740
O16   O     O_R   0.034900 0.158077 0.020484 -0.578241
O17   O     O_2   0.821426 0.172298 0.337338 -0.504842
O18   O     O_R   0.883016 0.101238 0.086076 -0.620604
O19   O     O_3   0.912537 0.438838 0.155390 -0.536686
O20   O     O_2   0.083130 0.894467 0.506900 -0.439360
O21   O     O_R   0.176027 0.777397 0.670793 -0.656711
O22   O     O_2   0.002109 0.800768 0.801139 -0.436550
O23   O     O_R   0.387300 0.514690 0.655770 -0.494769
O24   O     O_R   0.859821 0.771609 0.728713 -0.692175
O25   O     O_R   0.371580 0.485340 0.344370 -0.467676
O26   O     O_R   0.509670 0.743220 0.691630 -0.454860
O27   O     O_R   0.493950 0.713870 0.380230 -0.504000
O28   O     O_R   0.628420 0.514660 0.655630 -0.510881
O29   O     O_R   0.612700 0.485310 0.344230 -0.533715
O30   O     O_2   0.853083 0.234857 0.718581 -0.473624

loop_
_geom_bond_atom_site_label_1
_geom_bond_atom_site_label_2
_ccdc_geom_bond_type
C7    C10   S    
C17   O13   S    
C3    O25   A    
C25   O20   D    
C11   O2    S    
C7    C8    S    
C4    O27   A    
H9    O18   S    
C12   C23   S    
C26   C27   S    
C23   C29   S    
Cu1   O28   S    
C22   O19   S    
C18   O14   S    
C6    C12   S    
C30   C31   T    
C4    O26   A    
C8    C23   S    
C20   O16   S    
C2    C32   D    
C18   C19   S    
C5    O28   A    
C22   H10   S    
C21   O18   S    
C8    O19   S    
C23   C27   S    
C14   C27   S    
C2    C16   S    
C9    C29   T    
N1    N2    D    
C26   O22   D    
C25   O21   S    
C6    O14   S    
C1    O12   A    
C24   H14   S    
C15   C32   S    
C16   O10   S    
H2    O13   S    
H24   O10   S    
H20   O2    S    
C1    C32   S    
C20   O15   D    
C25   C28   S    
Cu2   O25   S    
C2    C4    S    
Cu1   O26   S    
C5    C9    S    
C10   C30   S    
C13   O3    D    
C11   C12   S    
C15   O7    D    
H21   O4    S    
C8    C21   S    
C14   O6    S    
C12   H1    S    
C3    C31   S    
Cu1   O23   S    
C19   H5    S    
C17   N1    S    
C17   O11   D    
Cu1   N2    S    
C3    O23   A    
Cu2   N1    S    
C22   C24   S    
H23   O8    S    
Cu2   O12   S    
C10   C28   S    
C24   H15   S    
C26   O24   S    
H12   N2    S    
C24   H13   S    
C18   H3    S    
C16   O9    D    
C1    O1    A    
C6    C10   S    
C28   H19   S    
H8    O16   S    
C7    H18   S    
C18   H4    S    
Cu2   O29   S    
C6    C13   S    
C11   O30   D    
C13   O4    S    
H22   O6    S    
C15   O8    S    
C14   O5    D    
Cu1   Cu2   S    
Cu2   O27   S    
C19   H6    S    
C22   H11   S    
Cu1   O1    S    
C7    C20   S    
C21   O17   D    
C27   C28   S    
H17   O24   S    
C5    O29   A    
C19   H7    S    
H16   O21   S    
