data_mof_unit_14055.cif
_audit_creation_date              2012-10-26T20:40:16-0400
_audit_creation_method            fapswitch 2.2
_symmetry_space_group_name_H-M    P1
_symmetry_Int_Tables_number       1
_space_group_crystal_system       triclinic
_cell_length_a                    15.060168
_cell_length_b                    10.743952
_cell_length_c                    9.660507
_cell_angle_alpha                 89.119381
_cell_angle_beta                  90.335538
_cell_angle_gamma                 93.369968
_cell_volume                      1560.21880715

loop_
_atom_site_label
_atom_site_type_symbol
_atom_type_description
_atom_site_fract_x
_atom_site_fract_y
_atom_site_fract_z
_atom_type_partial_charge
C1    C     C_R   0.498802 0.262858 0.500580 0.532984
C2    C     C_R   0.184637 0.460826 0.619213 -0.136704
C3    C     C_R   0.231770 0.496374 0.499007 -0.019090
C4    C     C_R   0.328843 0.498843 0.499655 0.525345
C5    C     C_R   0.185872 0.528668 0.378337 -0.132943
C6    C     C_R   0.335105 0.115494 0.561455 -0.087724
C7    C     C_R   0.258034 0.043703 0.596044 -0.106989
C8    C     C_R   0.258931 0.914187 0.601629 -0.120516
C9    C     C_R   0.336590 0.855775 0.570883 -0.104709
C10   C     C_R   0.415293 0.926828 0.535293 0.017655
C11   C     C_R   0.415006 0.058278 0.533604 0.017131
C12   C     C_R   0.907303 0.525520 0.379272 0.014708
C13   C     C_R   0.494364 0.128614 0.500554 0.018759
C14   C     C_R   0.570398 0.070660 0.460482 -0.136197
C15   C     C_R   0.569853 0.942113 0.457640 -0.122392
C16   C     C_R   0.498557 0.736931 0.499086 0.553945
C17   C     C_R   0.493840 0.870425 0.497497 0.022764
C18   C     C_R   0.591517 0.694170 0.142711 -0.068558
C19   C     C_R   0.607532 0.808812 0.077022 -0.175725
C20   C     C_R   0.596884 0.817564 0.934977 -0.142078
C21   C     C_R   0.586574 0.706986 0.860168 0.104625
C22   C     C_R   0.543739 0.598808 0.925243 0.118142
C23   C     C_R   0.952357 0.414350 0.742269 0.053104
C24   C     C_R   0.544537 0.596202 0.074106 0.141670
C25   C     C_R   0.459034 0.406909 0.076401 0.007102
C26   C     C_R   0.459065 0.405761 0.929596 0.163358
C27   C     C_R   0.670872 0.496555 0.500032 0.560057
C28   C     C_R   0.815155 0.528042 0.380502 -0.120783
C29   C     C_R   0.767432 0.489961 0.499000 -0.013312
C30   C     C_R   0.811754 0.444941 0.615594 -0.125809
C31   C     C_R   0.905015 0.449103 0.621086 -0.020653
C32   C     C_R   0.952686 0.488036 0.500061 0.039672
C33   C     C_2   0.664674 0.697460 0.771522 0.615031
C34   C     C_R   0.045398 0.417289 0.738823 -0.131373
C35   C     C_2   0.412618 0.297287 0.865839 0.595146
C36   C     C_2   0.909186 0.378309 0.876186 0.554801
C37   C     C_R   0.092020 0.455462 0.619424 -0.024063
C38   C     C_R   0.045896 0.489856 0.499151 0.058029
C39   C     C_R   0.093185 0.526777 0.377908 0.018484
C40   C     C_R   0.047152 0.561620 0.258485 -0.121238
C41   C     C_R   0.954731 0.561579 0.259372 -0.114116
Cu1   Cu    Cu3+1 0.499990 0.499990 0.640660 1.029186
Cu2   Cu    Cu3+1 0.500010 0.500010 0.359340 0.942218
H1    H     H_    0.780632 0.560717 0.289273 0.142563
H2    H     H_    0.620989 0.903713 0.884254 0.158378
H3    H     H_    0.772394 0.407938 0.701488 0.200783
H4    H     H_    0.082048 0.392085 0.831127 0.152640
H5    H     H_    0.219798 0.436576 0.712813 0.180229
H6    H     H_    0.222214 0.556971 0.285391 0.133817
H7    H     H_    0.082648 0.589785 0.164804 0.119266
H8    H     H_    0.920285 0.589891 0.166290 0.153350
H9    H     H_    0.630453 0.125382 0.431873 0.125822
H10   H     H_    0.790636 0.646123 0.764834 0.342809
H11   H     H_    0.404939 0.110391 0.844675 0.340987
H12   H     H_    0.331397 0.215635 0.555276 0.155292
H13   H     H_    0.910779 0.270015 0.048645 0.344603
H14   H     H_    0.197335 0.088736 0.617970 0.138121
H15   H     H_    0.198960 0.858667 0.628193 0.126085
H16   H     H_    0.334108 0.755077 0.573779 0.126701
H17   H     H_    0.629484 0.898184 0.426829 0.140173
H18   H     H_    0.424694 0.331368 0.133702 0.139570
H19   H     H_    0.617433 0.684602 0.245399 0.176997
H20   H     H_    0.635534 0.887860 0.134083 0.134695
N1    N     N_R   0.500860 0.501210 0.147910 -0.261849
N2    N     N_R   0.500890 0.501290 0.852040 -0.275415
O1    O     O_R   0.499990 0.319640 0.618810 -0.472510
O2    O     O_R   0.733934 0.627111 0.819014 -0.664250
O3    O     O_2   0.344046 0.309464 0.800706 -0.553040
O4    O     O_R   0.443984 0.178837 0.889166 -0.704232
O5    O     O_2   0.846498 0.433968 0.918350 -0.509389
O6    O     O_R   0.944059 0.284410 0.958327 -0.699038
O7    O     O_R   0.500000 0.319660 0.381240 -0.507963
O8    O     O_R   0.370250 0.499960 0.618800 -0.483293
O9    O     O_R   0.370260 0.499980 0.381230 -0.510131
O10   O     O_R   0.500000 0.680340 0.618760 -0.500410
O11   O     O_R   0.500010 0.680360 0.381190 -0.525291
O12   O     O_R   0.629740 0.500020 0.618770 -0.471190
O13   O     O_R   0.629750 0.500040 0.381200 -0.522635
O14   O     O_2   0.674585 0.763751 0.668066 -0.551188

loop_
_geom_bond_atom_site_label_1
_geom_bond_atom_site_label_2
_ccdc_geom_bond_type
C8    C9    A    
Cu2   O7    S    
C27   C29   S    
C34   C37   A    
C15   H17   S    
C19   C20   A    
C6    H12   S    
C27   O13   A    
C7    C8    A    
Cu2   O13   S    
Cu1   O10   S    
C37   C38   A    
C12   C28   A    
C18   C24   A    
C28   C29   A    
C38   C39   A    
C21   C33   S    
C10   C17   A    
C16   O10   A    
C18   C19   A    
C27   O12   A    
C8    H15   S    
C14   H9    S    
C19   H20   S    
C16   C17   S    
Cu1   N2    S    
C32   C38   A    
C29   C30   A    
C9    C10   A    
C4    O9    A    
C20   H2    S    
C36   O6    S    
C23   C34   A    
Cu2   O9    S    
C24   N1    A    
C13   C14   A    
C12   C32   A    
C5    H6    S    
C36   O5    D    
Cu2   N1    S    
C1    O7    A    
C39   C40   A    
C33   O14   D    
C2    H5    S    
C25   C26   A    
C28   H1    S    
C9    H16   S    
C25   N1    A    
C23   C31   A    
C22   N2    A    
C12   C41   A    
C31   C32   A    
H13   O6    S    
C1    O1    A    
C25   H18   S    
C4    O8    A    
C40   C41   A    
C5    C39   A    
C22   C24   A    
C1    C13   S    
Cu1   Cu2   S    
C3    C4    S    
C6    C11   A    
C33   O2    S    
Cu2   O11   S    
C15   C17   A    
Cu1   O8    S    
C16   O11   A    
C26   N2    A    
C30   H3    S    
C18   H19   S    
C3    C5    A    
C6    C7    A    
C2    C3    A    
C11   C13   A    
C2    C37   A    
C30   C31   A    
H11   O4    S    
C35   O3    D    
C40   H7    S    
C41   H8    S    
H10   O2    S    
C10   C11   A    
C26   C35   S    
C20   C21   A    
C35   O4    S    
Cu1   O12   S    
C23   C36   S    
Cu1   O1    S    
C14   C15   A    
C34   H4    S    
C21   C22   A    
C7    H14   S    
