data_mof_unit_14646.cif
_audit_creation_date              2013-03-05T15:40:18-0500
_audit_creation_method            fapswitch 2.2
_symmetry_space_group_name_H-M    P1
_symmetry_Int_Tables_number       1
_space_group_crystal_system       triclinic
_cell_length_a                    7.760533
_cell_length_b                    8.675145
_cell_length_c                    12.75722
_cell_angle_alpha                 90.287663
_cell_angle_beta                  87.048106
_cell_angle_gamma                 93.459334
_cell_volume                      856.159815937

loop_
_atom_site_label
_atom_site_type_symbol
_atom_site_description
_atom_site_fract_x
_atom_site_fract_y
_atom_site_fract_z
_atom_type_partial_charge
O1    O     O_R   0.609680 0.261530 0.506880 -0.579249
O2    O     O_R   0.390320 0.738470 0.493120 -0.579249
O3    O     O_R   0.323330 0.288220 0.488910 -0.590396
O4    O     O_R   0.676670 0.711780 0.511090 -0.590396
C1    C     C_R   0.455696 0.206066 0.496114 0.888706
C2    C     C_R   0.544304 0.793934 0.503886 0.888706
O5    O     O_R   0.619510 0.488830 0.661140 -0.595056
O6    O     O_R   0.380490 0.511170 0.338860 -0.595056
O7    O     O_R   0.333160 0.515520 0.643180 -0.624301
O8    O     O_R   0.666840 0.484480 0.356820 -0.624301
C3    C     C_R   0.463887 0.500234 0.699554 0.901631
C4    C     C_R   0.536113 0.499766 0.300446 0.901631
Zn1   Zn    Zn3+2 0.691200 0.482180 0.511990 1.062047
Zn2   Zn    Zn3+2 0.308800 0.517820 0.488010 1.062047
N1    N     N_2   0.054030 0.541640 0.471970 -0.139936
N2    N     N_2   0.945970 0.458360 0.528030 -0.139937
C5    C     C_R   0.560193 0.491779 0.189388 -0.083149
C6    C     C_R   0.439807 0.508220 0.810612 -0.083149
C7    C     C_R   0.386544 0.671532 0.959122 -0.146204
C8    C     C_R   0.613453 0.328466 0.040878 -0.146204
C9    C     C_R   0.372831 0.641037 0.853742 -0.206168
C10   C     C_R   0.627167 0.358962 0.146259 -0.206168
C11   C     C_R   0.510591 0.397630 0.872038 0.079853
C12   C     C_R   0.489408 0.602370 0.127962 0.079854
C13   C     C_R   0.530630 0.430243 0.978086 0.095139
C14   C     C_R   0.469368 0.569756 0.021914 0.095138
H1    H     H_    0.681516 0.274576 0.195428 0.196842
H2    H     H_    0.318482 0.725422 0.804572 0.196842
H3    H     H_    0.335227 0.776815 0.989311 0.193574
H4    H     H_    0.664769 0.223183 0.010690 0.193574
H5    H     H_    0.998999 0.615652 0.422401 0.229883
H6    H     H_    0.001001 0.384348 0.577599 0.229883
C15   C     C_2   0.430443 0.044352 0.501674 -0.000493
C16   C     C_2   0.569557 0.955647 0.498325 -0.000493
I1    I     I_    0.419442 0.817975 0.197908 -0.290207
I2    I     I_    0.580558 0.182025 0.802091 -0.290208
N3    N     N_R   0.254935 0.984222 0.519655 0.239338
O9    O     O_R   0.195421 0.948962 0.614270 -0.347001
O10   O     O_R   0.154106 0.969420 0.441458 -0.284850
N4    N     N_R   0.745065 0.015778 0.480344 0.239337
O11   O     O_R   0.804578 0.051040 0.385729 -0.347002
O12   O     O_R   0.845896 0.030577 0.558540 -0.284849

loop_
_geom_bond_atom_site_label_1
_geom_bond_atom_site_label_2
_geom_bond_distance
_ccdc_geom_bond_type
C4    C5    1.421385 S    
O7    Zn2   1.998525 S    
C3    C6    1.421385 S    
N1    H5    1.029326 S    
N3    O9    1.301168 A    
N2    H6    1.029324 S    
C6    C9    1.391728 A    
C5    C10   1.391728 A    
O6    C4    1.288988 A    
N4    O12   1.300355 A    
C15   C16   1.361879 D    
N3    O10   1.300355 A    
C8    H4    1.079666 S    
O5    C3    1.288989 A    
O7    C3    1.287001 A    
C1    C15   1.406389 S    
O2    C2    1.274851 A    
O3    Zn2   2.001909 S    
O8    C4    1.287001 A    
C16   N4    1.436367 S    
N4    O11   1.301165 A    
C7    C9    1.377099 A    
C9    H2    1.084618 S    
C8    C10   1.377099 A    
C10   H1    1.084619 S    
C11   C13   1.395363 A    
O2    Zn2   1.981259 S    
O1    C1    1.274852 A    
C12   I1    2.155311 S    
O1    Zn1   1.981259 S    
C8    C13   1.401067 A    
N1    N2    1.267668 D    
C5    C12   1.397050 A    
C2    C16   1.406390 S    
O5    Zn1   1.956276 S    
O4    C2    1.292406 A    
C11   I2    2.155310 S    
Zn1   N2    2.021164 S    
O4    Zn1   2.001907 S    
C7    C14   1.401066 A    
Zn2   N1    2.021161 S    
O6    Zn2   1.956276 S    
C13   C14   1.427839 A    
C15   N3    1.436368 S    
C6    C11   1.397048 A    
C12   C14   1.395363 A    
O3    C1    1.292405 A    
O8    Zn1   1.998524 S    
C7    H3    1.079665 S    
