data_mof_unit_21513.cif
_audit_creation_date              2012-12-11T14:17:32-0500
_audit_creation_method            fapswitch 2.2
_symmetry_space_group_name_H-M    P1
_symmetry_Int_Tables_number       1
_space_group_crystal_system       triclinic
_cell_length_a                    6.945156
_cell_length_b                    13.713975
_cell_length_c                    20.355696
_cell_angle_alpha                 102.006316
_cell_angle_beta                  89.283085
_cell_angle_gamma                 91.511326
_cell_volume                      1895.67208388

loop_
_atom_site_label
_atom_site_type_symbol
_atom_type_description
_atom_site_fract_x
_atom_site_fract_y
_atom_site_fract_z
_atom_type_partial_charge
O1    O     O_R   0.506860 0.599390 0.449240 -0.539410
O2    O     O_R   0.180220 0.594600 0.586780 -0.537562
O3    O     O_R   0.004500 0.400610 0.550760 -0.539482
C1    C     C_R   0.349297 0.617277 0.612981 0.741979
O4    O     O_R   0.177490 0.611290 0.451970 -0.533878
O5    O     O_R   0.001750 0.417420 0.414990 -0.557836
C2    C     C_R   0.349020 0.638545 0.435604 0.694908
O6    O     O_R   0.509610 0.582580 0.585010 -0.546355
O7    O     O_3   0.337420 0.436370 0.488020 -0.385070
V1    V     V_3+5 0.064680 0.511800 0.502220 1.437920
O8    O     O_R   0.671710 0.405400 0.413220 -0.524206
C3    C     C_R   0.839280 0.385894 0.385876 0.683408
O9    O     O_R   0.674440 0.388710 0.548030 -0.560744
C4    C     C_R   0.840397 0.361169 0.564272 0.797555
V2    V     V_3+5 0.564010 0.488200 0.497780 1.417515
O10   O     O_3   0.841140 0.563630 0.511980 -0.370957
C5    C     C_R   0.743133 0.117245 0.617261 -0.243933
H1    H     H_    0.731856 0.992636 0.700303 0.118176
H2    H     H_    0.693474 0.042259 0.594841 0.133656
C6    C     C_R   0.836155 0.283279 0.604218 -0.228912
C7    C     C_R   0.904436 0.313971 0.928450 -0.155540
C8    C     C_R   0.909753 0.389418 0.892418 -0.113225
C9    C     C_R   0.890267 0.366797 0.822876 -0.167343
C10   C     C_R   0.869512 0.266855 0.786896 0.096057
C11   C     C_R   0.850807 0.190627 0.824847 0.067896
C12   C     C_R   0.854276 0.240323 0.715148 -0.035168
C13   C     C_R   0.791454 0.141866 0.685241 0.032151
C14   C     C_R   0.773978 0.068595 0.723437 -0.159373
C15   C     C_R   0.808825 0.091804 0.791809 -0.197976
C16   C     C_R   0.898728 0.306748 0.671315 0.271235
C17   C     C_R   0.748117 0.189756 0.578359 0.339776
C18   C     C_R   0.871837 0.215096 0.895491 -0.081890
H3    H     H_    0.922151 0.332871 0.982474 0.111705
H4    H     H_    0.883335 0.429896 0.799407 0.184914
H5    H     H_    0.927543 0.466309 0.918617 0.178377
H6    H     H_    0.794564 0.031948 0.818939 0.114165
C19   C     C_2   0.999540 0.282825 0.286464 -0.224175
C20   C     C_2   0.837261 0.325403 0.316342 0.280507
H7    H     H_    0.135601 0.299467 0.312652 0.127673
C21   C     C_2   0.011481 0.219607 0.217256 -0.128371
C22   C     C_2   0.862396 0.166007 0.185009 -0.317779
H8    H     H_    0.150511 0.218406 0.192106 0.145160
H9    H     H_    0.726204 0.160384 0.210530 0.179612
C23   C     C_2   0.206631 0.795060 0.780842 -0.120807
C24   C     C_2   0.363649 0.816119 0.819751 -0.276510
H10   H     H_    0.070559 0.827808 0.799360 0.134003
H11   H     H_    0.500354 0.783536 0.802539 0.128040
C25   C     C_2   0.204546 0.727138 0.713165 -0.140922
C26   C     C_2   0.362061 0.687596 0.678923 -0.321101
H12   H     H_    0.063444 0.709046 0.690869 0.144784
H13   H     H_    0.505089 0.705572 0.699154 0.134309
C27   C     C_R   0.509177 0.874876 0.383109 -0.155329
H14   H     H_    0.518646 0.820936 0.474627 0.104122
H15   H     H_    0.593890 0.988182 0.295562 0.128633
H16   H     H_    0.594389 0.941261 0.403698 0.133834
C28   C     C_R   0.368182 0.717202 0.396707 -0.055064
C29   C     C_R   0.231721 0.699888 0.078641 0.332984
C30   C     C_R   0.137796 0.645012 0.120100 -0.183986
C31   C     C_R   0.153466 0.672531 0.189716 0.311196
C32   C     C_R   0.287137 0.749255 0.219253 -0.010366
C33   C     C_R   0.369216 0.811140 0.177163 -0.030118
C34   C     C_R   0.341284 0.767997 0.288517 0.118031
C35   C     C_R   0.450713 0.855742 0.315833 0.143543
C36   C     C_R   0.510483 0.921057 0.275002 -0.180005
C37   C     C_R   0.474903 0.897976 0.206519 -0.143111
C38   C     C_R   0.308804 0.697786 0.329790 -0.151539
C39   C     C_R   0.467380 0.806275 0.423374 -0.161387
C40   C     C_R   0.337299 0.787081 0.106797 -0.161127
H17   H     H_    0.255529 0.623383 0.309542 0.165901
H18   H     H_    0.040734 0.584177 0.098034 0.180632
H19   H     H_    0.533057 0.948718 0.176718 0.115437
O11   O     O_R   0.203230 0.917310 0.915020 -0.531875
O12   O     O_R   0.535500 0.888690 0.048040 -0.540041
O13   O     O_R   0.711080 0.082610 0.085000 -0.552384
C41   C     C_R   0.363775 0.863200 0.065798 0.790396
O14   O     O_R   0.532630 0.905370 0.913230 -0.548241
O15   O     O_R   0.708190 0.099410 0.949230 -0.543684
C42   C     C_R   0.364479 0.884390 0.886450 0.780754
O16   O     O_R   0.206120 0.900510 0.050790 -0.527332
O17   O     O_3   0.375360 0.063570 0.011990 -0.385091
V3    V     V_3+5 0.648170 0.988200 0.997780 1.456803
O18   O     O_R   0.038240 0.111390 0.951940 -0.545320
C43   C     C_R   0.871830 0.138075 0.935470 0.680857
O19   O     O_R   0.041120 0.094710 0.086750 -0.543654
C44   C     C_R   0.873164 0.110910 0.114745 0.717679
V4    V     V_3+5 0.148810 0.011930 0.002180 1.466020
O20   O     O_3   0.871750 0.936430 0.988010 -0.358069
O21   O     O_3   0.689404 0.164337 0.512148 -0.580635
C45   C     C_3   0.488909 0.178930 0.508102 0.114788
H20   H     H_    0.460402 0.187301 0.455977 0.152651
H21   H     H_    0.440302 0.248805 0.541826 0.109340
C46   C     C_3   0.368504 0.090303 0.522919 -0.392048
H22   H     H_    0.443332 0.019568 0.503827 0.210513
H23   H     H_    0.349701 0.099090 0.578130 0.184001
C47   C     C_3   0.170160 0.084094 0.490746 -0.752719
H24   H     H_    0.098094 0.156702 0.505633 0.236534
H25   H     H_    0.080097 0.025533 0.507426 0.238261
H26   H     H_    0.184007 0.064764 0.435144 0.231649
O22   O     O_3   0.658633 0.309980 0.285266 -0.574076
C48   C     C_3   0.648283 0.362287 0.232305 0.061670
H27   H     H_    0.553862 0.317545 0.192945 0.134945
H28   H     H_    0.789712 0.372161 0.207681 0.150194
C49   C     C_3   0.559700 0.464128 0.256406 -0.295106
H29   H     H_    0.419733 0.455821 0.282018 0.186310
H30   H     H_    0.658008 0.511800 0.292978 0.225201
C50   C     C_3   0.528193 0.513606 0.196856 -0.723134
H31   H     H_    0.652092 0.502304 0.161264 0.252346
H32   H     H_    0.514799 0.594705 0.215139 0.250405
H33   H     H_    0.395429 0.482532 0.169584 0.218923
Cl1   Cl    Cl    0.193887 0.664207 0.991297 -0.681539
Cl2   Cl    Cl    0.972691 0.621925 0.235210 -0.747436
O23   O     O_3   0.997683 0.395976 0.693263 -0.580450
C51   C     C_3   0.197076 0.378055 0.693940 0.072639
H34   H     H_    0.258242 0.376529 0.642978 0.138488
H35   H     H_    0.230301 0.306302 0.708718 0.111441
C52   C     C_3   0.293577 0.462454 0.744572 -0.300702
H36   H     H_    0.242744 0.535089 0.736986 0.221535
H37   H     H_    0.252671 0.455493 0.796356 0.212868
C53   C     C_3   0.511810 0.460074 0.737658 -0.801053
H38   H     H_    0.562269 0.387516 0.745645 0.232498
H39   H     H_    0.577830 0.521050 0.775873 0.240937
H40   H     H_    0.557651 0.470048 0.686982 0.234708

loop_
_geom_bond_atom_site_label_1
_geom_bond_atom_site_label_2
_ccdc_geom_bond_type
O12   C41   A    
C47   H24   S    
C1    O6    A    
C47   H26   S    
C6    C16   A    
C40   C41   S    
C8    H5    S    
C15   H6    S    
C12   C13   A    
C19   C20   D    
H15   C36   S    
O14   C42   A    
C14   C15   A    
O19   V4    S    
C19   C21   S    
O5    C3    A    
O17   V3    S    
C38   H17   S    
C7    H3    S    
C50   H31   S    
O15   C43   A    
V2    O10   S    
C52   H36   S    
C32   C34   A    
C24   H11   S    
C46   H22   S    
O17   V4    S    
O8    V2    S    
C29   Cl1   S    
C26   H13   S    
C31   Cl2   S    
C9    C10   A    
C24   C42   S    
O1    V2    S    
C45   H21   S    
O7    V1    S    
C27   H16   S    
C51   C52   S    
C11   C18   A    
C21   H8    S    
C31   C32   A    
C7    C8    A    
C22   H9    S    
C2    C28   S    
O12   V3    S    
O23   C51   S    
C23   H10   S    
C53   H39   S    
C11   C15   A    
C7    C18   A    
C34   C38   A    
C5    C13   A    
C4    C6    S    
H1    C14   S    
O19   C44   A    
O4    C2    A    
V4    O20   S    
C30   H18   S    
C30   C31   A    
C37   H19   S    
C48   C49   S    
C16   O23   S    
C32   C33   A    
O2    C1    A    
C34   C35   A    
O22   C48   S    
O15   V3    S    
C53   H38   S    
C9    H4    S    
C46   H23   S    
C49   H30   S    
C10   C11   A    
C45   C46   S    
C27   C39   A    
V3    O20   S    
O3    C4    A    
C21   C22   D    
C48   H28   S    
C12   C16   A    
O6    V2    S    
O9    V2    S    
C5    C17   A    
C29   C40   A    
O2    V1    S    
C49   H29   S    
C23   C24   D    
C51   H34   S    
C53   H40   S    
C18   C43   S    
C25   C26   D    
C17   O21   S    
O1    C2    A    
C10   C12   A    
C20   O22   S    
C27   C35   A    
O14   V3    S    
O5    V1    S    
O11   V4    S    
O8    C3    A    
C47   H25   S    
C28   C39   A    
C22   C44   S    
C52   C53   S    
C1    C26   S    
C36   C37   A    
O7    V2    S    
O4    V1    S    
C19   H7    S    
O3    V1    S    
V1    O10   S    
O18   V4    S    
C33   C40   A    
C29   C30   A    
C50   H32   S    
C28   C38   A    
C25   H12   S    
C48   H27   S    
C5    H2    S    
C52   H37   S    
C49   C50   S    
C46   C47   S    
O13   C44   A    
C3    C20   S    
H14   C39   S    
C35   C36   A    
C33   C37   A    
O21   C45   S    
O18   C43   A    
O11   C42   A    
C13   C14   A    
C8    C9    A    
O13   V3    S    
C45   H20   S    
O9    C4    A    
C41   O16   A    
C6    C17   A    
O16   V4    S    
C23   C25   S    
C51   H35   S    
C50   H33   S    
