data_mof_unit_20670.cif
_audit_creation_date              2012-12-10T19:16:03-0500
_audit_creation_method            fapswitch 2.2
_symmetry_space_group_name_H-M    P1
_symmetry_Int_Tables_number       1
_space_group_crystal_system       triclinic
_cell_length_a                    14.756231
_cell_length_b                    15.814459
_cell_length_c                    16.000035
_cell_angle_alpha                 90.018218
_cell_angle_beta                  90.013733
_cell_angle_gamma                 69.638465
_cell_volume                      3500.49355189

loop_
_atom_site_label
_atom_site_type_symbol
_atom_type_description
_atom_site_fract_x
_atom_site_fract_y
_atom_site_fract_z
_atom_type_partial_charge
C1    C     C_R   0.499963 0.500042 0.340863 0.773856
C2    C     C_R   0.499960 0.500338 0.087340 -0.326956
C3    C     C_R   0.413204 0.516294 0.956439 0.502067
C4    C     C_R   0.586665 0.484357 0.043686 0.486567
C5    C     C_1   0.499951 0.500107 0.823259 0.229184
C6    C     C_1   0.499961 0.500258 0.176834 0.202431
C7    C     C_1   0.499927 0.500164 0.251833 -0.161730
C8    C     C_1   0.500001 0.500034 0.748236 -0.117338
C9    C     C_R   0.929376 0.560827 0.550044 0.466836
C10   C     C_R   0.071044 0.438894 0.450111 0.477236
C11   C     C_R   0.903157 0.499585 0.500087 -0.362083
C12   C     C_R   0.500031 0.499975 0.659157 0.816070
C13   C     C_R   0.097003 0.500606 0.499538 -0.388682
C14   C     C_R   0.975430 0.438434 0.450314 0.469676
C15   C     C_R   0.025000 0.561480 0.549639 0.477838
C16   C     C_R   0.558406 0.326864 0.497932 0.835619
C17   C     C_R   0.441654 0.673236 0.498676 0.837728
C18   C     C_1   0.802866 0.499690 0.500015 0.390170
C19   C     C_1   0.197173 0.500398 0.499772 0.383336
C20   C     C_R   0.595027 0.227193 0.494802 -0.218588
C21   C     C_R   0.406852 0.772973 0.497860 -0.227067
C22   C     C_R   0.726414 0.081788 0.484818 0.403988
C23   C     C_R   0.621089 0.900738 0.508868 -0.304332
C24   C     C_R   0.280642 0.921299 0.496133 0.429738
C25   C     C_R   0.692058 0.176632 0.475125 0.349356
C26   C     C_R   0.309399 0.827172 0.484415 0.337365
C27   C     C_R   0.530479 0.182873 0.511762 -0.286352
C28   C     C_R   0.475290 0.814288 0.510940 -0.278592
C29   C     C_R   0.560267 0.088554 0.516292 -0.010943
C30   C     C_R   0.449974 0.908196 0.514755 -0.017739
C31   C     C_R   0.660016 0.037401 0.504482 -0.103143
C32   C     C_R   0.350225 0.961584 0.516679 -0.095748
C33   C     C_R   0.491827 0.044254 0.528288 0.061735
C34   C     C_R   0.394489 0.091626 0.549892 -0.325327
C35   C     C_R   0.521358 0.949917 0.517986 0.056070
C36   C     C_3   0.821528 0.838990 0.574667 0.115237
C37   C     C_3   0.857202 0.893699 0.637342 -0.356669
C38   C     C_3   0.897960 0.838850 0.715810 -0.759781
C39   C     C_3   0.192739 0.191418 0.565284 0.059223
C40   C     C_3   0.192449 0.228360 0.653924 -0.361307
C41   C     C_3   0.161311 0.330917 0.653909 -0.812931
C42   C     C_3   0.244033 0.764922 0.382282 0.070025
C43   C     C_3   0.157604 0.736438 0.361981 -0.327371
C44   C     C_3   0.159084 0.707444 0.270887 -0.819005
C45   C     C_R   0.690305 0.942498 0.509325 0.454143
C46   C     C_3   0.734024 0.246762 0.365083 -0.004913
C47   C     C_3   0.801104 0.296074 0.337285 -0.281347
C48   C     C_3   0.787505 0.321263 0.244943 -0.762526
C49   C     C_3   0.870867 0.026522 0.407443 0.130702
C50   C     C_3   0.824930 0.988276 0.337083 -0.402659
C51   C     C_3   0.878840 0.983434 0.254850 -0.906714
C52   C     C_3   0.162862 0.994662 0.400986 0.059123
C53   C     C_3   0.108264 0.095726 0.390467 -0.300540
C54   C     C_3   0.074360 0.118746 0.300479 -0.882527
C55   C     C_R   0.322090 0.052835 0.541431 0.484744
C56   C     C_R   0.586649 0.484264 0.956427 0.507945
C57   C     C_R   0.413216 0.516379 0.043708 0.497262
C58   C     C_R   0.499931 0.500204 0.912782 -0.338169
Cu1   Cu    Cu3+1 0.589210 0.500030 0.500000 1.018689
Cu2   Cu    Cu3+1 0.410790 0.499970 0.500000 1.024044
F1    F     F_    0.670946 0.469043 0.085540 -0.604797
F2    F     F_    0.328897 0.531851 0.914541 -0.578804
F3    F     F_    0.670933 0.468709 0.914521 -0.578932
F4    F     F_    0.328911 0.532084 0.085638 -0.591924
F5    F     F_    0.047398 0.621453 0.598687 -0.623714
F6    F     F_    0.953759 0.377809 0.401761 -0.654302
F7    F     F_    0.862291 0.619891 0.599776 -0.640767
F8    F     F_    0.138579 0.378470 0.401720 -0.621528
H1    H     H_    0.548565 0.771026 0.521873 0.196822
H2    H     H_    0.923149 0.880211 0.759918 0.253607
H3    H     H_    0.960175 0.777397 0.699593 0.312575
H4    H     H_    0.116625 0.214830 0.543156 0.191345
H5    H     H_    0.231394 0.219812 0.519590 0.154693
H6    H     H_    0.141592 0.207914 0.693393 0.248910
H7    H     H_    0.265330 0.199685 0.682495 0.223834
H8    H     H_    0.212928 0.352543 0.616730 0.251057
H9    H     H_    0.160543 0.355582 0.718969 0.282779
H10   H     H_    0.087525 0.361240 0.627276 0.245741
H11   H     H_    0.311524 0.707681 0.368204 0.146604
H12   H     H_    0.455581 0.224161 0.518530 0.191586
H13   H     H_    0.241821 0.821924 0.340693 0.095707
H14   H     H_    0.159043 0.679309 0.403051 0.242826
H15   H     H_    0.089505 0.793790 0.374221 0.219476
H16   H     H_    0.155555 0.764236 0.228652 0.252130
H17   H     H_    0.095640 0.686925 0.258399 0.271142
H18   H     H_    0.225975 0.649248 0.257576 0.285860
H19   H     H_    0.658224 0.293081 0.356393 0.138278
H20   H     H_    0.745215 0.187421 0.323764 0.127660
H21   H     H_    0.785627 0.358470 0.375005 0.269127
H22   H     H_    0.877224 0.252252 0.348319 0.249323
H23   H     H_    0.649167 0.829040 0.498684 0.164301
H24   H     H_    0.804904 0.259592 0.205816 0.242063
H25   H     H_    0.836587 0.357892 0.227185 0.299263
H26   H     H_    0.711774 0.365691 0.232825 0.272678
H27   H     H_    0.946131 0.979133 0.415524 0.168438
H28   H     H_    0.878993 0.090910 0.389486 0.163454
H29   H     H_    0.827914 0.919257 0.353683 0.272377
H30   H     H_    0.748143 0.031192 0.327491 0.200484
H31   H     H_    0.873881 0.052120 0.234709 0.253399
H32   H     H_    0.845968 0.953721 0.205700 0.278880
H33   H     H_    0.956097 0.940477 0.261936 0.255197
H34   H     H_    0.375263 0.157887 0.576331 0.144902
H35   H     H_    0.115794 0.957538 0.379091 0.153197
H36   H     H_    0.227924 0.975842 0.359523 0.094832
H37   H     H_    0.044647 0.117717 0.432890 0.240097
H38   H     H_    0.157056 0.133062 0.406774 0.241359
H39   H     H_    0.136662 0.095196 0.256815 0.266653
H40   H     H_    0.039898 0.192938 0.293731 0.298642
H41   H     H_    0.020935 0.086612 0.283561 0.238013
H42   H     H_    0.883750 0.778338 0.556672 0.231427
H43   H     H_    0.767655 0.813830 0.604783 0.163927
H44   H     H_    0.914671 0.914068 0.607900 0.271948
H45   H     H_    0.796417 0.955603 0.655377 0.221055
H46   H     H_    0.841367 0.818804 0.747161 0.263104
N1    N     N_1   0.276700 0.500030 0.499980 -0.156943
N2    N     N_1   0.723300 0.499970 0.500020 -0.166015
O1    O     O_R   0.575310 0.500040 0.380310 -0.578641
O2    O     O_3   0.226229 0.095930 0.566987 -0.565546
O3    O     O_3   0.239642 0.789342 0.467730 -0.553188
O4    O     O_3   0.754467 0.219666 0.449662 -0.573187
O5    O     O_3   0.825160 0.032903 0.486374 -0.567707
O6    O     O_3   0.184070 0.974057 0.486689 -0.532705
O7    O     O_R   0.424690 0.499960 0.619690 -0.557013
O8    O     O_R   0.424640 0.500000 0.380310 -0.566842
O9    O     O_R   0.575360 0.500000 0.619690 -0.553118
O10   O     O_R   0.617590 0.370200 0.500000 -0.537925
O11   O     O_R   0.382410 0.629800 0.500000 -0.540384
O12   O     O_R   0.466910 0.370160 0.500000 -0.586888
O13   O     O_R   0.533090 0.629840 0.500000 -0.583289
O14   O     O_3   0.786968 0.889510 0.500950 -0.603541

loop_
_geom_bond_atom_site_label_1
_geom_bond_atom_site_label_2
_ccdc_geom_bond_type
Cu1   Cu2   S    
C21   C26   A    
C38   H2    S    
C11   C18   S    
C23   C45   A    
C27   C29   A    
C43   H15   S    
C28   H1    S    
C9    F7    S    
C2    C57   A    
C52   H35   S    
C53   C54   S    
Cu1   O10   S    
C34   H34   S    
C48   H26   S    
C5    C58   S    
C57   F4    S    
C36   C37   S    
C24   C26   A    
C41   H9    S    
C38   H46   S    
C11   C14   A    
C42   O3    S    
C37   H45   S    
C20   C25   A    
C15   F5    S    
C29   C33   A    
Cu2   O8    S    
C37   H44   S    
C46   C47   S    
C52   O6    S    
C53   H38   S    
C52   H36   S    
C40   H6    S    
Cu1   N2    S    
C22   C25   A    
C39   H4    S    
C32   C55   A    
C16   C20   S    
Cu2   N1    S    
C45   O14   S    
Cu1   O1    S    
C4    C56   A    
C47   H21   S    
C2    C6    S    
C42   H13   S    
C44   H18   S    
C50   C51   S    
C46   H20   S    
C51   H31   S    
C50   H30   S    
C48   H25   S    
C13   C19   S    
C17   O13   A    
Cu2   O12   S    
C26   O3    S    
C27   H12   S    
C22   C31   A    
C18   N2    T    
C41   H10   S    
C17   O11   A    
C12   O9    A    
C4    F1    S    
C17   C21   S    
C54   H41   S    
Cu2   O7    S    
C2    C4    A    
C43   C44   S    
C24   C32   A    
C37   C38   S    
C36   O14   S    
C16   O12   A    
C47   C48   S    
C19   N1    T    
C8    C12   S    
C49   O5    S    
C36   H43   S    
C24   O6    S    
C33   C34   A    
C14   F6    S    
C56   F3    S    
C46   O4    S    
C1    O1    A    
C49   H27   S    
C9    C11   A    
C54   H39   S    
C40   C41   S    
C21   C28   A    
C23   C35   A    
C13   C15   A    
C36   H42   S    
C47   H22   S    
C23   H23   S    
Cu1   O9    S    
C42   C43   S    
C31   C45   A    
C44   H17   S    
C25   O4    S    
C3    C57   A    
C39   C40   S    
C52   C53   S    
C22   O5    S    
C46   H19   S    
C3    F2    S    
C51   H32   S    
C38   H3    S    
Cu1   O13   S    
C50   H29   S    
C1    C7    S    
Cu2   O11   S    
C44   H16   S    
C10   C13   A    
C5    C8    T    
C6    C7    T    
C20   C27   A    
C10   F8    S    
C51   H33   S    
C39   O2    S    
C30   C35   A    
C40   H7    S    
C54   H40   S    
C28   C30   A    
C9    C15   A    
C1    O8    A    
C29   C31   A    
C41   H8    S    
C30   C32   A    
C12   O7    A    
C33   C35   A    
C56   C58   A    
C39   H5    S    
C49   H28   S    
C3    C58   A    
C53   H37   S    
C42   H11   S    
C49   C50   S    
C48   H24   S    
C43   H14   S    
C34   C55   A    
C16   O10   A    
C10   C14   A    
C55   O2    S    
