data_mof_unit_31056.cif
_audit_creation_date              2012-10-26T20:11:41-0400
_audit_creation_method            fapswitch 2.2
_symmetry_space_group_name_H-M    P1
_symmetry_Int_Tables_number       1
_space_group_crystal_system       triclinic
_cell_length_a                    10.983109
_cell_length_b                    15.076408
_cell_length_c                    13.978659
_cell_angle_alpha                 90.288811
_cell_angle_beta                  101.951581
_cell_angle_gamma                 93.384341
_cell_volume                      2260.19014892

loop_
_atom_site_label
_atom_site_type_symbol
_atom_type_description
_atom_site_fract_x
_atom_site_fract_y
_atom_site_fract_z
_atom_type_partial_charge
C1    C     C_R   0.501143 0.330553 0.499865 0.538268
C2    C     C_R   0.543849 0.576747 0.797270 0.159530
C3    C     C_R   0.388845 0.467843 0.088612 0.015097
C4    C     C_R   0.517290 0.588284 0.892895 0.021972
C5    C     C_R   0.488482 0.511110 0.052998 0.011263
C6    C     C_R   0.492523 0.511229 0.944990 0.016291
C7    C     C_R   0.262189 0.495338 0.460911 0.518207
C8    C     C_R   0.737235 0.497508 0.538768 0.532340
C9    C     C_2   0.125223 0.488528 0.441148 -0.055985
C10   C     C_2   0.872650 0.490591 0.556732 -0.038075
C11   C     C_2   0.062124 0.447293 0.504261 -0.063729
C12   C     C_R   0.496987 0.669892 0.499927 0.542183
C13   C     C_2   0.926125 0.448435 0.490837 -0.059411
C14   C     C_R   0.604408 0.098824 0.543372 -0.117696
C15   C     C_R   0.427242 0.906075 0.550728 -0.123746
C16   C     C_R   0.609371 0.191473 0.545641 0.011774
C17   C     C_R   0.421630 0.813402 0.553519 -0.004192
C18   C     C_R   0.503316 0.234647 0.498999 0.043082
C19   C     C_R   0.494958 0.766836 0.500077 0.011853
C20   C     C_R   0.395874 0.185893 0.450753 -0.121985
C21   C     C_R   0.570223 0.813705 0.445432 -0.137096
C22   C     C_R   0.390701 0.093091 0.447787 0.022232
C23   C     C_R   0.497889 0.049546 0.493467 0.029007
C24   C     C_R   0.575000 0.906416 0.442143 0.012853
C25   C     C_1   0.853754 0.396045 0.408746 0.223795
C26   C     C_1   0.121749 0.395746 0.585883 0.227305
C27   C     C_3   0.266684 0.437499 0.016933 -0.283581
C28   C     C_3   0.198841 0.514701 0.964686 -0.418809
C29   C     C_3   0.520220 0.681380 0.938083 -0.283367
C30   C     C_3   0.394512 0.704180 0.958599 -0.442762
C31   C     C_1   0.947169 0.534335 0.643816 0.182126
C32   C     C_1   0.060116 0.530790 0.354051 0.195151
C33   C     C_3   0.730335 0.241477 0.593927 -0.263346
C34   C     C_R   0.499908 0.952504 0.494079 0.029132
C35   C     C_3   0.749067 0.240674 0.705083 -0.416920
C36   C     C_3   0.331795 0.767740 0.609534 -0.273670
C37   C     C_3   0.216930 0.725503 0.540093 -0.399442
C38   C     C_3   0.269234 0.043783 0.398122 -0.268859
C39   C     C_3   0.277769 0.000493 0.301099 -0.440057
C40   C     C_3   0.663459 0.953049 0.385455 -0.270201
C41   C     C_3   0.595141 0.993555 0.291150 -0.433901
C42   C     C_1   0.685553 0.602467 0.286929 0.266601
C43   C     C_1   0.434584 0.339839 0.747406 0.258606
C44   C     C_3   0.319651 0.381558 0.225575 -0.231206
C45   C     C_R   0.589639 0.549011 0.122209 -0.162772
C46   C     C_3   0.344057 0.288908 0.191100 -0.463694
C47   C     C_3   0.642447 0.641442 0.769182 -0.244026
C48   C     C_3   0.765549 0.645252 0.844958 -0.456585
C49   C     C_R   0.477064 0.430238 0.893494 -0.167391
C50   C     C_R   0.589209 0.549122 0.222858 0.122919
C51   C     C_R   0.468953 0.426325 0.791857 0.118326
C52   C     C_R   0.404599 0.453638 0.192211 0.175575
Cu1   Cu    Cu3+1 0.500000 0.499990 0.596430 0.945088
Cu2   Cu    Cu3+1 0.500000 0.500010 0.403570 0.959730
H1    H     H_    0.684737 0.064641 0.580078 0.107155
H2    H     H_    0.282443 0.388885 0.962167 0.145916
H3    H     H_    0.197929 0.401712 0.052011 0.142430
H4    H     H_    0.320055 0.693005 0.891870 0.155715
H5    H     H_    0.371764 0.664579 0.019739 0.164992
H6    H     H_    0.398685 0.775383 0.980540 0.135593
H7    H     H_    0.592227 0.689763 0.006111 0.137781
H8    H     H_    0.544511 0.733648 0.888931 0.137498
H9    H     H_    0.839126 0.276862 0.738027 0.145816
H10   H     H_    0.672931 0.274224 0.728968 0.180180
H11   H     H_    0.750897 0.171418 0.731804 0.145919
H12   H     H_    0.372738 0.942946 0.591838 0.110105
H13   H     H_    0.809736 0.210582 0.571447 0.140117
H14   H     H_    0.733746 0.311359 0.570095 0.154395
H15   H     H_    0.243754 0.677964 0.488588 0.168029
H16   H     H_    0.155614 0.689331 0.582770 0.161937
H17   H     H_    0.163816 0.777791 0.497300 0.147873
H18   H     H_    0.377955 0.717807 0.660114 0.177435
H19   H     H_    0.298975 0.816367 0.657174 0.126271
H20   H     H_    0.311885 0.050283 0.252924 0.144829
H21   H     H_    0.340276 0.944770 0.313219 0.170312
H22   H     H_    0.183833 0.973169 0.263570 0.139095
H23   H     H_    0.315270 0.220864 0.416051 0.095533
H24   H     H_    0.239580 0.992965 0.447007 0.145588
H25   H     H_    0.192905 0.090291 0.382834 0.136921
H26   H     H_    0.531222 0.942513 0.245836 0.148199
H27   H     H_    0.542035 0.050056 0.307222 0.167218
H28   H     H_    0.664094 0.019198 0.248517 0.139937
H29   H     H_    0.723944 0.005100 0.431527 0.141984
H30   H     H_    0.727799 0.905337 0.365285 0.142301
H31   H     H_    0.327817 0.283369 0.110322 0.142452
H32   H     H_    0.441918 0.273583 0.222263 0.176332
H33   H     H_    0.280937 0.238393 0.216858 0.129661
H34   H     H_    0.627073 0.777434 0.405920 0.140437
H35   H     H_    0.330370 0.376346 0.303752 0.210353
H36   H     H_    0.220157 0.395904 0.202964 0.116871
H37   H     H_    0.798400 0.577266 0.858835 0.170750
H38   H     H_    0.837663 0.685909 0.816673 0.154786
H39   H     H_    0.756316 0.676028 0.914975 0.140293
H40   H     H_    0.669837 0.621439 0.702261 0.222346
H41   H     H_    0.607761 0.708817 0.755902 0.113958
H42   H     H_    0.669360 0.579756 0.097985 0.106448
H43   H     H_    0.467429 0.369061 0.932485 0.098721
H44   H     H_    0.189154 0.567113 0.018236 0.153234
H45   H     H_    0.248382 0.542515 0.909218 0.177531
H46   H     H_    0.103976 0.490561 0.925566 0.160913
N1    N     N_R   0.500000 0.500020 0.258690 -0.235226
N2    N     N_R   0.500000 0.499980 0.741310 -0.237254
N3    N     N_1   0.796202 0.354220 0.343392 -0.296121
N4    N     N_1   0.166482 0.354060 0.651568 -0.287067
N5    N     N_1   0.006659 0.569254 0.713325 -0.337420
N6    N     N_1   0.008481 0.564482 0.284351 -0.289853
N7    N     N_1   0.763285 0.645886 0.337734 -0.314110
N8    N     N_1   0.406904 0.269103 0.714354 -0.296809
O1    O     O_R   0.500010 0.371450 0.581440 -0.482603
O2    O     O_R   0.499990 0.628550 0.418560 -0.493166
O3    O     O_R   0.500010 0.371460 0.418560 -0.522618
O4    O     O_R   0.499990 0.628540 0.581440 -0.534398
O5    O     O_R   0.320690 0.500000 0.551510 -0.475282
O6    O     O_R   0.679310 0.500000 0.448490 -0.471153
O7    O     O_R   0.320690 0.500010 0.388630 -0.522553
O8    O     O_R   0.679310 0.499990 0.611370 -0.524328

loop_
_geom_bond_atom_site_label_1
_geom_bond_atom_site_label_2
_ccdc_geom_bond_type
C37   H15   S    
C40   H30   S    
Cu2   N1    S    
C41   H26   S    
C12   O2    A    
C28   H46   S    
Cu1   Cu2   S    
C51   N2    A    
C1    C18   S    
C20   H23   S    
C36   C37   S    
C19   C21   A    
C38   C39   S    
C38   H25   S    
C35   H11   S    
C28   H44   S    
C22   C38   S    
C2    N2    A    
C30   H4    S    
Cu2   O2    S    
C7    C9    S    
C39   H20   S    
C7    O7    A    
C9    C32   S    
C1    O1    A    
C10   C31   S    
C44   C46   S    
C49   C51   A    
C48   H37   S    
C30   H6    S    
C35   H10   S    
C17   C36   S    
C39   H21   S    
C42   N7    T    
C15   C34   A    
C4    C29   S    
Cu1   O8    S    
C8    O6    A    
C46   H31   S    
C26   N4    T    
C44   C52   S    
C14   H1    S    
C21   H34   S    
C32   N6    T    
C37   H16   S    
C30   H5    S    
C31   N5    T    
C40   H29   S    
C13   C25   S    
Cu1   O5    S    
C29   H7    S    
C52   N1    A    
C48   H39   S    
C4    C6    A    
C27   H3    S    
C27   H2    S    
C25   N3    T    
C38   H24   S    
C11   C26   S    
C15   H12   S    
C5    C45   A    
C24   C34   A    
C14   C23   A    
C2    C4    A    
C29   C30   S    
C16   C33   S    
C47   C48   S    
Cu1   N2    S    
C23   C34   S    
C41   H27   S    
Cu2   O7    S    
C39   H22   S    
C9    C11   D    
C42   C50   S    
C28   H45   S    
C16   C18   A    
C40   C41   S    
C20   C22   A    
C37   H17   S    
C14   C16   A    
C17   C19   A    
C12   O4    A    
C44   H36   S    
C33   H13   S    
C46   H33   S    
Cu1   O1    S    
C15   C17   A    
C29   H8    S    
C24   C40   S    
C3    C5    A    
C10   C13   D    
C3    C52   A    
Cu1   O4    S    
C2    C47   S    
C7    O5    A    
C3    C27   S    
C1    O3    A    
C11   C13   S    
C43   C51   S    
C5    C6    S    
C45   C50   A    
C41   H28   S    
Cu2   O6    S    
C12   C19   S    
C33   C35   S    
C47   H40   S    
Cu2   O3    S    
C18   C20   A    
C43   N8    T    
C6    C49   A    
C36   H19   S    
C8    O8    A    
C49   H43   S    
C50   N1    A    
C8    C10   S    
C48   H38   S    
C21   C24   A    
C27   C28   S    
C47   H41   S    
C22   C23   A    
C35   H9    S    
C45   H42   S    
C44   H35   S    
C36   H18   S    
C33   H14   S    
C46   H32   S    
