data_mof_unit_36158.cif
_audit_creation_date              2012-12-10T17:47:41-0500
_audit_creation_method            fapswitch 2.2
_symmetry_space_group_name_H-M    P1
_symmetry_Int_Tables_number       1
_space_group_crystal_system       triclinic
_cell_length_a                    10.633922
_cell_length_b                    10.72305
_cell_length_c                    9.885141
_cell_angle_alpha                 89.102314
_cell_angle_beta                  90.000496
_cell_angle_gamma                 91.817895
_cell_volume                      1126.47790335

loop_
_atom_site_label
_atom_site_type_symbol
_atom_type_description
_atom_site_fract_x
_atom_site_fract_y
_atom_site_fract_z
_atom_type_partial_charge
C1    C     C_R   0.507082 0.259752 0.502167 0.867786
C2    C     C_3   0.878715 0.501273 0.501195 0.116061
C3    C     C_3   0.930787 0.618135 0.422953 -0.424377
C4    C     C_3   0.924167 0.381695 0.433001 -0.400657
C5    C     C_R   0.513670 0.105920 0.762806 -0.171632
C6    C     C_R   0.469391 0.041747 0.877976 -0.146945
C7    C     C_R   0.404013 0.928434 0.864930 -0.168869
C8    C     C_R   0.394518 0.873645 0.738401 -0.104442
C9    C     C_R   0.450162 0.932897 0.622906 0.111195
C10   C     C_R   0.492234 0.057240 0.631614 0.083555
C11   C     C_R   0.510864 0.125636 0.508113 -0.122545
C12   C     C_R   0.257757 0.500045 0.500277 0.880115
C13   C     C_R   0.513449 0.064588 0.384237 -0.222555
C14   C     C_R   0.497863 0.937647 0.380794 -0.198104
C15   C     C_R   0.470347 0.871034 0.499916 -0.075675
C16   C     C_R   0.333056 0.337620 0.142763 -0.177456
C17   C     C_R   0.250105 0.258640 0.073533 -0.212434
C18   C     C_R   0.249945 0.259076 0.933533 -0.188618
C19   C     C_R   0.333116 0.338110 0.862055 -0.173393
C20   C     C_R   0.417684 0.420135 0.928853 0.154333
C21   C     C_R   0.417703 0.420055 0.073607 0.172257
C22   C     C_R   0.578504 0.576697 0.070281 -0.127431
C23   C     C_R   0.487109 0.738779 0.499480 0.918761
C24   C     C_R   0.578479 0.576649 0.926966 -0.124902
C25   C     C_R   0.742286 0.500576 0.500273 0.852166
C26   C     C_3   0.071323 0.503063 0.649119 -0.361946
C27   C     C_3   0.928657 0.504949 0.648899 -0.386218
C28   C     C_3   0.075574 0.618497 0.421646 0.229923
C29   C     C_3   0.068489 0.382274 0.432426 -0.500572
C30   C     C_3   0.121350 0.501855 0.501228 0.102351
H1    H     H_    0.109649 0.585837 0.703901 0.216618
H2    H     H_    0.889064 0.376505 0.327061 0.186108
H3    H     H_    0.107732 0.614228 0.314655 0.129759
H4    H     H_    0.895785 0.618114 0.316808 0.153666
H5    H     H_    0.529637 0.114581 0.289364 0.171115
H6    H     H_    0.568498 0.190521 0.779975 0.171255
H7    H     H_    0.483838 0.081258 0.977134 0.148485
H8    H     H_    0.364621 0.880874 0.953354 0.147431
H9    H     H_    0.343566 0.784975 0.731903 0.183437
H10   H     H_    0.510082 0.891733 0.284996 0.166725
H11   H     H_    0.642555 0.639293 0.123227 0.143110
H12   H     H_    0.101376 0.418413 0.705615 0.169210
H13   H     H_    0.327872 0.331077 0.250045 0.206720
H14   H     H_    0.185931 0.196366 0.129056 0.159579
H15   H     H_    0.186022 0.196815 0.879783 0.158329
H16   H     H_    0.329408 0.331034 0.754907 0.207688
H17   H     H_    0.642493 0.639237 0.871838 0.150318
H18   H     H_    0.890778 0.423046 0.708457 0.179325
H19   H     H_    0.897985 0.590915 0.699638 0.187136
H20   H     H_    0.896132 0.703865 0.470710 0.202014
H21   H     H_    0.102253 0.378177 0.326085 0.181688
H22   H     H_    0.101555 0.297623 0.486660 0.184223
H23   H     H_    0.886769 0.297342 0.488594 0.172363
N1    N     N_R   0.498810 0.498800 0.142780 -0.120864
N2    N     N_R   0.498760 0.498720 0.857170 -0.126627
O1    O     O_R   0.500000 0.316780 0.614690 -0.653326
O2    O     O_R   0.499990 0.316750 0.385360 -0.639220
O3    O     O_R   0.314800 0.499990 0.614670 -0.644748
O4    O     O_R   0.314790 0.499970 0.385330 -0.643578
O5    O     O_R   0.500010 0.683250 0.614640 -0.631626
O6    O     O_R   0.500000 0.683220 0.385310 -0.614341
O7    O     O_R   0.685210 0.500030 0.614670 -0.628491
O8    O     O_R   0.685200 0.500010 0.385330 -0.624193
Zn1   Zn    Zn3+2 0.500010 0.500020 0.653130 0.920182
Zn2   Zn    Zn3+2 0.499990 0.499980 0.346870 0.934387
Cl1   Cl    Cl    0.139633 0.762195 0.487684 -0.703588

loop_
_geom_bond_atom_site_label_1
_geom_bond_atom_site_label_2
_ccdc_geom_bond_type
C27   H18   S    
C8    C9    A    
C27   H19   S    
C28   Cl1   S    
O1    Zn1   S    
C26   C30   S    
C16   C21   A    
C8    H9    S    
C1    O2    A    
C4    H23   S    
C9    C10   A    
C6    C7    A    
C2    C4    S    
C19   C20   A    
C1    C11   S    
C23   O6    A    
O5    Zn1   S    
C2    C27   S    
C12   O3    A    
N2    Zn1   S    
C24   H17   S    
C15   C23   S    
C17   C18   A    
C9    C15   A    
C19   H16   S    
C26   H1    S    
C22   N1    A    
N1    Zn2   S    
C4    H2    S    
C13   C14   A    
O4    Zn2   S    
C24   N2    A    
C23   O5    A    
C11   C13   A    
C16   H13   S    
C26   C27   S    
C29   C30   S    
C20   N2    A    
C5    C6    A    
C28   C30   S    
C3    C28   S    
C1    O1    A    
C29   H21   S    
C28   H3    S    
C13   H5    S    
C2    C25   S    
C2    C3    S    
C25   O7    A    
C5    C10   A    
O3    Zn1   S    
C21   N1    A    
O8    Zn2   S    
C22   C24   A    
C6    H7    S    
C22   H11   S    
C10   C11   A    
C14   H10   S    
C5    H6    S    
O6    Zn2   S    
C7    C8    A    
C20   C21   A    
C26   H12   S    
C3    H20   S    
C18   H15   S    
C25   O8    A    
C14   C15   A    
C18   C19   A    
O7    Zn1   S    
C3    H4    S    
C17   H14   S    
C12   O4    A    
C12   C30   S    
C7    H8    S    
C4    C29   S    
O2    Zn2   S    
C16   C17   A    
C29   H22   S    
