data_mof_unit_26837.cif
_audit_creation_date              2012-12-11T15:33:40-0500
_audit_creation_method            fapswitch 2.2
_symmetry_space_group_name_H-M    P1
_symmetry_Int_Tables_number       1
_space_group_crystal_system       triclinic
_cell_length_a                    27.139677
_cell_length_b                    7.203357
_cell_length_c                    22.736531
_cell_angle_alpha                 90.003856
_cell_angle_beta                  101.104243
_cell_angle_gamma                 89.997178
_cell_volume                      4361.70266794

loop_
_atom_site_label
_atom_site_type_symbol
_atom_type_description
_atom_site_fract_x
_atom_site_fract_y
_atom_site_fract_z
_atom_type_partial_charge
O1    O     O_R   0.207310 0.594030 0.676830 -0.532022
O2    O     O_R   0.792690 0.405970 0.323170 -0.532022
O3    O     O_R   0.292690 0.094030 0.823170 -0.532032
O4    O     O_R   0.707310 0.905970 0.176830 -0.532031
O5    O     O_R   0.197320 0.262370 0.795700 -0.539858
O6    O     O_R   0.802680 0.737630 0.204300 -0.539858
O7    O     O_R   0.302680 0.762370 0.704300 -0.539862
O8    O     O_R   0.697320 0.237630 0.295700 -0.539862
C1    C     C_R   0.184666 0.432517 0.811942 0.673230
C2    C     C_R   0.815334 0.567483 0.188058 0.673230
C3    C     C_R   0.315335 0.932509 0.688059 0.673231
C4    C     C_R   0.684665 0.067491 0.311941 0.673232
O9    O     O_R   0.201410 0.264250 0.675590 -0.534236
O10   O     O_R   0.798590 0.735750 0.324410 -0.534236
O11   O     O_R   0.298590 0.764250 0.824410 -0.534236
O12   O     O_R   0.701410 0.235750 0.175590 -0.534236
O13   O     O_R   0.296810 0.094940 0.702210 -0.538098
O14   O     O_R   0.703190 0.905060 0.297790 -0.538098
O15   O     O_R   0.203190 0.594940 0.797790 -0.538102
O16   O     O_R   0.796810 0.405060 0.202210 -0.538102
C5    C     C_R   0.189776 0.432536 0.653478 0.686362
C6    C     C_R   0.810223 0.567463 0.346522 0.686362
C7    C     C_R   0.310225 0.932537 0.846522 0.686365
C8    C     C_R   0.689775 0.067463 0.153478 0.686364
O17   O     O_3   0.281300 0.427390 0.758870 -0.372353
O18   O     O_3   0.718700 0.572610 0.241130 -0.372353
O19   O     O_3   0.218700 0.927390 0.741130 -0.372346
O20   O     O_3   0.781300 0.072610 0.258870 -0.372346
V1    V     V_3+5 0.244190 0.152150 0.748350 1.410586
V2    V     V_3+5 0.755810 0.847850 0.251650 1.410587
V3    V     V_3+5 0.255810 0.652150 0.751650 1.410584
V4    V     V_3+5 0.744190 0.347850 0.248350 1.410584
C9    C     C_R   0.654837 0.062342 0.095131 -0.038516
C10   C     C_R   0.345163 0.937658 0.904868 -0.038515
C11   C     C_R   0.845163 0.562316 0.404869 -0.038493
C12   C     C_R   0.154837 0.437682 0.595131 -0.038495
C13   C     C_R   0.639428 0.122739 0.988601 -0.158058
C14   C     C_R   0.360571 0.877260 0.011399 -0.158058
C15   C     C_R   0.860546 0.622274 0.511427 -0.158038
C16   C     C_R   0.139453 0.377699 0.488574 -0.158038
C17   C     C_R   0.672249 0.114563 0.043682 -0.163221
C18   C     C_R   0.327751 0.885437 0.956318 -0.163221
C19   C     C_R   0.827732 0.614231 0.456338 -0.163235
C20   C     C_R   0.172267 0.385748 0.543663 -0.163233
C21   C     C_R   0.603744 0.018834 0.091170 -0.212236
C22   C     C_R   0.396256 0.981166 0.908830 -0.212236
C23   C     C_R   0.896265 0.518966 0.408822 -0.212214
C24   C     C_R   0.103736 0.481043 0.591177 -0.212215
C25   C     C_R   0.569068 0.029334 0.035449 0.085839
C26   C     C_R   0.430932 0.970666 0.964551 0.085839
C27   C     C_R   0.930933 0.529309 0.464551 0.085841
C28   C     C_R   0.069067 0.470686 0.535448 0.085841
C29   C     C_R   0.588255 0.081980 0.984054 0.136230
C30   C     C_R   0.411745 0.918020 0.015946 0.136230
C31   C     C_R   0.911727 0.581659 0.515966 0.136228
C32   C     C_R   0.088272 0.418324 0.484035 0.136228
C33   C     C_R   0.516214 0.992013 0.028897 0.057481
C34   C     C_R   0.483786 0.007987 0.971102 0.057481
C35   C     C_R   0.983791 0.492097 0.471096 0.057481
C36   C     C_R   0.016209 0.507897 0.528903 0.057481
C37   C     C_R   0.505327 0.060141 0.921822 -0.184783
C38   C     C_R   0.494673 0.939859 0.078178 -0.184783
C39   C     C_R   0.994653 0.559763 0.578204 -0.184774
C40   C     C_R   0.005347 0.440221 0.421797 -0.184774
C41   C     C_R   0.556343 0.095869 0.928322 -0.196629
C42   C     C_R   0.443657 0.904131 0.071678 -0.196629
C43   C     C_R   0.943631 0.595384 0.571710 -0.196622
C44   C     C_R   0.056368 0.404591 0.428291 -0.196622
H1    H     H_    0.570988 0.136066 0.889049 0.127711
H2    H     H_    0.429012 0.863934 0.110950 0.127711
H3    H     H_    0.928971 0.635331 0.610999 0.127705
H4    H     H_    0.071027 0.364632 0.389002 0.127705
H5    H     H_    0.407652 0.018176 0.867539 0.095829
H6    H     H_    0.592348 0.981824 0.132461 0.095829
H7    H     H_    0.092328 0.517843 0.632480 0.095809
H8    H     H_    0.907673 0.482185 0.367518 0.095807
H9    H     H_    0.288600 0.849768 0.953718 0.109853
H10   H     H_    0.711400 0.150232 0.046282 0.109853
H11   H     H_    0.211427 0.350218 0.546254 0.109831
H12   H     H_    0.788571 0.649751 0.453747 0.109830
H13   H     H_    0.654038 0.163642 0.949392 0.118444
H14   H     H_    0.345961 0.836358 0.050608 0.118444
H15   H     H_    0.845920 0.662919 0.550653 0.118440
H16   H     H_    0.154079 0.337041 0.449349 0.118441
H17   H     H_    0.483702 0.075330 0.877158 0.125842
H18   H     H_    0.516298 0.924670 0.122842 0.125842
H19   H     H_    0.016267 0.574785 0.622881 0.125839
H20   H     H_    0.983732 0.425188 0.377120 0.125839
C45   C     C_R   0.629619 0.881866 0.367764 -0.160316
C46   C     C_R   0.370381 0.118133 0.632235 -0.160317
C47   C     C_R   0.870375 0.381852 0.132218 -0.160333
C48   C     C_R   0.129625 0.618148 0.867782 -0.160333
H21   H     H_    0.644883 0.754309 0.353516 0.124665
H22   H     H_    0.355117 0.245691 0.646484 0.124665
H23   H     H_    0.855106 0.254297 0.146453 0.124660
H24   H     H_    0.144894 0.745702 0.853547 0.124660
C49   C     C_R   0.593714 0.868907 0.404288 -0.140526
C50   C     C_R   0.406286 0.131093 0.595712 -0.140525
C51   C     C_R   0.906280 0.368894 0.095694 -0.140516
C52   C     C_R   0.093720 0.631106 0.904306 -0.140516
H25   H     H_    0.582638 0.732288 0.416794 0.133719
H26   H     H_    0.417361 0.267712 0.583206 0.133719
H27   H     H_    0.917353 0.232276 0.083175 0.133725
H28   H     H_    0.082647 0.767724 0.916825 0.133725
C53   C     C_R   0.572596 0.029385 0.424497 0.020120
C54   C     C_R   0.427404 0.970615 0.575503 0.020120
C55   C     C_R   0.927403 0.529371 0.075503 0.020124
C56   C     C_R   0.072597 0.470629 0.924497 0.020124
C57   C     C_R   0.588331 0.203607 0.406797 -0.134730
C58   C     C_R   0.411669 0.796393 0.593202 -0.134730
C59   C     C_R   0.911672 0.703593 0.093218 -0.134746
C60   C     C_R   0.088328 0.296407 0.906782 -0.134746
H29   H     H_    0.572943 0.330432 0.421394 0.138879
H30   H     H_    0.427057 0.669568 0.578606 0.138879
H31   H     H_    0.927064 0.830417 0.078635 0.138876
H32   H     H_    0.072936 0.169583 0.921365 0.138876
C61   C     C_R   0.624335 0.216710 0.370130 -0.160307
C62   C     C_R   0.375665 0.783290 0.629870 -0.160306
C63   C     C_R   0.875668 0.716694 0.129885 -0.160299
C64   C     C_R   0.124331 0.283306 0.870114 -0.160299
H33   H     H_    0.635587 0.353199 0.357734 0.120822
H34   H     H_    0.364413 0.646801 0.642266 0.120822
H35   H     H_    0.864421 0.853184 0.142294 0.120835
H36   H     H_    0.135579 0.146816 0.857705 0.120835
C65   C     C_R   0.645635 0.055875 0.350150 -0.047191
C66   C     C_R   0.354365 0.944125 0.649849 -0.047191
C67   C     C_R   0.854364 0.555860 0.149849 -0.047192
C68   C     C_R   0.145636 0.444140 0.850151 -0.047192
N1    N     N_R   0.514116 0.168484 0.483864 -0.280041
N2    N     N_R   0.485884 0.831516 0.516136 -0.280041
N3    N     N_R   0.985883 0.668480 0.016150 -0.280050
N4    N     N_R   0.014117 0.331519 0.983850 -0.280051
N5    N     N_R   0.480287 0.154490 0.519145 -0.285337
N6    N     N_R   0.519713 0.845510 0.480855 -0.285337
N7    N     N_R   0.019713 0.654493 0.980869 -0.285329
N8    N     N_R   0.980286 0.345507 0.019131 -0.285329
C69   C     C_R   0.465372 0.985731 0.536129 0.512844
C70   C     C_R   0.534628 0.014269 0.463871 0.512844
C71   C     C_R   0.034628 0.485738 0.963871 0.512846
C72   C     C_R   0.965372 0.514262 0.036129 0.512846

loop_
_geom_bond_atom_site_label_1
_geom_bond_atom_site_label_2
_ccdc_geom_bond_type
O17   V3    S    
C51   H27   S    
O1    C5    A    
O19   V1    S    
C9    C21   A    
C16   H16   S    
O3    C7    A    
C10   C18   A    
O1    V3    S    
N8    C72   A    
O15   V3    S    
C58   C62   A    
C57   C61   A    
C33   C38   A    
C5    C12   S    
C45   C65   A    
N4    C71   A    
N5    C69   A    
C6    C11   S    
C38   H18   S    
C35   C40   A    
C26   C30   A    
C47   C67   A    
C36   C39   A    
C40   C44   A    
O2    V4    S    
C23   H8    S    
C14   C18   A    
N3    N7    A    
C54   C58   A    
O4    C8    A    
C25   C29   A    
N4    N8    A    
C44   H4    S    
C48   H24   S    
O13   V1    S    
C59   C63   A    
C62   H34   S    
C55   C72   S    
O3    V1    S    
C61   H33   S    
N3    C72   A    
C28   C36   A    
C53   C70   S    
C64   H36   S    
C1    O15   A    
C52   H28   S    
C15   C31   A    
N1    C70   A    
C2    O16   A    
C16   C32   A    
O2    C6    A    
C10   C22   A    
C11   C19   A    
C58   H30   S    
C16   C20   A    
C43   H3    S    
C57   H29   S    
C13   C29   A    
C34   C37   A    
O11   C7    A    
C11   C23   A    
C35   C36   A    
O12   C8    A    
C14   H14   S    
C45   H21   S    
C24   H7    S    
C13   H13   S    
N2    N6    A    
O10   V2    S    
C48   C68   A    
C46   H22   S    
O5    V1    S    
C39   C43   A    
C52   C56   A    
C1    C68   S    
O7    V3    S    
C38   C42   A    
O8    V4    S    
C3    C66   S    
C17   H10   S    
C60   C64   A    
O18   V4    S    
C54   C69   S    
C15   C19   A    
C4    C65   S    
C19   H12   S    
C32   C44   A    
C47   H23   S    
C56   C60   A    
C45   C49   A    
C21   H6    S    
C26   C34   A    
O7    C3    A    
O5    C1    A    
C56   C71   S    
C31   C43   A    
C14   C30   A    
C21   C25   A    
O8    C4    A    
C7    C10   S    
C46   C66   A    
O9    C5    A    
C37   H17   S    
N1    N5    A    
O6    V2    S    
O14   V2    S    
C12   C20   A    
C27   C35   A    
C2    C67   S    
C60   H32   S    
C29   C41   A    
C48   C52   A    
O16   V4    S    
O9    V1    S    
C53   C57   A    
C3    O13   A    
C39   H19   S    
C55   C59   A    
C20   H11   S    
N6    C70   A    
C25   C33   A    
C23   C27   A    
C64   C68   A    
O11   V3    S    
C30   C42   A    
C63   H35   S    
O12   V4    S    
C51   C55   A    
C22   C26   A    
C8    C9    S    
C50   C54   A    
N7    C71   A    
C9    C17   A    
O10   C6    A    
O20   V2    S    
C49   C53   A    
C50   H26   S    
C33   C34   A    
C42   H2    S    
C41   H1    S    
C46   C50   A    
C12   C24   A    
C27   C31   A    
C13   C17   A    
C49   H25   S    
O6    C2    A    
C15   H15   S    
C37   C41   A    
C24   C28   A    
C18   H9    S    
C4    O14   A    
C59   H31   S    
C62   C66   A    
C47   C51   A    
N2    C69   A    
C61   C65   A    
C40   H20   S    
C22   H5    S    
O4    V2    S    
C28   C32   A    
C63   C67   A    
