data_mof_unit_14934.cif
_audit_creation_date              2012-12-10T16:59:55-0500
_audit_creation_method            fapswitch 2.2
_symmetry_space_group_name_H-M    P1
_symmetry_Int_Tables_number       1
_space_group_crystal_system       triclinic
_cell_length_a                    15.01585
_cell_length_b                    15.100178
_cell_length_c                    10.037907
_cell_angle_alpha                 88.087855
_cell_angle_beta                  90.30154
_cell_angle_gamma                 89.922644
_cell_volume                      2274.71367067

loop_
_atom_site_label
_atom_site_type_symbol
_atom_type_description
_atom_site_fract_x
_atom_site_fract_y
_atom_site_fract_z
_atom_type_partial_charge
Br1   Br    Br    0.367292 0.305445 0.533806 -0.594031
Br2   Br    Br    0.352612 0.722586 0.674009 -0.561186
Br3   Br    Br    0.867292 0.805445 0.533809 -0.594041
Br4   Br    Br    0.852607 0.222590 0.674015 -0.561171
C1    C     C_R   0.386717 0.876097 0.501776 0.879692
C2    C     C_2   0.751130 0.183282 0.401691 0.552665
C3    C     C_2   0.178855 0.246309 0.403462 0.560672
C4    C     C_2   0.251127 0.683286 0.401686 0.552675
C5    C     C_2   0.662395 0.794921 0.509579 -0.341079
C6    C     C_2   0.685883 0.185082 0.492255 -0.375268
C7    C     C_2   0.162395 0.294921 0.509580 -0.341078
C8    C     C_2   0.185883 0.685082 0.492255 -0.375269
C9    C     C_2   0.244166 0.175622 0.425614 -0.413060
C10   C     C_2   0.309810 0.759311 0.395917 -0.343343
C11   C     C_2   0.744167 0.675623 0.425612 -0.413057
C12   C     C_R   0.382687 0.120089 0.497821 0.913031
C13   C     C_2   0.809814 0.259306 0.395919 -0.343335
C14   C     C_2   0.321122 0.190787 0.489000 0.098186
C15   C     C_2   0.344066 0.791291 0.507573 0.058097
C16   C     C_2   0.821122 0.690787 0.489000 0.098182
C17   C     C_2   0.844067 0.291290 0.507575 0.058090
C18   C     C_2   0.571873 0.985326 0.924706 0.514879
C19   C     C_2   0.071872 0.485322 0.924707 0.514868
C20   C     C_2   0.572276 0.000131 0.074733 -0.083304
C21   C     C_2   0.072275 0.500127 0.074734 -0.083281
C22   C     C_3   0.661597 0.708285 0.179758 0.060316
C23   C     C_R   0.886717 0.376097 0.501776 0.879693
C24   C     C_3   0.618655 0.740100 0.049277 -0.721543
C25   C     C_3   0.839907 0.086787 0.285378 0.106887
C26   C     C_3   0.879227 0.124630 0.155805 -0.830263
C27   C     C_3   0.161593 0.208282 0.179761 0.060314
C28   C     C_3   0.118652 0.240095 0.049280 -0.721536
C29   C     C_3   0.339900 0.586805 0.285336 0.106877
C30   C     C_3   0.379202 0.624661 0.155757 -0.830248
C31   C     C_3   0.724357 0.997720 0.897651 0.010958
C32   C     C_3   0.794932 0.983948 0.792228 -0.652123
C33   C     C_3   0.224351 0.497729 0.897624 0.010974
C34   C     C_R   0.882687 0.620089 0.497821 0.913036
C35   C     C_3   0.294920 0.483950 0.792195 -0.652108
C36   C     C_3   0.354306 0.011278 0.120071 0.186545
C37   C     C_3   0.278457 0.984057 0.029045 -0.892239
C38   C     C_3   0.854306 0.511282 0.120073 0.186550
C39   C     C_3   0.778457 0.484068 0.029043 -0.892240
C40   C     C_R   0.619346 0.118431 0.498336 0.960983
C41   C     C_R   0.613084 0.875970 0.502032 0.953589
C42   C     C_R   0.119346 0.618431 0.498336 0.960974
C43   C     C_R   0.113084 0.375970 0.502032 0.953581
C44   C     C_2   0.678856 0.746310 0.403460 0.560670
H1    H     H_    0.687908 0.774621 0.607721 0.163053
H2    H     H_    0.951940 0.537336 0.893026 0.160435
H3    H     H_    0.635234 0.010939 0.124700 0.129266
H4    H     H_    0.135236 0.510930 0.124699 0.129267
H5    H     H_    0.638936 0.639268 0.201963 0.135783
H6    H     H_    0.735174 0.710002 0.166147 0.154521
H7    H     H_    0.642299 0.807879 0.022509 0.274894
H8    H     H_    0.637099 0.695109 0.968558 0.204117
H9    H     H_    0.545047 0.741081 0.059098 0.267637
H10   H     H_    0.835001 0.013791 0.277002 0.180826
H11   H     H_    0.886442 0.098065 0.370257 0.165090
H12   H     H_    0.681121 0.237044 0.564286 0.158273
H13   H     H_    0.891783 0.196637 0.162776 0.267323
H14   H     H_    0.943446 0.091197 0.135651 0.217540
H15   H     H_    0.832859 0.113745 0.071551 0.257007
H16   H     H_    0.138932 0.139265 0.201968 0.135781
H17   H     H_    0.235170 0.209997 0.166149 0.154522
H18   H     H_    0.142296 0.307872 0.022509 0.274902
H19   H     H_    0.137094 0.195103 0.968562 0.204116
H20   H     H_    0.045043 0.241077 0.059102 0.267636
H21   H     H_    0.334999 0.513809 0.276949 0.180815
H22   H     H_    0.386444 0.598081 0.370206 0.165088
H23   H     H_    0.187908 0.274622 0.607721 0.163054
H24   H     H_    0.391764 0.696666 0.162744 0.267320
H25   H     H_    0.443417 0.591226 0.135573 0.217541
H26   H     H_    0.332820 0.613789 0.071514 0.257012
H27   H     H_    0.750547 0.970175 0.994234 0.146635
H28   H     H_    0.712746 0.070466 0.904034 0.158138
H29   H     H_    0.771042 0.010373 0.693753 0.268613
H30   H     H_    0.857028 0.019026 0.819492 0.221482
H31   H     H_    0.809653 0.912186 0.785120 0.265317
H32   H     H_    0.250552 0.470205 0.994213 0.146627
H33   H     H_    0.212729 0.570476 0.903980 0.158134
H34   H     H_    0.181123 0.737041 0.564292 0.158274
H35   H     H_    0.271019 0.510353 0.693713 0.268603
H36   H     H_    0.357012 0.519043 0.819434 0.221499
H37   H     H_    0.309651 0.412188 0.785115 0.265311
H38   H     H_    0.367163 0.083376 0.101742 0.113092
H39   H     H_    0.331702 0.999689 0.223716 0.186970
H40   H     H_    0.263209 0.912645 0.046398 0.276200
H41   H     H_    0.217973 0.023471 0.050156 0.202787
H42   H     H_    0.296858 0.995840 0.922965 0.267426
H43   H     H_    0.867166 0.583381 0.101751 0.113095
H44   H     H_    0.831701 0.499690 0.223717 0.186970
H45   H     H_    0.229170 0.110017 0.389866 0.119148
H46   H     H_    0.763206 0.412656 0.046388 0.276205
H47   H     H_    0.717974 0.523483 0.050157 0.202786
H48   H     H_    0.796859 0.495856 0.922964 0.267424
H49   H     H_    0.315466 0.794790 0.300402 0.185785
H50   H     H_    0.729171 0.610018 0.389863 0.119149
H51   H     H_    0.815475 0.294781 0.300402 0.185790
H52   H     H_    0.451938 0.037333 0.893026 0.160435
N1    N     N_2   0.501330 0.000000 0.852150 -0.178870
N2    N     N_2   0.001330 0.500000 0.852150 -0.178871
N3    N     N_2   0.501360 0.000000 0.147810 0.053192
N4    N     N_2   0.001360 0.500000 0.147810 0.053188
O1    O     O_R   0.409520 0.909540 0.613040 -0.574776
O2    O     O_R   0.590440 0.909540 0.613100 -0.564652
O3    O     O_R   0.090440 0.590460 0.613100 -0.604567
O4    O     O_R   0.090440 0.409540 0.613100 -0.564655
O5    O     O_R   0.590480 0.090460 0.386960 -0.579571
O6    O     O_R   0.590480 0.909540 0.386960 -0.553888
O7    O     O_R   0.090480 0.590460 0.386960 -0.579564
O8    O     O_R   0.090480 0.409540 0.386960 -0.553889
O9    O     O_3   0.634876 0.764302 0.282164 -0.577773
O10   O     O_3   0.752660 0.119825 0.304152 -0.613357
O11   O     O_3   0.134875 0.264300 0.282166 -0.577773
O12   O     O_R   0.409520 0.090460 0.613040 -0.614417
O13   O     O_3   0.252653 0.619834 0.304139 -0.613355
O14   O     O_3   0.646331 0.952209 0.861572 -0.587303
O15   O     O_3   0.146328 0.452200 0.861577 -0.587312
O16   O     O_3   0.430214 0.959747 0.093756 -0.539222
O17   O     O_3   0.930213 0.459750 0.093756 -0.539222
O18   O     O_R   0.909520 0.409540 0.613040 -0.574771
O19   O     O_R   0.909520 0.590460 0.613040 -0.614415
O20   O     O_R   0.409560 0.909540 0.386900 -0.629792
O21   O     O_R   0.409560 0.090460 0.386900 -0.661785
O22   O     O_R   0.909560 0.409540 0.386900 -0.629791
O23   O     O_R   0.909560 0.590460 0.386900 -0.661786
O24   O     O_R   0.590440 0.090460 0.613100 -0.604551
Zn1   Zn    Zn3+2 0.499970 0.000000 0.650990 1.020757
Zn2   Zn    Zn3+2 0.999970 0.500000 0.650990 1.020750
Zn3   Zn    Zn3+2 0.500030 0.000000 0.349010 1.009572
Zn4   Zn    Zn3+2 0.000030 0.500000 0.349010 1.009572

loop_
_geom_bond_atom_site_label_1
_geom_bond_atom_site_label_2
_ccdc_geom_bond_type
O2    Zn1   S    
C37   H41   S    
C25   O10   S    
C29   O13   S    
C7    C43   S    
N3    O16   S    
O24   Zn1   S    
C34   O23   A    
C24   H8    S    
C1    O1    A    
C24   H9    S    
C3    C7    D    
C1    O20   A    
C31   H27   S    
Br1   C14   S    
C18   N1    D    
C9    C14   D    
C36   H39   S    
C35   H36   S    
C32   H29   S    
C19   O15   S    
C23   O22   A    
C7    H23   S    
C19   N2    D    
C36   H38   S    
C43   O8    A    
C12   O12   A    
C39   H46   S    
C27   H17   S    
C38   H43   S    
C3    O11   S    
C37   H40   S    
O23   Zn4   S    
C2    O10   S    
C24   H7    S    
O12   Zn1   S    
C25   H11   S    
O5    Zn3   S    
C39   H47   S    
C12   O21   A    
O4    Zn2   S    
C34   O19   A    
C29   H21   S    
C28   H20   S    
C40   O5    A    
C20   H3    S    
C37   H42   S    
C17   C23   S    
C42   O7    A    
C33   H33   S    
C11   C44   S    
O3    Zn2   S    
C22   H6    S    
C27   O11   S    
C23   O18   A    
C4    O13   S    
C39   H48   S    
C11   C16   D    
C33   H32   S    
C31   H28   S    
C6    C40   S    
O6    Zn3   S    
C5    H1    S    
C8    C42   S    
C41   O6    A    
C10   C15   D    
O1    Zn1   S    
N4    O17   S    
C13   C17   D    
O20   Zn3   S    
C9    H45   S    
C31   C32   S    
C6    H12   S    
C25   C26   S    
C16   C34   S    
O21   Zn3   S    
C27   C28   S    
C33   O15   S    
O22   Zn4   S    
C4    C8    D    
C42   O3    A    
C29   C30   S    
C8    H34   S    
Br3   C16   S    
O8    Zn4   S    
C13   H51   S    
C29   H22   S    
C30   H26   S    
C28   H19   S    
C36   C37   S    
C36   O16   S    
H2    N2    S    
C26   H14   S    
O19   Zn2   S    
C18   C20   S    
C38   C39   S    
C35   H37   S    
C11   H50   S    
C22   H5    S    
C30   H24   S    
C41   O2    A    
C10   H49   S    
C28   H18   S    
C18   O14   S    
C2    C13   S    
C40   O24   A    
C4    C10   S    
Br2   C15   S    
C27   H16   S    
N2    Zn2   S    
C32   H31   S    
C2    C6    D    
C21   N4    D    
C1    C15   S    
C22   C24   S    
C20   N3    D    
C21   H4    S    
C35   H35   S    
C33   C35   S    
C32   H30   S    
Br4   C17   S    
C5    C41   S    
H52   N1    S    
C38   H44   S    
C19   C21   S    
C22   O9    S    
C30   H25   S    
O7    Zn4   S    
C3    C9    S    
C25   H10   S    
C5    C44   D    
C12   C14   S    
C43   O4    A    
N4    Zn4   S    
C26   H13   S    
C31   O14   S    
C26   H15   S    
N3    Zn3   S    
O18   Zn2   S    
C38   O17   S    
C44   O9    S    
N1    Zn1   S    
