data_mof_unit_66472.cif
_audit_creation_date              2012-12-10T19:25:21-0500
_audit_creation_method            fapswitch 2.2
_symmetry_space_group_name_H-M    P1
_symmetry_Int_Tables_number       1
_space_group_crystal_system       triclinic
_cell_length_a                    18.786014
_cell_length_b                    18.767875
_cell_length_c                    18.736222
_cell_angle_alpha                 109.54146
_cell_angle_beta                  109.232366
_cell_angle_gamma                 109.548181
_cell_volume                      5090.92767702

loop_
_atom_site_label
_atom_site_type_symbol
_atom_type_description
_atom_site_fract_x
_atom_site_fract_y
_atom_site_fract_z
_atom_type_partial_charge
C1    C     C_R   0.880700 0.380090 0.000587 0.898599
C2    C     C_R   0.182610 0.498444 0.184318 -0.093698
C3    C     C_R   0.174641 0.418510 0.176358 -0.224179
C4    C     C_R   0.882195 0.501499 0.879884 0.943322
C5    C     C_R   0.238933 0.418468 0.240854 -0.217253
C6    C     C_R   0.312142 0.498318 0.311313 -0.094537
C7    C     C_R   0.317796 0.575073 0.315542 0.128063
C8    C     C_3   0.372072 0.672009 0.367305 -0.480661
C9    C     C_3   0.300040 0.672058 0.297547 -0.496213
C10   C     C_R   0.243407 0.766890 0.071564 0.087964
C11   C     C_R   0.184966 0.685101 0.998269 -0.094509
C12   C     C_R   0.817585 0.314185 0.002542 -0.115998
C13   C     C_R   0.192119 0.667393 0.922349 -0.207530
C14   C     C_R   0.256617 0.732352 0.922422 -0.210021
C15   C     C_R   0.315048 0.813869 0.998977 -0.083794
C16   C     C_R   0.119869 0.620005 0.999657 0.879594
C17   C     C_R   0.306830 0.828095 0.072302 0.052668
C18   C     C_3   0.340913 0.894314 0.164263 -0.121039
C19   C     C_3   0.268653 0.823375 0.163627 -0.453151
C20   C     C_R   0.496853 0.379686 0.376736 0.875532
C21   C     C_R   0.616215 0.502258 0.619069 0.950521
C22   C     C_R   0.495747 0.619847 0.615893 0.882749
C23   C     C_R   0.828825 0.245562 0.009962 0.097994
C24   C     C_R   0.377653 0.499828 0.377524 0.879656
C25   C     C_R   0.500237 0.879837 0.880488 0.884535
C26   C     C_R   0.620020 0.119695 0.999686 0.895809
C27   C     C_R   0.499794 0.120270 0.119655 0.872392
C28   C     C_R   0.119053 0.500030 0.119325 0.881017
C29   C     C_R   0.380225 0.880516 0.000425 0.874676
C30   C     C_R   0.576053 0.319648 0.320013 0.114516
C31   C     C_R   0.497377 0.312432 0.312505 -0.090665
C32   C     C_R   0.418935 0.234931 0.247146 -0.210174
C33   C     C_R   0.419321 0.170751 0.183112 -0.228529
C34   C     C_R   0.762593 0.180523 0.008786 -0.262147
C35   C     C_R   0.498416 0.183528 0.186489 -0.083512
C36   C     C_R   0.576587 0.255073 0.258115 0.140206
C37   C     C_3   0.651243 0.319182 0.259846 -0.513885
C38   C     C_3   0.650408 0.390528 0.327928 -0.461494
C39   C     C_R   0.571186 0.761876 0.746960 0.139543
C40   C     C_2   0.756074 0.579911 0.754605 0.139934
C41   C     C_R   0.495004 0.684948 0.681423 -0.106063
C42   C     C_R   0.417044 0.671621 0.682523 -0.215891
C43   C     C_R   0.418224 0.736339 0.748502 -0.220157
C44   C     C_R   0.497722 0.812702 0.814481 -0.087732
C45   C     C_R   0.686218 0.183634 0.998776 -0.126438
C46   C     C_R   0.572720 0.822287 0.811780 0.128351
C47   C     C_3   0.667989 0.882540 0.855332 -0.517312
C48   C     C_3   0.666575 0.812628 0.781468 -0.467994
C49   C     C_2   0.680253 0.506656 0.691834 -0.335402
C50   C     C_2   0.816271 0.577475 0.826261 -0.214214
C51   C     C_2   0.822602 0.505637 0.811506 -0.361674
C52   C     C_R   0.742147 0.315012 0.994567 0.087997
C53   C     C_R   0.678512 0.251621 0.991028 0.128294
C54   C     C_3   0.621443 0.290924 0.981528 -0.472245
C55   C     C_3   0.694201 0.363296 0.984440 -0.479315
C56   C     C_R   0.254729 0.575160 0.255528 0.132596
H1    H     H_    0.119052 0.356988 0.121394 0.158609
H2    H     H_    0.358413 0.112666 0.130325 0.151160
H3    H     H_    0.710526 0.313969 0.286018 0.210200
H4    H     H_    0.709354 0.426686 0.393344 0.202058
H5    H     H_    0.631510 0.432135 0.304667 0.214288
H6    H     H_    0.355847 0.612477 0.632323 0.163482
H7    H     H_    0.858116 0.636077 0.890143 0.168441
H8    H     H_    0.358041 0.726640 0.748534 0.150147
H9    H     H_    0.682945 0.944040 0.853090 0.202427
H10   H     H_    0.703968 0.890763 0.920596 0.210616
H11   H     H_    0.681593 0.834050 0.737077 0.211714
H12   H     H_    0.232289 0.356900 0.235133 0.156188
H13   H     H_    0.701142 0.780023 0.804029 0.199973
H14   H     H_    0.770281 0.127832 0.015072 0.156013
H15   H     H_    0.560556 0.249407 0.917193 0.211762
H16   H     H_    0.612758 0.313862 0.039321 0.193967
H17   H     H_    0.675611 0.363152 0.921568 0.201117
H18   H     H_    0.787378 0.706064 0.814462 0.161363
H19   H     H_    0.835915 0.683809 0.755397 0.188421
H20   H     H_    0.727048 0.428207 0.043544 0.211956
H21   H     H_    0.377112 0.699084 0.432506 0.201324
H22   H     H_    0.434764 0.696003 0.367281 0.212036
H23   H     H_    0.263949 0.699936 0.322537 0.212257
H24   H     H_    0.434671 0.861186 0.208830 0.203514
H25   H     H_    0.472545 0.958932 0.214393 0.208694
H26   H     H_    0.333276 0.952044 0.170596 0.160671
H27   H     H_    0.357460 0.226111 0.243196 0.156899
H28   H     H_    0.633076 0.319412 0.197124 0.196003
H29   H     H_    0.788000 0.450355 0.745825 0.156112
H30   H     H_    0.958089 0.296039 0.081206 0.165656
H31   H     H_    0.903201 0.186780 0.021387 0.176751
H32   H     H_    0.321003 0.695234 0.256734 0.194737
H33   H     H_    0.147606 0.604517 0.863250 0.164381
H34   H     H_    0.261332 0.718965 0.863734 0.143737
H35   H     H_    0.660697 0.448344 0.697628 0.132956
H36   H     H_    0.292486 0.798180 0.206738 0.196972
H37   H     H_    0.217719 0.839214 0.167890 0.189100
N1    N     N_3   0.777038 0.661196 0.755567 -0.429773
N2    N     N_3   0.428571 0.917070 0.224092 -0.432078
N3    N     N_3   0.907119 0.243215 0.020142 -0.435145
O1    O     O_R   0.908050 0.460100 0.051390 -0.628404
O2    O     O_R   0.551950 0.908320 0.960240 -0.621948
O3    O     O_R   0.540220 0.091590 0.948580 -0.620869
O4    O     O_R   0.908730 0.356680 0.948620 -0.602304
O5    O     O_R   0.643000 0.091540 0.051310 -0.626970
O6    O     O_R   0.448050 0.091580 0.039660 -0.622318
O7    O     O_R   0.550830 0.091520 0.142390 -0.625925
O8    O     O_R   0.357000 0.908370 0.948590 -0.624325
O9    O     O_R   0.459780 0.908310 0.051320 -0.629450
O10   O     O_R   0.908630 0.551710 0.960350 -0.619706
O11   O     O_R   0.909310 0.448290 0.857570 -0.626535
O12   O     O_R   0.445680 0.356610 0.405790 -0.625720
O13   O     O_R   0.091270 0.643320 0.051380 -0.626988
O14   O     O_R   0.091950 0.539900 0.948610 -0.627287
O15   O     O_R   0.090690 0.551710 0.142430 -0.624802
O16   O     O_R   0.091370 0.448290 0.039650 -0.618994
O17   O     O_R   0.549120 0.460050 0.405790 -0.625473
O18   O     O_R   0.639540 0.551640 0.587850 -0.593383
O19   O     O_R   0.536110 0.448210 0.587860 -0.628901
O20   O     O_R   0.547900 0.643240 0.587840 -0.622683
O21   O     O_R   0.444470 0.539800 0.587850 -0.624773
O22   O     O_R   0.457480 0.551640 0.405780 -0.623213
O23   O     O_R   0.354050 0.448210 0.405780 -0.628351
O24   O     O_R   0.449170 0.908380 0.857510 -0.623559
Zn1   Zn    Zn3+2 0.999540 0.569060 0.068630 0.940573
Zn2   Zn    Zn3+2 0.000460 0.430940 0.931370 0.962838
Zn3   Zn    Zn3+2 0.565860 0.568990 0.496810 0.951928
Zn4   Zn    Zn3+2 0.427730 0.430860 0.496820 0.949286
Zn5   Zn    Zn3+2 0.431370 0.999990 0.931350 0.949947
Zn6   Zn    Zn3+2 0.568630 0.999910 0.068550 0.940498

loop_
_geom_bond_atom_site_label_1
_geom_bond_atom_site_label_2
_ccdc_geom_bond_type
C22   O21   A    
C33   H2    S    
C18   N2    S    
O20   Zn3   S    
O15   Zn1   S    
C41   C42   A    
H18   N1    S    
C35   C36   A    
C48   H13   S    
C21   O19   A    
O6    Zn5   S    
C51   H29   S    
C21   C49   S    
C16   O14   A    
C7    C8    S    
C39   C41   A    
O23   Zn4   S    
C28   O16   A    
C12   C23   A    
C30   C38   S    
O9    Zn6   S    
C36   C37   S    
O21   Zn4   S    
O12   Zn4   S    
C26   O5    A    
C30   C31   A    
H25   N2    S    
C22   C41   S    
C10   C17   A    
C40   C49   D    
C23   N3    S    
C25   C44   S    
C18   C19   S    
C9    H23   S    
O7    Zn6   S    
C14   H34   S    
O1    Zn1   S    
C19   H36   S    
C26   C45   S    
C33   C35   A    
C46   C47   S    
O8    Zn5   S    
C47   C48   S    
C8    C9    S    
O5    Zn6   S    
C43   H8    S    
C37   H28   S    
C42   H6    S    
C47   H10   S    
C19   H37   S    
C52   C55   S    
C26   O3    A    
C38   H5    S    
C22   O20   A    
C45   C53   A    
C13   C14   A    
C8    H22   S    
C50   H7    S    
C29   O9    A    
C1    C12   S    
C7    C56   A    
C49   H35   S    
C5    H12   S    
C1    O4    A    
C12   C52   A    
C44   C46   A    
C16   O13   A    
C15   C29   S    
C28   O15   A    
C4    O11   A    
C54   H15   S    
C4    C51   S    
O3    Zn5   S    
C1    O1    A    
C9    C56   S    
O24   Zn5   S    
C27   C35   S    
C53   C54   S    
C4    O10   A    
C29   O8    A    
C43   C44   A    
O16   Zn2   S    
C37   C38   S    
C11   C16   S    
C31   C32   A    
O17   Zn3   S    
C10   C19   S    
C23   C34   A    
C6    C24   S    
H31   N3    S    
C17   C18   S    
C50   C51   D    
C34   C45   A    
H24   N2    S    
C37   H3    S    
H30   N3    S    
C39   C46   A    
C38   H4    S    
O18   Zn3   S    
C3    H1    S    
C8    H21   S    
C42   C43   A    
C55   H20   S    
C25   O24   A    
C52   C53   A    
C15   C17   A    
C32   H27   S    
C34   H14   S    
C54   C55   S    
C24   O23   A    
O19   Zn4   S    
C13   H33   S    
C40   N1    S    
C21   O18   A    
C3    C5    A    
C6    C7    A    
C27   O6    A    
C24   O22   A    
C30   C36   A    
C32   C33   A    
C2    C3    A    
C9    H32   S    
C2    C56   A    
O14   Zn2   S    
C11   C13   A    
O13   Zn1   S    
C5    C6    A    
C40   C50   S    
O10   Zn1   S    
C27   O7    A    
C18   H26   S    
O4    Zn2   S    
O22   Zn3   S    
C48   H11   S    
C20   O17   A    
C10   C11   A    
C55   H17   S    
C25   O2    A    
O2    Zn6   S    
C54   H16   S    
C14   C15   A    
C2    C28   S    
O11   Zn2   S    
C47   H9    S    
H19   N1    S    
C39   C48   S    
C20   O12   A    
C20   C31   S    
