data_mof_unit_28320.cif
_audit_creation_date              2012-12-11T14:58:42-0500
_audit_creation_method            fapswitch 2.2
_symmetry_space_group_name_H-M    P1
_symmetry_Int_Tables_number       1
_space_group_crystal_system       triclinic
_cell_length_a                    11.059403
_cell_length_b                    11.040628
_cell_length_c                    18.689732
_cell_angle_alpha                 90.185895
_cell_angle_beta                  90.88942
_cell_angle_gamma                 59.372851
_cell_volume                      1963.45552266

loop_
_atom_site_label
_atom_site_type_symbol
_atom_type_description
_atom_site_fract_x
_atom_site_fract_y
_atom_site_fract_z
_atom_type_partial_charge
C1    C     C_R   0.385282 0.710579 0.389519 0.534499
C2    C     C_R   0.256294 0.435808 0.200112 -0.179668
C3    C     C_R   0.235725 0.442493 0.274042 -0.069107
C4    C     C_R   0.379943 0.351774 0.389517 0.583732
C5    C     C_R   0.812230 0.711402 0.349590 -0.026761
C6    C     C_R   0.836309 0.634612 0.286571 -0.108777
C7    C     C_R   0.973200 0.551748 0.261611 -0.081657
C8    C     C_R   0.088104 0.544254 0.299169 0.037790
C9    C     C_R   0.340217 0.329758 0.316645 0.067336
C10   C     C_R   0.909980 0.304138 0.310572 0.294784
C11   C     C_R   0.955939 0.275520 0.240292 0.076330
C12   C     C_R   0.619789 0.087446 0.186107 0.069393
C13   C     C_R   0.858335 0.335378 0.183189 -0.015392
C14   C     C_R   0.714564 0.411575 0.195811 -0.167369
C15   C     C_R   0.668372 0.433268 0.265792 -0.178227
C16   C     C_R   0.714657 0.415380 0.394738 0.547754
C17   C     C_R   0.765550 0.385926 0.322758 0.056884
C18   C     C_R   0.468760 0.783773 0.284334 -0.086272
C19   C     C_R   0.464287 0.813492 0.211901 -0.113309
C20   C     C_R   0.369447 0.801705 0.166630 0.025610
C21   C     C_R   0.296102 0.739170 0.193421 -0.123425
C22   C     C_R   0.297985 0.714739 0.266055 -0.137787
C23   C     C_R   0.365733 0.316477 0.166851 -0.032091
C24   C     C_R   0.381230 0.740841 0.312833 0.027738
C25   C     C_R   0.359331 0.206279 0.692180 0.234160
C26   C     C_R   0.344017 0.192949 0.764239 -0.110466
C27   C     C_R   0.296267 0.309877 0.809657 -0.009413
C28   C     C_R   0.346032 0.767557 0.604640 0.594604
C29   C     C_R   0.252297 0.443355 0.782539 0.056535
C30   C     C_R   0.273487 0.455822 0.710963 -0.128567
C31   C     C_R   0.328663 0.337196 0.666000 0.039140
C32   C     C_R   0.911750 0.391973 0.707707 0.070638
C33   C     C_R   0.949178 0.371955 0.779352 -0.127330
C34   C     C_R   0.440892 0.204781 0.282963 0.285886
C35   C     C_R   0.922212 0.284767 0.821446 -0.029229
C36   C     C_R   0.870052 0.205526 0.790450 -0.136189
C37   C     C_R   0.836831 0.218579 0.717990 0.035091
C38   C     C_R   0.847070 0.320981 0.676742 0.034744
C39   C     C_R   0.192887 0.877514 0.706845 -0.113480
C40   C     C_R   0.370584 0.351126 0.595727 0.609594
C41   C     C_R   0.178325 0.894126 0.779856 -0.109745
C42   C     C_R   0.296445 0.851240 0.824304 0.039915
C43   C     C_R   0.430023 0.793299 0.795094 -0.131258
C44   C     C_R   0.445184 0.775383 0.721883 -0.092812
C45   C     C_R   0.472043 0.202119 0.210385 0.019303
C46   C     C_R   0.326421 0.816327 0.677589 0.055134
C47   C     C_R   0.909059 0.316383 0.111000 0.564234
C48   C     C_R   0.331125 0.291800 0.093321 0.570432
C49   C     C_R   0.313330 0.887511 0.101348 0.564784
C50   C     C_R   0.948781 0.280513 0.897723 0.560064
C51   C     C_R   0.292408 0.285688 0.884449 0.566962
C52   C     C_R   0.769488 0.372997 0.608922 0.580345
C53   C     C_R   0.274432 0.895653 0.897886 0.543931
C54   C     C_R   0.892817 0.892180 0.134417 -0.129235
C55   C     C_R   0.877913 0.976983 0.192529 -0.053014
C56   C     C_R   0.055108 0.639821 0.355932 -0.074029
C57   C     C_R   0.744643 0.067941 0.220580 0.259680
C58   C     C_R   0.920712 0.718261 0.382505 -0.052835
C59   C     C_R   0.643040 0.984635 0.134143 -0.102282
C60   C     C_R   0.775824 0.891982 0.107111 -0.145113
Cl1   Cl    Cl    0.516795 0.045156 0.331422 -0.562525
Cl2   Cl    Cl    0.032002 0.237989 0.383209 -0.454930
Cl3   Cl    Cl    0.419582 0.057719 0.636812 -0.538704
Cl4   Cl    Cl    0.747766 0.124626 0.307092 -0.576652
Cr1   Cr    Cr6+3 0.601770 0.606860 0.505860 1.094097
Cr2   Cr    Cr6+3 0.291380 0.601660 0.495070 1.034210
Cr3   Cr    Cr6+3 0.606880 0.291510 0.499120 1.165200
Cr4   Cr    Cr6+3 0.062440 0.063090 0.008210 1.039585
Cr5   Cr    Cr6+3 0.062880 0.375170 0.998920 1.038588
Cr6   Cr    Cr6+3 0.374700 0.061720 0.992470 1.012870
H1    H     H_    0.711209 0.768481 0.373808 0.171442
H2    H     H_    0.232996 0.677505 0.285269 0.117910
H3    H     H_    0.370652 0.090632 0.785088 0.165161
H4    H     H_    0.248525 0.558044 0.690795 0.171016
H5    H     H_    0.993373 0.430615 0.803231 0.174169
H6    H     H_    0.851950 0.135328 0.822868 0.164879
H7    H     H_    0.100820 0.907420 0.673573 0.174505
H8    H     H_    0.900448 0.786324 0.428168 0.153003
H9    H     H_    0.074600 0.939565 0.801781 0.162493
H10   H     H_    0.521779 0.763307 0.828750 0.144674
H11   H     H_    0.550174 0.725200 0.700408 0.177858
H12   H     H_    0.750622 0.635946 0.257688 0.107782
H13   H     H_    0.995612 0.820106 0.113540 0.124651
H14   H     H_    0.971295 0.966187 0.218401 0.170277
H15   H     H_    0.127263 0.663864 0.378536 0.182189
H16   H     H_    0.561335 0.968892 0.115080 0.180124
H17   H     H_    0.175631 0.519440 0.167089 0.132238
H18   H     H_    0.989444 0.492249 0.213215 0.143883
H19   H     H_    0.638933 0.452456 0.151883 0.128734
H20   H     H_    0.557524 0.483760 0.275648 0.105201
H21   H     H_    0.535460 0.800373 0.318829 0.175992
H22   H     H_    0.525501 0.856780 0.194063 0.133142
H23   H     H_    0.226147 0.722191 0.159420 0.118168
H24   H     H_    0.787970 0.817878 0.065739 0.124939
I1    I     I_    0.172972 0.151007 0.221760 -0.243412
I2    I     I_    0.155076 0.625844 0.846932 -0.362257
I3    I     I_    0.948758 0.542044 0.655299 -0.272137
I4    I     I_    0.768500 0.079710 0.681451 -0.261813
O1    O     O_R   0.748800 0.497470 0.428000 -0.496864
O2    O     O_R   0.417600 0.174890 0.067840 -0.528827
O3    O     O_R   0.375320 0.946260 0.070860 -0.519517
O4    O     O_R   0.476420 0.724060 0.429470 -0.488322
O5    O     O_R   0.160600 0.919630 0.926660 -0.508117
O6    O     O_R   0.933060 0.190520 0.936020 -0.502489
O7    O     O_R   0.908880 0.403460 0.925020 -0.504599
O8    O     O_R   0.179600 0.361450 0.918490 -0.496500
O9    O     O_R   0.391510 0.170860 0.907530 -0.512786
O10   O     O_R   0.351130 0.942530 0.922260 -0.520736
O11   O     O_3   0.166667 0.166667 0.999870 -0.280134
O12   O     O_R   0.300070 0.471040 0.567100 -0.509059
O13   O     O_R   0.264580 0.744340 0.416750 -0.497142
O14   O     O_R   0.309380 0.472470 0.418200 -0.566636
O15   O     O_R   0.501710 0.260430 0.414300 -0.409531
O16   O     O_R   0.728090 0.305600 0.428960 -0.404317
O17   O     O_R   0.738760 0.495930 0.588610 -0.481478
O18   O     O_R   0.467110 0.722640 0.578360 -0.466220
O19   O     O_R   0.254530 0.742800 0.577360 -0.511804
O20   O     O_R   0.491670 0.258900 0.574910 -0.433618
O21   O     O_R   0.718780 0.304180 0.577850 -0.474378
O22   O     O_3   0.500010 0.500010 0.500020 -0.350081
O23   O     O_R   0.186690 0.923650 0.086970 -0.510453
O24   O     O_R   0.957250 0.194250 0.084630 -0.473849
O25   O     O_R   0.934970 0.407490 0.085330 -0.522536
O26   O     O_R   0.203780 0.365190 0.067090 -0.488750

loop_
_geom_bond_atom_site_label_1
_geom_bond_atom_site_label_2
_ccdc_geom_bond_type
C25   C31   A    
C40   O20   A    
C4    C9    S    
C50   O6    A    
C6    H12   S    
C27   C29   A    
C41   C42   A    
C19   C20   A    
Cr4   O5    S    
C8    C56   A    
Cr6   O3    S    
C7    C8    A    
C39   C41   A    
C54   C60   A    
C32   I3    S    
C28   C46   S    
C26   C27   A    
C29   C30   A    
C5    C58   A    
C23   C45   A    
C18   H21   S    
C39   H7    S    
C36   C37   A    
C37   C38   A    
Cr6   O9    S    
C42   C53   S    
C49   O3    A    
C30   C31   A    
C30   H4    S    
C38   C52   S    
Cr5   O25   S    
C10   C17   A    
C26   H3    S    
C31   C40   S    
C18   C19   A    
C25   Cl3   S    
C37   I4    S    
C19   H22   S    
C36   H6    S    
C12   C59   A    
Cr5   O11   S    
C33   H5    S    
C35   C36   A    
C44   C46   A    
C16   C17   S    
Cr2   O19   S    
C50   O7    A    
C32   C38   A    
Cr2   O13   S    
C28   O18   A    
Cr3   O22   S    
C4    O14   A    
C59   C60   A    
Cr2   O22   S    
C13   C14   A    
Cr1   O17   S    
C10   Cl2   S    
Cr1   O4    S    
C22   H2    S    
C54   H13   S    
C27   C51   S    
C48   O2    A    
C4    O15   A    
Cr1   O1    S    
C44   H11   S    
Cr4   O24   S    
C13   C47   S    
Cr5   O7    S    
C47   O24   A    
C40   O12   A    
Cr5   O26   S    
C43   H10   S    
C34   Cl1   S    
C43   C44   A    
C14   H19   S    
C41   H9    S    
C20   C49   S    
C3    C9    A    
Cr6   O11   S    
C47   O25   A    
C7    H18   S    
C49   O23   A    
C35   C50   S    
C2    H17   S    
C34   C45   A    
Cr2   O12   S    
C39   C46   A    
C12   C57   A    
C3    C8    S    
C55   C57   A    
C9    C34   A    
Cr1   O18   S    
C18   C24   A    
C42   C43   A    
C57   Cl4   S    
C52   O17   A    
C11   I1    S    
C15   C17   A    
C54   C55   A    
C23   C48   S    
Cr3   O16   S    
Cr4   O6    S    
C12   C45   S    
C16   O16   A    
Cr4   O23   S    
C48   O26   A    
C29   I2    S    
Cr5   O8    S    
C16   O1    A    
C6    C7    A    
C28   O19   A    
C32   C33   A    
Cr6   O2    S    
C2    C3    A    
C25   C26   A    
C59   H16   S    
C5    H1    S    
Cr6   O10   S    
C1    O13   A    
C15   H20   S    
C11   C13   A    
C53   O10   A    
C56   H15   S    
C5    C6    A    
C21   H23   S    
C53   O5    A    
C51   O8    A    
C33   C35   A    
Cr1   O22   S    
C56   C58   A    
C22   C24   A    
Cr4   O11   S    
Cr3   O15   S    
Cr3   O20   S    
C10   C11   A    
C58   H8    S    
C52   O21   A    
C20   C21   A    
C1    C24   S    
C51   O9    A    
C2    C23   A    
C14   C15   A    
Cr2   O14   S    
C55   H14   S    
C21   C22   A    
Cr3   O21   S    
C1    O4    A    
C60   H24   S    
