data_mof_unit_37491.cif
_audit_creation_date              2012-12-10T20:51:41-0500
_audit_creation_method            fapswitch 2.2
_symmetry_space_group_name_H-M    P1
_symmetry_Int_Tables_number       1
_space_group_crystal_system       triclinic
_cell_length_a                    8.109148
_cell_length_b                    8.927946
_cell_length_c                    16.643397
_cell_angle_alpha                 89.510503
_cell_angle_beta                  95.552585
_cell_angle_gamma                 90.07268
_cell_volume                      1199.25151433

loop_
_atom_site_label
_atom_site_type_symbol
_atom_type_description
_atom_site_fract_x
_atom_site_fract_y
_atom_site_fract_z
_atom_type_partial_charge
C1    C     C_R   0.499919 0.218001 0.500043 1.006909
C2    C     C_R   0.500112 0.781996 0.500106 0.904634
C3    C     C_R   0.523075 0.498465 0.654070 0.941292
C4    C     C_R   0.476930 0.499661 0.345926 0.936431
C5    C     C_R   0.541854 0.477133 0.740707 -0.236152
C6    C     C_R   0.457396 0.476569 0.259499 -0.254761
C7    C     C_R   0.478032 0.345579 0.773474 0.259112
C8    C     C_R   0.531023 0.349626 0.227892 0.258187
C9    C     C_R   0.491710 0.324606 0.857036 0.376406
C10   C     C_R   0.509507 0.323636 0.145006 0.375720
C11   C     C_R   0.567082 0.436444 0.907121 0.141064
C12   C     C_R   0.416272 0.425537 0.094280 0.139700
C13   C     C_R   0.638022 0.562176 0.874246 -0.221498
C14   C     C_R   0.334058 0.544542 0.126385 -0.224751
C15   C     C_R   0.625540 0.584801 0.791142 0.122966
C16   C     C_R   0.353360 0.571771 0.208961 0.143767
C17   C     C_1   0.499924 0.065198 0.500142 -0.107825
C18   C     C_1   0.500145 0.934796 0.500171 -0.149112
H1    H     H_    0.697279 0.646223 0.913867 0.201395
H2    H     H_    0.262983 0.621897 0.086211 0.200381
N1    N     N_1   0.073640 0.500030 0.499990 -0.012630
N2    N     N_1   0.926360 0.499970 0.500010 -0.011505
N3    N     N_2   0.563158 0.431260 0.991085 -0.093342
N4    N     N_2   0.418896 0.421370 0.010251 -0.081649
O1    O     O_R   0.636850 0.285340 0.500000 -0.593123
O2    O     O_R   0.363150 0.714660 0.500000 -0.621054
O3    O     O_R   0.363100 0.285350 0.500000 -0.594285
O4    O     O_R   0.636900 0.714650 0.500000 -0.621189
O5    O     O_R   0.652140 0.498630 0.616140 -0.630829
O6    O     O_R   0.347860 0.501370 0.383860 -0.625877
O7    O     O_R   0.378390 0.498650 0.616130 -0.575521
O8    O     O_R   0.621610 0.501350 0.383870 -0.578524
Zn1   Zn    Zn3+2 0.682780 0.499990 0.500010 1.039779
Zn2   Zn    Zn3+2 0.317220 0.500010 0.499990 1.039060
Cl1   Cl    Cl    0.645870 0.219501 0.291783 -0.541739
Cl2   Cl    Cl    0.383046 0.205303 0.710137 -0.577060
Cl3   Cl    Cl    0.598909 0.164021 0.104464 -0.441450
Cl4   Cl    Cl    0.416207 0.158357 0.898841 -0.472061
N5    N     N_2   0.692688 0.718526 0.760050 -0.309591
H3    H     H_    0.738276 0.709391 0.704688 0.244169
C19   C     C_3   0.590627 0.849982 0.765629 -0.602452
H4    H     H_    0.656386 0.949824 0.744434 0.258882
H5    H     H_    0.565362 0.868840 0.829173 0.284116
H6    H     H_    0.471615 0.836804 0.727205 0.240314
N6    N     N_2   0.276739 0.700722 0.239078 -0.276586
H7    H     H_    0.334304 0.744761 0.291590 0.230279
C20   C     C_3   0.098662 0.690653 0.239056 -0.625222
H8    H     H_    0.049768 0.797983 0.260211 0.248483
H9    H     H_    0.065511 0.599128 0.280241 0.241768
H10   H     H_    0.039511 0.669518 0.177176 0.244973

loop_
_geom_bond_atom_site_label_1
_geom_bond_atom_site_label_2
_ccdc_geom_bond_type
C16   N6    S    
C3    O7    A    
N3    N4    D    
C7    C9    A    
C14   H2    S    
C2    C18   S    
C9    C11   A    
C7    Cl2   S    
C12   N4    S    
C1    C17   S    
C20   H8    S    
O8    Zn1   S    
N6    C20   S    
C17   C18   T    
O7    Zn2   S    
C20   H9    S    
N1    N2    T    
C1    O1    A    
C19   H5    S    
C15   N5    S    
C4    O8    A    
C10   C12   A    
C10   Cl3   S    
C11   N3    S    
C9    Cl4   S    
C12   C14   A    
O4    Zn1   S    
C20   H10   S    
C5    C7    A    
C13   C15   A    
O3    Zn2   S    
C19   H6    S    
C14   C16   A    
C5    C15   A    
C4    C6    S    
C2    O4    A    
O6    Zn2   S    
C6    C16   A    
O5    Zn1   S    
C11   C13   A    
C3    O5    A    
N5    C19   S    
C2    O2    A    
C19   H4    S    
N5    H3    S    
C1    O3    A    
N2    Zn1   S    
C13   H1    S    
C6    C8    A    
N1    Zn2   S    
N6    H7    S    
O2    Zn2   S    
C8    C10   A    
C4    O6    A    
O1    Zn1   S    
C3    C5    S    
C8    Cl1   S    
