data_mof_unit_60198.cif
_audit_creation_date              2012-12-10T21:13:12-0500
_audit_creation_method            fapswitch 2.2
_symmetry_space_group_name_H-M    P1
_symmetry_Int_Tables_number       1
_space_group_crystal_system       triclinic
_cell_length_a                    17.593092
_cell_length_b                    16.910384
_cell_length_c                    14.942965
_cell_angle_alpha                 90.000382
_cell_angle_beta                  92.085583
_cell_angle_gamma                 89.999977
_cell_volume                      4442.67601385

loop_
_atom_site_label
_atom_site_type_symbol
_atom_type_description
_atom_site_fract_x
_atom_site_fract_y
_atom_site_fract_z
_atom_type_partial_charge
C1    C     C_R   0.353461 0.500000 0.500792 0.891155
C2    C     C_R   0.646539 0.500000 0.499208 0.891155
C3    C     C_R   0.359939 0.499989 0.034812 -0.231512
C4    C     C_R   0.640061 0.500011 0.965188 -0.231512
C5    C     C_R   0.847562 0.571845 0.498162 -0.122450
C6    C     C_R   0.152437 0.428155 0.501838 -0.122450
C7    C     C_R   0.152437 0.571845 0.501834 -0.122451
C8    C     C_R   0.847563 0.428155 0.498166 -0.122451
C9    C     C_R   0.768812 0.571956 0.497817 -0.144114
C10   C     C_R   0.231188 0.428044 0.502183 -0.144114
C11   C     C_R   0.231188 0.571956 0.502179 -0.144116
C12   C     C_R   0.768812 0.428044 0.497821 -0.144115
C13   C     C_R   0.729051 0.500000 0.498169 -0.044230
C14   C     C_R   0.270949 0.500000 0.501830 -0.044230
C15   C     C_R   0.886322 0.500000 0.498558 0.139099
C16   C     C_R   0.113678 0.500000 0.501442 0.139099
C17   C     C_1   0.966284 0.500000 0.499545 -0.021647
C18   C     C_1   0.033716 0.500000 0.500455 -0.021647
C19   C     C_R   0.451111 0.833558 0.442508 0.499196
C20   C     C_R   0.548889 0.166442 0.557492 0.499196
C21   C     C_R   0.548889 0.833559 0.557492 0.499197
C22   C     C_R   0.451111 0.166441 0.442508 0.499197
C23   C     C_R   0.451621 0.749760 0.443088 0.140152
C24   C     C_R   0.548379 0.250240 0.556912 0.140152
C25   C     C_R   0.548379 0.749761 0.556912 0.140151
C26   C     C_R   0.451621 0.250239 0.443088 0.140151
C27   C     C_R   0.500000 0.876418 0.500000 -0.251608
C28   C     C_R   0.500000 0.123581 0.500000 -0.251608
C29   C     C_1   0.500000 0.963726 0.500000 0.246474
C30   C     C_1   0.500000 0.036274 0.500000 0.246474
C31   C     C_R   0.496514 0.500000 0.326915 0.920341
C32   C     C_R   0.503486 0.500000 0.673085 0.920342
C33   C     C_R   0.574448 0.500004 0.818097 0.140699
C34   C     C_R   0.425552 0.499996 0.181903 0.140699
C35   C     C_R   0.505167 0.500000 0.768439 -0.112887
C36   C     C_R   0.494833 0.500000 0.231561 -0.112887
C37   C     C_R   0.435461 0.499995 0.808925 -0.204805
C38   C     C_R   0.564539 0.500004 0.191075 -0.204805
C39   C     C_R   0.432755 0.499994 0.901250 0.004594
C40   C     C_R   0.567245 0.500005 0.098749 0.004594
C41   C     C_R   0.501382 0.500000 0.953239 -0.030216
C42   C     C_R   0.498618 0.500000 0.046761 -0.030216
C43   C     C_R   0.572677 0.500005 0.911785 0.013638
C44   C     C_R   0.427323 0.499995 0.088215 0.013638
C45   C     C_R   0.362558 0.499988 0.942247 0.636499
C46   C     C_R   0.637442 0.500012 0.057753 0.636499
H1    H     H_    0.383344 0.499992 0.767708 0.193442
H2    H     H_    0.616656 0.500008 0.232292 0.193442
H3    H     H_    0.304438 0.499983 0.063273 0.215300
H4    H     H_    0.695562 0.500017 0.936727 0.215300
H5    H     H_    0.878158 0.627483 0.498248 0.156363
H6    H     H_    0.121842 0.372517 0.501752 0.156363
H7    H     H_    0.121841 0.627483 0.501744 0.156362
H8    H     H_    0.878159 0.372517 0.498256 0.156362
H9    H     H_    0.739301 0.628138 0.497388 0.182757
H10   H     H_    0.260699 0.371862 0.502612 0.182757
H11   H     H_    0.260699 0.628138 0.502605 0.182758
H12   H     H_    0.739301 0.371862 0.497395 0.182758
N1    N     N_R   0.500000 0.707230 0.500000 -0.198966
N2    N     N_R   0.500000 0.292770 0.500000 -0.198966
O1    O     O_R   0.389110 0.566570 0.500000 -0.608170
O2    O     O_R   0.610890 0.433430 0.500000 -0.608170
O3    O     O_R   0.610890 0.566570 0.500000 -0.608170
O4    O     O_R   0.389110 0.433430 0.500000 -0.608170
O5    O     O_R   0.499980 0.566550 0.367850 -0.592547
O6    O     O_R   0.500020 0.433450 0.632150 -0.592547
O7    O     O_R   0.500020 0.566550 0.632150 -0.592547
O8    O     O_R   0.499980 0.433450 0.367850 -0.592547
Zn1   Zn    Zn3+2 0.500000 0.588860 0.500000 1.020391
Zn2   Zn    Zn3+2 0.500000 0.411140 0.500000 1.020391
I1    I     I_    0.680250 0.500004 0.750958 -0.268040
I2    I     I_    0.319749 0.499996 0.249042 -0.268040
F1    F     F_    0.296201 0.499981 0.892786 -0.641392
F2    F     F_    0.703799 0.500019 0.107214 -0.641392
F3    F     F_    0.402698 0.873201 0.385570 -0.580631
F4    F     F_    0.597302 0.126799 0.614430 -0.580631
F5    F     F_    0.597302 0.873203 0.614429 -0.580631
F6    F     F_    0.402698 0.126797 0.385571 -0.580631
I3    I     I_    0.373684 0.696171 0.351273 -0.138720
I4    I     I_    0.626316 0.303829 0.648727 -0.138720
I5    I     I_    0.626317 0.696173 0.648726 -0.138718
I6    I     I_    0.373683 0.303827 0.351274 -0.138718

loop_
_geom_bond_atom_site_label_1
_geom_bond_atom_site_label_2
_ccdc_geom_bond_type
C27   C29   S    
C41   C42   A    
C19   C23   A    
C3    H3    S    
C39   C41   A    
C4    C46   A    
C23   N1    A    
O2    Zn2   S    
C35   C37   A    
C11   C14   A    
C20   F4    S    
C45   F1    S    
C2    C13   S    
C9    C13   A    
C24   I4    S    
O3    Zn1   S    
C9    H9    S    
O4    Zn2   S    
C37   H1    S    
C19   C27   A    
C38   H2    S    
C24   N2    A    
C39   C45   A    
C12   H12   S    
C40   C42   A    
C21   C27   A    
C26   I6    S    
C22   C28   A    
C25   I5    S    
C41   C43   A    
C42   C44   A    
C7    C11   A    
C31   O8    A    
C3    C44   A    
C33   C43   A    
C32   C35   S    
C20   C24   A    
C34   C44   A    
C22   F6    S    
C10   C14   A    
C8    H8    S    
C20   C28   A    
C3    C45   A    
C4    H4    S    
O7    Zn1   S    
C40   C46   A    
C5    C9    A    
C29   C30   T    
N2    Zn2   S    
C8    C12   A    
C17   C18   T    
N1    Zn1   S    
C32   O7    A    
C16   C18   S    
C7    C16   A    
C8    C15   A    
C7    H7    S    
C36   C38   A    
C1    O4    A    
C34   I2    S    
C46   F2    S    
C10   H10   S    
C2    O3    A    
C32   O6    A    
O1    Zn1   S    
C31   O5    A    
C21   C25   A    
C1    O1    A    
C6    C10   A    
C15   C17   S    
C4    C43   A    
C23   I3    S    
C19   F3    S    
C37   C39   A    
C38   C40   A    
O6    Zn2   S    
O5    Zn1   S    
C28   C30   S    
C33   C35   A    
C34   C36   A    
C5    C15   A    
C33   I1    S    
C6    C16   A    
C12   C13   A    
O8    Zn2   S    
C22   C26   A    
C21   F5    S    
C31   C36   S    
C5    H5    S    
C1    C14   S    
C25   N1    A    
C6    H6    S    
C11   H11   S    
C26   N2    A    
C2    O2    A    
