data_mof_unit_7875.cif
_audit_creation_date              2013-03-05T16:48:43-0500
_audit_creation_method            fapswitch 2.2
_symmetry_space_group_name_H-M    P1
_symmetry_Int_Tables_number       1
_space_group_crystal_system       triclinic
_cell_length_a                    27.807232
_cell_length_b                    8.914399
_cell_length_c                    8.093847
_cell_angle_alpha                 89.994409
_cell_angle_beta                  89.990435
_cell_angle_gamma                 90.017
_cell_volume                      2006.34120441

loop_
_atom_site_label
_atom_site_type_symbol
_atom_site_description
_atom_site_fract_x
_atom_site_fract_y
_atom_site_fract_z
_atom_type_partial_charge
O1    O     O_R   0.500000 0.285350 0.636850 -0.618228
O2    O     O_R   0.500000 0.714650 0.363150 -0.618196
O3    O     O_R   0.500000 0.714650 0.636850 -0.615283
O4    O     O_R   0.500000 0.285350 0.363150 -0.615289
C1    C     C_R   0.500008 0.217982 0.500001 0.933721
C2    C     C_R   0.499990 0.782017 0.499999 0.933603
O5    O     O_R   0.428760 0.500000 0.636860 -0.605560
O6    O     O_R   0.571240 0.500000 0.363140 -0.605501
O7    O     O_R   0.571240 0.500000 0.636860 -0.600727
O8    O     O_R   0.428760 0.500000 0.363140 -0.600835
C3    C     C_R   0.405785 0.500305 0.500014 0.895779
C4    C     C_R   0.594221 0.499708 0.499986 0.895670
Zn1   Zn    Zn3+2 0.500000 0.500000 0.682780 1.009800
Zn2   Zn    Zn3+2 0.500000 0.500000 0.317220 1.009780
C5    C     C_R   0.177568 0.369617 0.529729 0.512117
C6    C     C_R   0.822445 0.630844 0.470608 0.512115
C7    C     C_R   0.177520 0.631909 0.471118 0.510591
C8    C     C_R   0.822495 0.368466 0.528750 0.510574
O9    O     O_2   0.202528 0.242598 0.559708 -0.543796
O10   O     O_2   0.797480 0.757903 0.440886 -0.543549
O11   O     O_2   0.202433 0.759074 0.441155 -0.545122
O12   O     O_2   0.797580 0.241248 0.558409 -0.544893
N1    N     N_R   0.201427 0.500835 0.500456 -0.349451
N2    N     N_R   0.798591 0.499575 0.499609 -0.349542
C9    C     C_R   0.277504 0.573274 0.627180 -0.136113
C10   C     C_R   0.722540 0.427861 0.372270 -0.136372
C11   C     C_R   0.277501 0.429139 0.373510 -0.153392
C12   C     C_R   0.722508 0.570400 0.627016 -0.153693
C13   C     C_R   0.327735 0.575226 0.628132 0.035243
C14   C     C_R   0.672308 0.425811 0.371281 0.035373
C15   C     C_R   0.327601 0.428160 0.372325 0.031916
C16   C     C_R   0.672407 0.571241 0.628227 0.031988
C17   C     C_R   0.252672 0.500983 0.500435 0.270397
C18   C     C_R   0.747349 0.499400 0.499565 0.270907
C19   C     C_R   0.101668 0.500538 0.500328 -0.050690
C20   C     C_R   0.898346 0.499899 0.499858 -0.050693
C21   C     C_R   0.127282 0.366923 0.529810 -0.023263
C22   C     C_R   0.872732 0.633546 0.470550 -0.023310
C23   C     C_R   0.127233 0.634306 0.470925 -0.022510
C24   C     C_R   0.872781 0.366089 0.529041 -0.022550
C25   C     C_R   0.102393 0.233903 0.559102 -0.139522
C26   C     C_R   0.897620 0.766604 0.441470 -0.139478
C27   C     C_R   0.102298 0.767181 0.441571 -0.139535
C28   C     C_R   0.897717 0.233190 0.558251 -0.139502
C29   C     C_R   0.353094 0.501370 0.500074 -0.059137
C30   C     C_R   0.646922 0.498762 0.499926 -0.059217
H1    H     H_    0.257738 0.373310 0.275872 0.153165
H2    H     H_    0.742261 0.625651 0.725069 0.152874
H3    H     H_    0.257425 0.628824 0.724218 0.148206
H4    H     H_    0.742636 0.372949 0.274840 0.147891
H5    H     H_    0.121343 0.129802 0.582295 0.190262
H6    H     H_    0.878669 0.870731 0.418444 0.190210
H7    H     H_    0.121211 0.871399 0.418454 0.190222
H8    H     H_    0.878804 0.128941 0.581184 0.190163
C31   C     C_R   0.974528 0.363925 0.529927 0.048280
C32   C     C_R   0.025486 0.636510 0.470234 0.048271
C33   C     C_R   0.974479 0.636363 0.470186 0.048318
C34   C     C_R   0.025535 0.364098 0.530126 0.048314
C35   C     C_R   0.949354 0.500063 0.499991 0.070902
C36   C     C_R   0.050660 0.500382 0.500232 0.070912
C37   C     C_R   0.947510 0.231734 0.558794 -0.219973
C38   C     C_R   0.052505 0.768657 0.441123 -0.220034
C39   C     C_R   0.947414 0.768380 0.441180 -0.219824
C40   C     C_R   0.052600 0.232123 0.559373 -0.219889
H9    H     H_    0.963401 0.124027 0.582735 0.136164
H10   H     H_    0.036614 0.876331 0.416989 0.136271
H11   H     H_    0.963267 0.876187 0.417313 0.136170
H12   H     H_    0.036747 0.124356 0.583475 0.136277
C41   C     C_1   0.500002 0.065222 0.500002 -0.187250
C42   C     C_1   0.499995 0.934778 0.499998 -0.187287
N3    N     N_1   0.500000 0.500000 0.073640 -0.024071
N4    N     N_1   0.500000 0.500000 0.926360 -0.024059
N5    N     N_3   0.352412 0.349632 0.243408 -0.425943
H13   H     H_    0.341240 0.237628 0.245408 0.197804
H14   H     H_    0.341963 0.395862 0.130213 0.202400
N6    N     N_3   0.647591 0.648876 0.757781 -0.425632
H15   H     H_    0.658739 0.760909 0.756660 0.197828
H16   H     H_    0.658054 0.601917 0.870593 0.202270
N7    N     N_3   0.353007 0.654423 0.756340 -0.421058
H17   H     H_    0.368943 0.748694 0.702298 0.189265
H18   H     H_    0.329029 0.694348 0.845661 0.189886
N8    N     N_3   0.647070 0.347391 0.242423 -0.421185
H19   H     H_    0.631312 0.252428 0.295574 0.189625
H20   H     H_    0.671046 0.308675 0.152471 0.189627

loop_
_geom_bond_atom_site_label_1
_geom_bond_atom_site_label_2
_geom_bond_distance
_ccdc_geom_bond_type
C31   C35   1.421984 A    
Zn2   N3    1.971499 S    
C20   C35   1.418409 A    
C11   C17   1.393687 A    
C5    O9    1.350247 S    
C7    N1    1.365300 A    
O1    C1    1.260014 A    
C40   H12   1.074689 S    
C19   C21   1.408338 A    
N6    H16   1.045797 S    
C22   C26   1.393086 A    
C10   H4    1.083456 S    
C7    C23   1.398513 A    
C15   N5    1.433523 S    
C34   C36   1.421968 A    
C32   C33   1.418372 A    
N5    H13   1.045693 S    
O7    Zn1   2.015488 S    
C5    C21   1.398541 A    
C1    C41   1.361769 S    
C27   H7    1.083678 S    
N1    C17   1.425004 S    
C8    N2    1.365256 A    
C24   C28   1.393090 A    
O3    Zn1   1.949217 S    
C6    O10   1.350237 S    
O3    C2    1.259922 A    
C5    N1    1.365269 A    
C12   C18   1.393568 A    
C6    N2    1.365221 A    
C21   C25   1.393096 A    
N5    H14   1.045823 S    
O2    C2    1.260015 A    
C10   C18   1.394371 A    
C33   C39   1.416712 A    
C9    C13   1.396928 A    
C39   H11   1.074670 S    
C38   H10   1.074690 S    
C11   C15   1.393190 A    
C20   C24   1.408326 A    
N6    H15   1.045665 S    
C4    C30   1.465496 S    
O8    Zn2   2.015491 S    
N7    H18   1.045921 S    
C23   C27   1.393105 A    
C34   C40   1.416715 A    
N2    C18   1.424899 S    
C32   C36   1.421987 A    
C13   C29   1.416047 A    
C19   C36   1.418403 A    
C14   N8    1.438415 S    
C19   C23   1.408316 A    
C28   H8    1.083666 S    
O5    C3    1.278752 A    
C13   N7    1.438458 S    
C12   C16   1.393217 A    
O6    C4    1.278840 A    
C9    C17   1.394476 A    
C10   C14   1.396935 A    
N8    H20   1.045807 S    
C32   C38   1.416701 A    
C3    C29   1.465211 S    
O1    Zn1   1.949289 S    
C11   H1    1.083633 S    
C2    C42   1.361769 S    
C12   H2    1.083614 S    
O6    Zn2   2.015610 S    
C8    O12   1.350247 S    
C16   C30   1.413555 A    
C14   C30   1.416174 A    
O4    C1    1.259923 A    
C16   N6    1.433485 S    
Zn1   N4    1.971499 S    
C28   C37   1.384686 A    
C20   C22   1.408354 A    
N3    N4    1.192061 T    
C31   C37   1.416695 A    
O4    Zn2   1.949218 S    
C41   C42   1.162830 T    
O2    Zn2   1.949288 S    
O7    C4    1.278849 A    
C9    H3    1.083467 S    
C33   C35   1.421964 A    
O8    C3    1.278765 A    
N7    H17   1.045736 S    
C37   H9    1.074668 S    
O5    Zn1   2.015613 S    
C8    C24   1.398492 A    
N8    H19   1.045640 S    
C15   C29   1.413399 A    
C31   C34   1.418365 A    
C6    C22   1.398548 A    
C25   C40   1.384699 A    
C26   C39   1.384712 A    
C25   H5    1.083677 S    
C27   C38   1.384694 A    
C26   H6    1.083666 S    
C7    O11   1.350255 S    
