data_mof_unit_63254.cif
_audit_creation_date              2012-12-10T18:52:00-0500
_audit_creation_method            fapswitch 2.2
_symmetry_space_group_name_H-M    P1
_symmetry_Int_Tables_number       1
_space_group_crystal_system       triclinic
_cell_length_a                    37.324564
_cell_length_b                    30.281406
_cell_length_c                    21.616988
_cell_angle_alpha                 90.295271
_cell_angle_beta                  54.086319
_cell_angle_gamma                 90.271701
_cell_volume                      19787.5249058

loop_
_atom_site_label
_atom_site_type_symbol
_atom_type_description
_atom_site_fract_x
_atom_site_fract_y
_atom_site_fract_z
_atom_type_partial_charge
C1    C     C_R   0.086391 0.500161 0.415088 0.851687
C2    C     C_R   0.913950 0.499940 0.585560 0.854395
C3    C     C_R   0.586041 0.000031 0.414394 0.853409
C4    C     C_R   0.413956 0.999940 0.585579 0.853734
C5    C     C_R   0.033708 0.529700 0.683577 0.098387
C6    C     C_R   0.966383 0.470069 0.316284 0.104921
C7    C     C_R   0.533917 0.970793 0.682921 0.106373
C8    C     C_R   0.466332 0.970155 0.316374 0.106072
C9    C     C_R   0.004561 0.500737 0.681585 -0.100274
C10   C     C_R   0.995317 0.499242 0.318524 -0.099253
C11   C     C_R   0.504929 0.999810 0.681196 -0.096787
C12   C     C_R   0.495372 0.999231 0.318482 -0.096903
C13   C     C_R   0.975055 0.473720 0.743312 -0.204988
C14   C     C_R   0.024588 0.526518 0.257037 -0.193937
C15   C     C_R   0.475596 0.026869 0.743162 -0.199029
C16   C     C_R   0.524747 0.026386 0.256884 -0.198973
C17   C     C_R   0.973420 0.475419 0.808434 -0.196006
C18   C     C_R   0.026276 0.524817 0.191867 -0.186369
C19   C     C_R   0.473812 0.024992 0.808410 -0.187052
C20   C     C_R   0.526411 0.024682 0.191737 -0.187760
C21   C     C_R   0.000999 0.504434 0.812724 -0.095973
C22   C     C_R   0.998960 0.495575 0.187299 -0.100341
C23   C     C_R   0.501091 0.995783 0.812542 -0.100031
C24   C     C_R   0.498961 0.995558 0.187311 -0.100068
C25   C     C_R   0.203147 0.459906 0.289513 -0.169945
C26   C     C_R   0.797126 0.482499 0.750873 -0.160915
C27   C     C_R   0.702755 0.983294 0.248432 -0.161150
C28   C     C_R   0.297161 0.982951 0.751215 -0.161092
C29   C     C_R   0.157356 0.460931 0.334548 -0.195142
C30   C     C_R   0.842965 0.482157 0.704748 -0.199355
C31   C     C_R   0.656919 0.982933 0.294580 -0.201912
C32   C     C_R   0.342998 0.982643 0.705106 -0.202147
C33   C     C_R   0.134684 0.500482 0.369773 -0.087844
C34   C     C_R   0.866271 0.499799 0.631263 -0.058994
C35   C     C_R   0.633705 0.000093 0.368558 -0.058857
C36   C     C_R   0.366291 0.999792 0.631292 -0.059205
C37   C     C_R   0.158859 0.539205 0.360711 -0.002130
C38   C     C_R   0.843794 0.517051 0.602631 -0.011648
C39   C     C_R   0.656251 0.016963 0.397602 -0.011532
C40   C     C_R   0.343816 0.016526 0.602326 -0.011238
C41   C     C_R   0.204729 0.537794 0.314671 -0.208645
C42   C     C_R   0.797781 0.516460 0.648583 -0.194178
C43   C     C_R   0.702255 0.016304 0.351664 -0.194128
C44   C     C_R   0.297810 0.015833 0.648230 -0.194740
C45   C     C_R   0.001892 0.500138 0.618131 0.860776
C46   C     C_R   0.998019 0.499846 0.381958 0.871722
C47   C     C_R   0.501992 0.000049 0.618024 0.866161
C48   C     C_R   0.498059 0.999845 0.381921 0.866240
C49   C     C_R   0.226694 0.498477 0.278764 0.097813
C50   C     C_R   0.774245 0.499616 0.723097 0.096280
C51   C     C_R   0.725722 0.999891 0.276692 0.096811
C52   C     C_R   0.274271 0.999498 0.723080 0.096772
C53   C     C_R   0.296455 0.528149 0.167599 -0.203600
C54   C     C_R   0.703105 0.536743 0.771354 -0.197458
C55   C     C_R   0.797059 0.036520 0.229981 -0.198301
C56   C     C_R   0.203154 0.036281 0.770207 -0.197939
C57   C     C_R   0.342348 0.529337 0.120080 -0.005663
C58   C     C_R   0.657091 0.537231 0.817309 -0.005563
C59   C     C_R   0.843065 0.036911 0.184217 -0.003087
C60   C     C_R   0.157149 0.036785 0.816077 -0.003474
C61   C     C_R   0.366128 0.500477 0.134534 -0.070350
C62   C     C_R   0.633796 0.501058 0.865267 -0.060988
C63   C     C_R   0.866196 0.001134 0.134763 -0.061808
C64   C     C_R   0.133809 0.001049 0.865235 -0.061686
C65   C     C_R   0.343956 0.470918 0.195806 -0.196967
C66   C     C_R   0.656292 0.464908 0.866927 -0.198886
C67   C     C_R   0.843517 0.965433 0.131563 -0.198670
C68   C     C_R   0.156279 0.965282 0.868055 -0.199044
C69   C     C_R   0.298158 0.469560 0.242351 -0.162158
C70   C     C_R   0.702126 0.464177 0.819872 -0.157726
C71   C     C_R   0.797680 0.964739 0.178547 -0.157548
C72   C     C_R   0.202112 0.964484 0.820986 -0.158298
C73   C     C_R   0.274521 0.498339 0.228424 0.093375
C74   C     C_R   0.725823 0.500128 0.771991 0.095682
C75   C     C_R   0.774154 0.000332 0.227839 0.095651
C76   C     C_R   0.225844 0.000029 0.771976 0.095685
C77   C     C_R   0.000128 0.634294 0.999429 -0.526277
C78   C     C_R   0.500107 0.134270 0.999640 -0.539790
C79   C     C_R   0.036224 0.703120 0.937434 0.517223
C80   C     C_R   0.964060 0.703346 0.060293 0.510395
C81   C     C_R   0.535874 0.203097 0.937188 0.512654
C82   C     C_R   0.464348 0.203296 0.061190 0.512786
C83   C     C_R   0.499720 0.725991 0.000964 0.105165
C84   C     C_R   0.999638 0.226081 0.001481 0.102739
C85   C     C_R   0.036321 0.657326 0.937767 0.482709
C86   C     C_R   0.963946 0.657566 0.060682 0.508286
C87   C     C_R   0.535957 0.157300 0.937437 0.503961
C88   C     C_R   0.464251 0.157510 0.061516 0.503942
C89   C     C_R   0.000165 0.726111 0.998730 -0.412719
C90   C     C_R   0.500126 0.226084 0.999072 -0.414832
C91   C     C_R   0.999956 0.413699 0.000242 0.843663
C92   C     C_R   0.499957 0.913675 0.000086 0.824266
C93   C     C_R   0.000218 0.501927 0.879694 0.850399
C94   C     C_R   0.999775 0.498071 0.120307 0.865814
C95   C     C_R   0.500223 0.998103 0.879652 0.864071
C96   C     C_R   0.499774 0.998056 0.120311 0.864201
C97   C     C_R   0.497619 0.296896 0.057853 -0.075098
C98   C     C_R   0.502842 0.296693 0.940405 -0.073980
C99   C     C_R   0.997206 0.796860 0.058047 -0.074710
C100  C     C_R   0.003412 0.796751 0.939699 -0.076522
C101  C     C_R   0.000047 0.586285 0.999855 1.030170
C102  C     C_R   0.500040 0.086276 0.999925 1.055210
C103  C     C_R   0.500025 0.413680 0.999838 0.878703
C104  C     C_R   0.000033 0.913682 0.999821 0.877282
C105  C     C_R   0.413888 0.500344 0.086328 0.869978
C106  C     C_R   0.586082 0.500240 0.913665 0.870065
C107  C     C_R   0.913915 0.000270 0.086346 0.870867
C108  C     C_R   0.086086 0.000268 0.913656 0.870661
C109  C     C_R   0.497605 0.342649 0.058083 -0.221053
C110  C     C_R   0.502731 0.342468 0.940622 -0.215196
C111  C     C_R   0.997185 0.842613 0.058366 -0.217809
C112  C     C_R   0.003271 0.842523 0.940023 -0.218890
C113  C     C_R   0.499990 0.586298 0.000140 0.871662
C114  C     C_R   0.999964 0.086319 0.000187 0.877305
C115  C     C_R   0.037490 0.296843 0.943777 -0.171388
C116  C     C_R   0.962181 0.297048 0.059380 -0.168164
C117  C     C_R   0.538110 0.796967 0.978821 -0.171292
C118  C     C_R   0.461384 0.796723 0.023035 -0.174559
C119  C     C_R   0.499896 0.634242 0.000472 -0.028365
C120  C     C_R   0.999835 0.134302 0.000664 -0.034923
C121  C     C_R   0.037661 0.342622 0.943645 -0.181627
C122  C     C_R   0.962123 0.342850 0.058754 -0.196548
C123  C     C_R   0.538282 0.842753 0.978065 -0.191726
C124  C     C_R   0.461355 0.842515 0.023196 -0.191537
C125  C     C_R   0.999890 0.365770 0.000882 -0.025699
C126  C     C_R   0.499864 0.865702 0.000434 -0.027635
C127  C     C_R   0.500228 0.273963 0.999057 0.288848
C128  C     C_R   0.000305 0.773981 0.998760 0.289317
C129  C     C_R   0.500113 0.365665 0.999494 -0.045637
C130  C     C_R   0.000155 0.865673 0.999392 -0.045844
C131  C     C_R   0.999779 0.274029 0.001655 0.108194
C132  C     C_R   0.499719 0.773934 0.001037 0.109300
C133  C     C_R   0.486169 0.702922 0.961719 -0.169408
C134  C     C_R   0.513361 0.703235 0.039965 -0.170607
C135  C     C_R   0.988064 0.203145 0.066852 -0.169250
C136  C     C_R   0.011239 0.203186 0.935759 -0.169230
C137  C     C_R   0.486517 0.657139 0.961053 -0.165236
C138  C     C_R   0.513185 0.657438 0.040144 -0.181075
C139  C     C_R   0.988447 0.157348 0.066302 -0.164786
C140  C     C_R   0.011070 0.157404 0.935481 -0.165562
C141  C     C_R   0.066167 0.554954 0.619522 -0.165255
C142  C     C_R   0.934097 0.444564 0.380126 -0.159287
C143  C     C_R   0.566315 0.945591 0.618551 -0.157067
C144  C     C_R   0.433987 0.944745 0.380312 -0.158221
C145  C     C_R   0.092519 0.585128 0.624996 -0.146667
C146  C     C_R   0.907911 0.414287 0.374415 -0.130004
C147  C     C_R   0.592549 0.915422 0.623676 -0.132233
C148  C     C_R   0.407650 0.914593 0.374777 -0.133084
C149  C     C_R   0.087094 0.590704 0.693926 -0.097542
C150  C     C_R   0.913361 0.408798 0.305449 -0.133078
C151  C     C_R   0.587007 0.909705 0.692596 -0.129567
C152  C     C_R   0.413022 0.909117 0.305881 -0.130658
C153  C     C_R   0.056433 0.564975 0.756855 -0.151912
C154  C     C_R   0.943886 0.434706 0.242694 -0.169212
C155  C     C_R   0.556334 0.935283 0.755917 -0.168813
C156  C     C_R   0.443636 0.934906 0.243008 -0.169050
C157  C     C_R   0.030537 0.532976 0.751624 0.075311
C158  C     C_R   0.969586 0.466843 0.248189 0.100598
C159  C     C_R   0.530607 0.967353 0.751032 0.097367
C160  C     C_R   0.469486 0.966934 0.248325 0.097480
H1    H     H_    0.223567 0.567326 0.306799 0.142188
H2    H     H_    0.780355 0.528772 0.626039 0.142466
H3    H     H_    0.719714 0.028235 0.374584 0.142102
H4    H     H_    0.280399 0.027706 0.625400 0.142002
H5    H     H_    0.277682 0.550428 0.157567 0.143849
H6    H     H_    0.721161 0.565120 0.735894 0.140911
H7    H     H_    0.779164 0.064659 0.266506 0.140497
H8    H     H_    0.221220 0.064383 0.733901 0.140802
H9    H     H_    0.362152 0.448594 0.206966 0.156642
H10   H     H_    0.638295 0.436938 0.903664 0.146694
H11   H     H_    0.861371 0.937751 0.093706 0.147310
H12   H     H_    0.138262 0.937628 0.905676 0.147033
H13   H     H_    0.281136 0.446698 0.289812 0.144997
H14   H     H_    0.718993 0.435327 0.820348 0.139117
H15   H     H_    0.780686 0.936181 0.176894 0.139259
H16   H     H_    0.218942 0.935887 0.822353 0.138937
H17   H     H_    0.495578 0.359904 0.104051 0.168165
H18   H     H_    0.504713 0.359599 0.894844 0.169378
H19   H     H_    0.994765 0.859836 0.104717 0.169122
H20   H     H_    0.005630 0.859691 0.893926 0.168427
H21   H     H_    0.495850 0.279332 0.103125 0.159076
H22   H     H_    0.504633 0.278964 0.894999 0.159831
H23   H     H_    0.995047 0.779253 0.103646 0.159056
H24   H     H_    0.005595 0.779055 0.893903 0.157343
H25   H     H_    0.066793 0.279192 0.899220 0.141238
H26   H     H_    0.932828 0.279546 0.104162 0.138931
H27   H     H_    0.567964 0.779482 0.961308 0.139520
H28   H     H_    0.431492 0.779047 0.040682 0.138404
H29   H     H_    0.952738 0.451657 0.741438 0.157235
H30   H     H_    0.046712 0.548772 0.259104 0.163147
H31   H     H_    0.453429 0.048992 0.741471 0.161945
H32   H     H_    0.546962 0.048551 0.258855 0.161861
H33   H     H_    0.067065 0.359863 0.898454 0.159027
H34   H     H_    0.932794 0.360293 0.103689 0.150881
H35   H     H_    0.568273 0.860138 0.960587 0.159072
H36   H     H_    0.431423 0.859713 0.040444 0.158700
H37   H     H_    0.475818 0.720376 0.931055 0.139354
H38   H     H_    0.523681 0.720939 0.070756 0.137145
H39   H     H_    0.979282 0.220706 0.117765 0.138612
H40   H     H_    0.019986 0.220778 0.885113 0.139361
H41   H     H_    0.475980 0.639701 0.930382 0.167116
H42   H     H_    0.523794 0.640226 0.070604 0.157684
H43   H     H_    0.979529 0.140031 0.117256 0.166814
H44   H     H_    0.020079 0.140146 0.884205 0.166743
H45   H     H_    0.071951 0.551317 0.564580 0.154997
H46   H     H_    0.928259 0.448094 0.435143 0.150218
H47   H     H_    0.572205 0.949296 0.563566 0.150683
H48   H     H_    0.428210 0.948260 0.435283 0.150824
H49   H     H_    0.116984 0.604487 0.575748 0.157036
H50   H     H_    0.883559 0.394766 0.423518 0.143125
H51   H     H_    0.616999 0.896151 0.574156 0.144336
H52   H     H_    0.383243 0.895157 0.423962 0.143201
H53   H     H_    0.106939 0.614805 0.698534 0.184934
H54   H     H_    0.893646 0.384607 0.300676 0.138289
H55   H     H_    0.606754 0.885583 0.696904 0.143346
H56   H     H_    0.393182 0.885021 0.301252 0.141955
H57   H     H_    0.052948 0.570908 0.809463 0.195057
H58   H     H_    0.947402 0.428795 0.190027 0.144482
H59   H     H_    0.552723 0.929155 0.808529 0.150441
H60   H     H_    0.447100 0.928982 0.190393 0.150643
H61   H     H_    0.950913 0.453563 0.855404 0.160793
H62   H     H_    0.048623 0.546843 0.145070 0.166005
H63   H     H_    0.451391 0.046820 0.855643 0.165667
H64   H     H_    0.548840 0.046621 0.144852 0.165454
H65   H     H_    0.220252 0.429382 0.261581 0.144945
H66   H     H_    0.779622 0.469981 0.808565 0.136625
H67   H     H_    0.720183 0.971165 0.190387 0.136813
H68   H     H_    0.279674 0.970860 0.809162 0.136925
H69   H     H_    0.139748 0.430816 0.340795 0.168943
H70   H     H_    0.860325 0.468971 0.726847 0.140287
H71   H     H_    0.639492 0.970076 0.272162 0.143218
H72   H     H_    0.360365 0.969876 0.727460 0.143502
O1    O     O_R   0.065470 0.536950 0.434540 -0.617341
O2    O     O_R   0.934530 0.536950 0.565460 -0.604009
O3    O     O_R   0.565470 0.036950 0.434540 -0.608957
O4    O     O_R   0.434530 0.036950 0.565460 -0.608651
O5    O     O_R   0.434530 0.500010 0.117180 -0.619877
O6    O     O_R   0.565470 0.500010 0.882820 -0.609528
O7    O     O_R   0.934530 0.000010 0.117180 -0.610890
O8    O     O_R   0.065470 0.000010 0.882820 -0.611273
O9    O     O_R   0.434520 0.500010 0.013750 -0.610906
O10   O     O_R   0.565480 0.500010 0.986250 -0.618770
O11   O     O_R   0.934520 0.000010 0.013750 -0.617494
O12   O     O_R   0.065480 0.000010 0.986250 -0.617308
O13   O     O_R   0.500010 0.565480 0.051720 -0.626818
O14   O     O_R   0.499990 0.565480 0.948280 -0.615152
O15   O     O_R   0.000010 0.065480 0.051720 -0.622243
O16   O     O_R   0.999990 0.065480 0.948280 -0.622140
O17   O     O_R   0.065460 0.463040 0.434540 -0.620309
O18   O     O_R   0.934540 0.463040 0.565460 -0.629357
O19   O     O_R   0.565460 0.963040 0.434540 -0.625194
O20   O     O_R   0.434540 0.963040 0.565460 -0.625333
O21   O     O_R   0.000010 0.536950 0.591610 -0.619355
O22   O     O_R   0.999990 0.536950 0.408390 -0.607358
O23   O     O_R   0.500010 0.036950 0.591610 -0.609016
O24   O     O_R   0.499990 0.036950 0.408390 -0.608851
O25   O     O_R   1.000000 0.463040 0.591610 -0.619123
O26   O     O_R   1.000000 0.463040 0.408390 -0.627866
O27   O     O_R   0.500000 0.963040 0.591610 -0.628813
O28   O     O_R   0.500000 0.963040 0.408390 -0.629418
O29   O     O_R   0.963040 0.434520 0.036950 -0.637220
O30   O     O_R   0.036960 0.434520 0.963050 -0.623472
O31   O     O_R   0.463040 0.934520 0.036950 -0.637896
O32   O     O_R   0.536960 0.934520 0.963050 -0.637301
O33   O     O_R   0.963030 0.499980 0.945350 -0.620788
O34   O     O_R   0.036970 0.499980 0.054650 -0.624904
O35   O     O_R   0.463030 0.999980 0.945350 -0.628845
O36   O     O_R   0.536970 0.999980 0.054650 -0.628780
O37   O     O_R   0.036950 0.500000 0.871430 -0.625341
O38   O     O_R   0.963050 0.500000 0.128570 -0.610819
O39   O     O_R   0.536950 0.000000 0.871430 -0.609277
O40   O     O_R   0.463050 0.000000 0.128570 -0.609665
O41   O     O_R   0.963030 0.565450 0.036970 -0.561031
O42   O     O_R   0.036970 0.565450 0.963030 -0.578302
O43   O     O_R   0.463030 0.065450 0.036970 -0.564316
O44   O     O_R   0.536970 0.065450 0.963030 -0.564612
O45   O     O_R   0.499990 0.434540 0.051720 -0.628391
O46   O     O_R   0.500010 0.434540 0.948280 -0.623736
O47   O     O_R   0.999990 0.934540 0.051720 -0.626031
O48   O     O_R   0.000010 0.934540 0.948280 -0.626366
Zn1   Zn    Zn3+2 1.000000 0.549350 0.500000 0.998535
Zn2   Zn    Zn3+2 0.500000 0.049350 0.500000 0.997047
Zn3   Zn    Zn3+2 1.000000 0.450640 0.500000 0.960838
Zn4   Zn    Zn3+2 0.500000 0.950640 0.500000 0.959694
Zn5   Zn    Zn3+2 0.950640 0.499980 0.049350 1.014914
Zn6   Zn    Zn3+2 0.049360 0.499980 0.950650 1.002791
Zn7   Zn    Zn3+2 0.450640 0.999980 0.049350 1.011449
Zn8   Zn    Zn3+2 0.549360 0.999980 0.950650 1.011654
Zn9   Zn    Zn3+2 0.500000 0.500010 0.069060 0.967957
Zn10  Zn    Zn3+2 0.500000 0.500010 0.930940 0.991779
Zn11  Zn    Zn3+2 1.000000 0.000010 0.069060 0.979744
Zn12  Zn    Zn3+2 1.000000 0.000010 0.930940 0.978972
F1    F     F_    0.071428 0.635661 0.877360 -0.619223
F2    F     F_    0.928908 0.636142 0.121573 -0.583031
F3    F     F_    0.570629 0.135594 0.876344 -0.584069
F4    F     F_    0.429561 0.136036 0.122885 -0.584128
C161  C     C_1   0.138233 0.580630 0.398200 0.170431
N1    N     N_1   0.121854 0.613857 0.428122 -0.203199
C162  C     C_1   0.867228 0.534367 0.525996 0.145200
N2    N     N_1   0.886006 0.548219 0.464625 -0.174050
C163  C     C_1   0.632903 0.034043 0.474555 0.143549
N3    N     N_1   0.614206 0.047733 0.536166 -0.173802
C164  C     C_1   0.367239 0.033498 0.525476 0.144261
N4    N     N_1   0.385998 0.047096 0.463945 -0.174069
C165  C     C_1   0.364118 0.561467 0.059207 0.168395
N5    N     N_1   0.381570 0.587214 0.010512 -0.205151
C166  C     C_1   0.634471 0.575511 0.816245 0.153196
N6    N     N_1   0.616300 0.606148 0.815520 -0.191438
C167  C     C_1   0.865810 0.074733 0.187116 0.156887
N7    N     N_1   0.884035 0.105020 0.189396 -0.207662
C168  C     C_1   0.134617 0.074676 0.813611 0.157169
N8    N     N_1   0.116552 0.105013 0.811696 -0.206362
F5    F     F_    0.071553 0.725101 0.878016 -0.611926
F6    F     F_    0.928776 0.725537 0.119463 -0.604495
F7    F     F_    0.570895 0.225083 0.877216 -0.605118
F8    F     F_    0.429349 0.225463 0.120940 -0.605196

loop_
_geom_bond_atom_site_label_1
_geom_bond_atom_site_label_2
_ccdc_geom_bond_type
C4    C36   S    
C133  C137  A    
C55   C59   A    
O41   Zn5   S    
C142  C146  A    
C77   C101  S    
C136  C140  A    
O43   Zn7   S    
C104  O48   A    
C163  N3    T    
C135  C139  A    
C154  C158  A    
C26   C50   A    
C135  H39   S    
C7    C159  A    
C110  H18   S    
C29   C33   A    
C117  C132  A    
C80   F6    S    
C80   C86   A    
C3    O3    A    
C54   C74   A    
C11   C15   A    
C152  C156  A    
C1    O1    A    
C31   H71   S    
C70   C74   A    
O26   Zn3   S    
C151  C155  A    
C61   C105  S    
C141  C145  A    
C2    C34   S    
C151  H55   S    
O36   Zn8   S    
C111  H19   S    
C28   H68   S    
C69   H13   S    
C122  H34   S    
C41   C49   A    
O28   Zn4   S    
O21   Zn1   S    
O29   Zn5   S    
C37   C161  S    
O8    Zn12  S    
O31   Zn7   S    
O16   Zn12  S    
C27   C31   A    
C28   C32   A    
C4    O20   A    
C148  H52   S    
C59   C167  S    
C62   C66   A    
C123  C126  A    
O13   Zn9   S    
C17   C21   A    
C19   C23   A    
C111  C130  A    
C164  N4    T    
C68   C72   A    
O2    Zn1   S    
C20   H64   S    
C156  H60   S    
C118  C124  A    
C45   O25   A    
C92   O32   A    
C81   C90   A    
C98   C127  A    
C49   C73   S    
C79   C85   A    
C97   C127  A    
C15   H31   S    
C48   O28   A    
C133  H37   S    
C91   C125  S    
C82   C90   A    
C57   C61   A    
C99   C128  A    
C62   C106  S    
C59   C63   A    
C60   C64   A    
C24   C96   S    
O5    Zn9   S    
C138  H42   S    
C27   H67   S    
C66   C70   A    
C21   C93   S    
C113  O13   A    
C25   H65   S    
C23   C95   S    
C142  H46   S    
C149  H53   S    
C136  H40   S    
C17   H61   S    
C61   C65   A    
C93   O37   A    
C105  O5    A    
C20   C24   A    
C78   C87   A    
C96   O36   A    
O1    Zn1   S    
C32   H72   S    
C84   C135  A    
C115  C121  A    
O18   Zn3   S    
C149  C153  A    
C7    C143  A    
O39   Zn8   S    
C121  C125  A    
C152  H56   S    
C64   C68   A    
C3    O19   A    
C50   C74   S    
C1    O17   A    
O45   Zn9   S    
C110  C129  A    
C7    C11   A    
C9    C13   A    
C23   C159  A    
O42   Zn6   S    
C99   H23   S    
C91   O29   A    
O33   Zn5   S    
C112  H20   S    
C55   C75   A    
C44   C52   A    
C77   C85   A    
C146  C150  A    
C22   C94   S    
C108  O12   A    
C100  H24   S    
C6    C158  A    
C27   C51   A    
C64   C108  S    
C145  H49   S    
C143  H47   S    
C30   C34   A    
C155  C159  A    
C153  H57   S    
O32   Zn8   S    
C12   C16   A    
O37   Zn6   S    
C156  C160  A    
O4    Zn2   S    
C10   C14   A    
C40   C164  S    
C147  C151  A    
C5    C9    A    
C58   C166  S    
C97   C109  A    
O12   Zn11  S    
C95   O35   A    
C3    C35   S    
C8    C12   A    
C85   F1    S    
C124  H36   S    
C155  H59   S    
C70   H14   S    
C42   C50   A    
O30   Zn6   S    
C26   C30   A    
C109  C129  A    
C101  O42   A    
C124  C126  A    
C4    O4    A    
O14   Zn10  S    
C18   C22   A    
C119  C138  A    
C148  C152  A    
C52   C76   S    
C42   H2    S    
C44   H4    S    
C13   C17   A    
C122  C125  A    
C29   H69   S    
C137  H41   S    
C46   O26   A    
C82   C88   A    
C37   C41   A    
C141  H45   S    
C79   C89   A    
C118  C132  A    
C14   H30   S    
C40   C44   A    
O7    Zn11  S    
O15   Zn11  S    
O25   Zn3   S    
C104  C130  S    
C103  O46   A    
C112  C130  A    
C58   C62   A    
C9    C45   S    
C98   C110  A    
C41   H1    S    
C78   C102  S    
C11   C47   S    
C55   H7    S    
C12   C48   S    
C107  O11   A    
O6    Zn10  S    
O40   Zn7   S    
C15   C19   A    
C116  C122  A    
O27   Zn4   S    
C54   H6    S    
C115  H25   S    
C93   O33   A    
C94   O38   A    
C105  O9    A    
C80   C89   A    
C83   C134  A    
C113  C119  S    
C2    O2    A    
C114  O16   A    
C47   O27   A    
C90   C127  S    
C69   C73   A    
C102  O43   A    
C6    C142  A    
C72   C76   A    
C100  C128  A    
C25   C29   A    
C123  H35   S    
C106  O10   A    
C147  H51   S    
C104  O47   A    
C121  H33   S    
O46   Zn10  S    
C166  N6    T    
C19   H63   S    
C53   C57   A    
C22   C158  A    
C116  H26   S    
C33   C37   A    
C56   C60   A    
C65   H9    S    
C98   H22   S    
C35   C39   A    
C162  N2    T    
C47   O23   A    
O34   Zn6   S    
C103  C129  S    
C140  H44   S    
C81   C87   A    
C53   H5    S    
C100  C112  A    
C5    C157  A    
C31   C35   A    
O38   Zn5   S    
C8    C160  A    
C32   C36   A    
O44   Zn8   S    
C78   C88   A    
O11   Zn12  S    
C84   C136  A    
O17   Zn3   S    
O10   Zn9   S    
C92   C126  S    
C6    C10   A    
C95   O39   A    
C86   F2    S    
O24   Zn2   S    
C2    O18   A    
C83   C132  S    
C139  H43   S    
C68   H12   S    
C43   C51   A    
C107  O7    A    
C26   H66   S    
C65   C69   A    
C71   H15   S    
C67   C71   A    
C72   H16   S    
C153  C157  A    
C18   H62   S    
C25   C49   A    
C92   O31   A    
C109  H17   S    
C165  N5    T    
C106  O6    A    
C145  C149  A    
C79   F5    S    
C46   O22   A    
C114  C120  S    
C144  H48   S    
C89   C128  S    
C43   H3    S    
C168  N8    T    
C56   C76   A    
C161  N1    T    
C14   C18   A    
C144  C148  A    
C60   C168  S    
C1    C33   S    
C115  C131  A    
C167  N7    T    
C143  C147  A    
O48   Zn12  S    
C51   C75   S    
C38   C42   A    
O20   Zn4   S    
C113  O14   A    
C13   H29   S    
C16   H32   S    
O9    Zn10  S    
C81   F7    S    
C114  O15   A    
C82   F8    S    
C10   C46   S    
C99   C111  A    
C154  H58   S    
C16   C20   A    
C38   C162  S    
C101  O41   A    
C146  H50   S    
C94   O34   A    
C63   C67   A    
O3    Zn2   S    
C119  C137  A    
C108  O8    A    
C36   C40   A    
C117  H27   S    
C118  H28   S    
C39   C43   A    
C67   H11   S    
C87   F3    S    
C88   F4    S    
C5    C141  A    
C56   H8    S    
C8    C144  A    
C120  C139  A    
C57   C165  S    
C91   O30   A    
C120  C140  A    
C77   C86   A    
O47   Zn11  S    
C48   O24   A    
C103  O45   A    
C63   C107  S    
C54   C58   A    
C134  H38   S    
C34   C38   A    
C21   C157  A    
C66   H10   S    
C53   C73   A    
C134  C138  A    
C24   C160  A    
C97   H21   S    
C96   O40   A    
C84   C131  S    
C39   C163  S    
C30   H70   S    
C117  C123  A    
C71   C75   A    
C28   C52   A    
C116  C131  A    
O23   Zn2   S    
O19   Zn4   S    
C150  H54   S    
C83   C133  A    
O35   Zn7   S    
O22   Zn1   S    
C150  C154  A    
C102  O44   A    
C45   O21   A    
