data_mof_unit_48532.cif
_audit_creation_date              2012-10-26T19:06:47-0400
_audit_creation_method            fapswitch 2.2
_symmetry_space_group_name_H-M    P1
_symmetry_Int_Tables_number       1
_space_group_crystal_system       triclinic
_cell_length_a                    12.440532
_cell_length_b                    13.106273
_cell_length_c                    27.673731
_cell_angle_alpha                 76.315927
_cell_angle_beta                  101.039654
_cell_angle_gamma                 117.002661
_cell_volume                      3887.69881944

loop_
_atom_site_label
_atom_site_type_symbol
_atom_type_description
_atom_site_fract_x
_atom_site_fract_y
_atom_site_fract_z
_atom_type_partial_charge
C1    C     C_R   0.855245 0.286109 0.503504 0.633127
C2    C     C_R   0.867994 0.424404 0.022031 -0.009806
C3    C     C_R   0.083969 0.467887 0.035815 0.011138
C4    C     C_R   0.999871 0.499737 0.592046 0.632938
C5    C     C_R   0.976350 0.447374 0.054321 -0.004747
C6    C     C_R   0.758959 0.386108 0.043364 -0.038099
C7    C     C_R   0.758492 0.384968 0.093676 0.403888
C8    C     C_R   0.867716 0.420931 0.124828 0.026894
C9    C     C_R   0.977160 0.450916 0.105288 -0.127161
C10   C     C_R   0.087298 0.485102 0.136543 0.041805
C11   C     C_R   0.085340 0.491604 0.186467 0.437193
C12   C     C_R   0.924721 0.376554 0.724405 -0.123341
C13   C     C_R   0.870661 0.426294 0.175250 0.485417
C14   C     C_R   0.006852 0.391291 0.294267 -0.123552
C15   C     C_R   0.013826 0.400966 0.343975 0.273042
C16   C     C_R   0.144567 0.713994 0.493217 0.538434
C17   C     C_R   0.963301 0.565767 0.316733 0.353938
C18   C     C_R   0.957508 0.556338 0.267013 0.462287
C19   C     C_R   0.979686 0.469288 0.255650 0.113690
C20   C     C_R   0.872001 0.437988 0.969789 0.006316
C21   C     C_R   0.976310 0.446546 0.952359 -0.078355
C22   C     C_R   0.079637 0.453133 0.986153 -0.001181
C23   C     C_R   0.990446 0.474723 0.747189 0.167737
C24   C     C_R   0.776741 0.446094 0.934271 0.346050
C25   C     C_R   0.176335 0.446438 0.918580 0.309178
C26   C     C_R   0.193426 0.507315 0.066902 -0.072595
C27   C     C_R   0.195898 0.513296 0.116843 0.267958
C28   C     C_R   0.998928 0.498187 0.407849 0.628362
C29   C     C_R   0.174407 0.443701 0.969152 0.358060
C30   C     C_R   0.277325 0.031366 0.438191 -0.132318
C31   C     C_R   0.226500 0.837898 0.485294 0.002993
C32   C     C_R   0.811258 0.075455 0.530861 0.283862
C33   C     C_R   0.726612 0.963866 0.549180 0.272091
C34   C     C_R   0.977982 0.449852 0.900853 -0.152856
C35   C     C_R   0.603108 0.940391 0.541564 -0.162308
C36   C     C_R   0.561361 0.016130 0.506982 -0.063217
C37   C     C_R   0.648234 0.126426 0.486546 -0.022600
C38   C     C_R   0.436268 0.983881 0.490763 0.033643
C39   C     C_R   0.400067 0.062896 0.455242 -0.004591
C40   C     C_R   0.888428 0.466063 0.814891 0.437274
C41   C     C_R   0.487148 0.168555 0.433918 -0.078604
C42   C     C_R   0.609472 0.197402 0.447236 0.398252
C43   C     C_R   0.346700 0.871887 0.505603 -0.092148
C44   C     C_R   0.190653 0.919215 0.453212 -0.118462
C45   C     C_R   0.879570 0.453513 0.866220 -0.009381
C46   C     C_R   0.771989 0.161242 0.505181 -0.024029
C47   C     C_R   0.333636 0.313749 0.575297 0.338951
C48   C     C_R   0.761480 0.647130 0.432079 0.483087
C49   C     C_R   0.660509 0.667149 0.411883 -0.096747
C50   C     C_R   0.550638 0.601420 0.432800 0.251962
C51   C     C_R   0.545184 0.524593 0.479151 -0.066084
C52   C     C_R   0.076560 0.451483 0.832692 0.430894
C53   C     C_R   0.648668 0.499355 0.496328 0.067285
C54   C     C_R   0.440554 0.467588 0.507760 -0.085599
C55   C     C_R   0.434042 0.374365 0.547325 -0.146052
C56   C     C_R   0.776748 0.446968 0.883593 0.316107
C57   C     C_R   0.529890 0.344628 0.560488 -0.086249
C58   C     C_R   0.635855 0.407733 0.537845 0.369250
C59   C     C_R   0.343975 0.501095 0.501209 0.471295
C60   C     C_R   0.239921 0.346920 0.564947 0.513341
C61   C     C_R   0.062161 0.581958 0.719443 0.305622
C62   C     C_R   0.062917 0.591202 0.667715 0.168766
C63   C     C_R   0.924818 0.384271 0.672885 0.231622
C64   C     C_3   0.749905 0.212748 0.662454 0.021653
C65   C     C_3   0.744070 0.096499 0.691725 -0.369345
C66   C     C_3   0.247159 0.713247 0.748346 0.011477
C67   C     C_R   0.078254 0.449717 0.883929 -0.018821
C68   C     C_3   0.306202 0.799502 0.784398 -0.375736
C69   C     C_3   0.369513 0.554857 0.898176 0.020154
C70   C     C_3   0.469295 0.555298 0.873805 -0.299010
C71   C     C_3   0.346140 0.465369 0.160073 0.012972
C72   C     C_3   0.459177 0.504533 0.196719 -0.293299
C73   C     C_3   0.961211 0.065521 0.499633 0.025020
C74   C     C_3   0.095942 0.131933 0.493739 -0.323109
C75   C     C_3   0.688347 0.767766 0.573165 -0.022674
C76   C     C_3   0.756865 0.692628 0.586188 -0.355261
C77   C     C_3   0.577202 0.340457 0.856881 0.020590
C78   C     C_R   0.995515 0.492022 0.645051 0.016210
C79   C     C_3   0.581149 0.258170 0.827050 -0.372888
C80   C     C_3   0.388946 0.505186 0.380270 0.007705
C81   C     C_3   0.322147 0.534715 0.331027 -0.293182
C82   C     C_3   0.076114 0.766442 0.623885 -0.015532
C83   C     C_3   0.167753 0.891258 0.609117 -0.332188
C84   C     C_R   0.992926 0.488925 0.355536 -0.023171
Cu1   Cu    Cu3+1 0.098270 0.475420 0.511360 1.179454
Cu2   Cu    Cu3+1 0.901730 0.524580 0.488640 1.164766
F1    F     F_    0.943412 0.651827 0.326915 -0.522817
F2    F     F_    0.039603 0.323690 0.380688 -0.643283
F3    F     F_    0.650074 0.348635 0.111358 -0.560744
F4    F     F_    0.687817 0.464718 0.946944 -0.655463
F5    F     F_    0.932483 0.633095 0.229777 -0.535711
F6    F     F_    0.261657 0.422188 0.001463 -0.621960
F7    F     F_    0.688834 0.288880 0.417855 -0.620440
F8    F     F_    0.141808 0.287879 0.591300 -0.524358
F9    F     F_    0.326459 0.222988 0.612639 -0.624156
F10   F     F_    0.350017 0.600846 0.471201 -0.564605
F11   F     F_    0.864942 0.708304 0.409233 -0.565630
F12   F     F_    0.722234 0.374143 0.560093 -0.631124
H1    H     H_    0.279986 0.540010 0.052594 0.197925
H2    H     H_    0.023656 0.323730 0.285612 0.173984
H3    H     H_    0.671638 0.351805 0.022177 0.219436
H4    H     H_    0.689601 0.195249 0.627300 0.192257
H5    H     H_    0.711495 0.250249 0.683021 0.121300
H6    H     H_    0.804737 0.108658 0.727001 0.161682
H7    H     H_    0.649768 0.037873 0.700830 0.097550
H8    H     H_    0.772375 0.055171 0.668945 0.200534
H9    H     H_    0.286742 0.756973 0.712193 0.180110
H10   H     H_    0.270095 0.638285 0.763813 0.167750
H11   H     H_    0.266248 0.759928 0.820651 0.162304
H12   H     H_    0.097451 0.894289 0.437346 0.185996
H13   H     H_    0.405173 0.824288 0.790847 0.093312
H14   H     H_    0.291412 0.878821 0.768576 0.177217
H15   H     H_    0.408048 0.581902 0.935282 0.182117
H16   H     H_    0.338845 0.619560 0.873897 0.100186
H17   H     H_    0.434343 0.531864 0.836015 0.174390
H18   H     H_    0.546303 0.643092 0.870264 0.124376
H19   H     H_    0.501761 0.491477 0.897048 0.242344
H20   H     H_    0.369357 0.446389 0.127308 0.178358
H21   H     H_    0.275557 0.384227 0.179149 0.147319
H22   H     H_    0.438372 0.522381 0.230280 0.172323
H23   H     H_    0.460670 0.226098 0.404391 0.129843
H24   H     H_    0.491519 0.435280 0.208503 0.158672
H25   H     H_    0.532090 0.584713 0.178781 0.202018
H26   H     H_    0.912402 0.083046 0.462576 0.146488
H27   H     H_    0.937894 0.970956 0.509204 0.149372
H28   H     H_    0.149514 0.115206 0.529071 0.175442
H29   H     H_    0.117518 0.103525 0.463671 0.098845
H30   H     H_    0.120818 0.226476 0.483146 0.191965
H31   H     H_    0.642820 0.758739 0.534515 0.143502
H32   H     H_    0.619311 0.733928 0.600176 0.148522
H33   H     H_    0.691773 0.599859 0.587677 0.123215
H34   H     H_    0.249367 0.091517 0.411075 0.125661
H35   H     H_    0.818641 0.716967 0.557133 0.138606
H36   H     H_    0.809485 0.703884 0.623294 0.170491
H37   H     H_    0.494410 0.354344 0.842389 0.171314
H38   H     H_    0.566325 0.298019 0.896721 0.157780
H39   H     H_    0.661548 0.239843 0.840851 0.135665
H40   H     H_    0.498308 0.174806 0.831339 0.113952
H41   H     H_    0.584764 0.297081 0.786798 0.204286
H42   H     H_    0.322044 0.433508 0.404667 0.172822
H43   H     H_    0.452013 0.473789 0.371767 0.109548
H44   H     H_    0.388072 0.602500 0.305247 0.181033
H45   H     H_    0.874941 0.294364 0.747381 0.127426
H46   H     H_    0.269954 0.455790 0.313548 0.139494
H47   H     H_    0.259193 0.567870 0.337423 0.191265
H48   H     H_    0.025648 0.765330 0.653418 0.177317
H49   H     H_    0.012411 0.738352 0.590545 0.134267
H50   H     H_    0.233372 0.921575 0.641769 0.188642
H51   H     H_    0.217743 0.897637 0.578547 0.146053
H52   H     H_    0.119934 0.948091 0.596123 0.160267
H53   H     H_    0.368302 0.806054 0.530669 0.140575
H54   H     H_    0.541934 0.861493 0.562259 0.106837
H55   H     H_    0.526208 0.274540 0.591246 0.190987
H56   H     H_    0.665079 0.728570 0.377506 0.169799
N1    N     N_R   0.985367 0.464382 0.799534 -0.380344
N2    N     N_R   0.978340 0.462029 0.204582 -0.391464
N3    N     N_R   0.246290 0.438210 0.528570 -0.291589
N4    N     N_R   0.754320 0.561170 0.471730 -0.237215
O1    O     O_R   0.972510 0.318140 0.514280 -0.431630
O2    O     O_R   0.082990 0.479230 0.439860 -0.455661
O3    O     O_R   0.917010 0.520730 0.420680 -0.387486
O4    O     O_2   0.802083 0.481202 0.780298 -0.447237
O5    O     O_3   0.869418 0.286824 0.649584 -0.495775
O6    O     O_3   0.120756 0.679067 0.742417 -0.532168
O7    O     O_3   0.273770 0.441803 0.903671 -0.468514
O8    O     O_3   0.306623 0.554606 0.145171 -0.507975
O9    O     O_3   0.933268 0.100890 0.538299 -0.463211
O10   O     O_3   0.769995 0.884371 0.577294 -0.532521
O11   O     O_3   0.678893 0.450175 0.850459 -0.490438
O12   O     O_2   0.767135 0.396280 0.195019 -0.365057
O13   O     O_3   0.448724 0.604674 0.403559 -0.474902
O14   O     O_3   0.137340 0.694586 0.640215 -0.585103
O15   O     O_2   0.164394 0.439629 0.815854 -0.467024
O16   O     O_2   0.189307 0.528221 0.216784 -0.467703
O17   O     O_R   0.806530 0.359640 0.495100 -0.401998
O18   O     O_R   0.082990 0.479270 0.579320 -0.451473
O19   O     O_R   0.917010 0.520770 0.560140 -0.466970
O20   O     O_R   0.193470 0.640360 0.504900 -0.460535
O21   O     O_R   0.027490 0.681860 0.485720 -0.489911

loop_
_geom_bond_atom_site_label_1
_geom_bond_atom_site_label_2
_ccdc_geom_bond_type
C10   C27   A    
C64   H5    S    
C66   C68   S    
C8    C13   A    
C22   C29   A    
C23   N1    S    
C56   O11   S    
C28   C84   S    
C61   O6    S    
C41   C42   A    
C79   H41   S    
C35   C36   A    
C58   F12   S    
C66   H9    S    
C73   O9    S    
C82   H49   S    
C7    C8    A    
C39   C41   A    
Cu1   Cu2   S    
C16   C31   S    
C63   O5    S    
C48   F11   S    
C12   C23   A    
C69   H15   S    
C53   N4    A    
C31   C43   A    
C18   F5    S    
C36   C37   A    
Cu2   O17   S    
C15   C84   A    
C68   H14   S    
C38   C39   A    
C76   H33   S    
C30   H34   S    
C1    C46   S    
C70   H19   S    
C42   F7    S    
C28   O2    A    
Cu1   O18   S    
C18   C19   A    
C73   C74   S    
C6    H3    S    
C41   H23   S    
C37   C42   A    
C47   C60   A    
C81   H46   S    
C74   H30   S    
C20   C24   A    
C45   C56   A    
C8    C9    A    
C71   O8    S    
C25   C67   A    
C40   N1    A    
C50   O13   S    
Cu1   O2    S    
C9    C10   A    
C4    O19   A    
C61   C62   A    
C16   O21   A    
C13   O12   S    
C26   H1    S    
C83   H52   S    
C21   C22   A    
C19   N2    S    
C30   C44   A    
C2    C6    A    
Cu1   N3    S    
C64   O5    S    
C65   H7    S    
C82   H48   S    
C16   O20   A    
C28   O3    A    
C50   C51   A    
C54   C59   A    
C77   C79   S    
C25   C29   A    
C40   C45   A    
C82   O14   S    
C69   H16   S    
C31   C44   A    
C2    C20   A    
C49   H56   S    
C1    O1    A    
C60   N3    A    
Cu2   O3    S    
C12   C63   A    
C76   H36   S    
Cu1   O20   S    
C21   C34   A    
C70   H18   S    
C80   H42   S    
C48   N4    A    
Cu2   O19   S    
C52   N1    A    
C68   H13   S    
C64   H4    S    
C75   C76   S    
C13   N2    A    
C40   O4    S    
C74   H29   S    
C53   C58   A    
C73   H26   S    
C72   H22   S    
C17   C18   A    
C26   C27   A    
C66   O6    S    
C34   C45   A    
Cu2   N4    S    
C75   O10   S    
C52   C67   A    
C11   N2    A    
C60   F8    S    
C48   C49   A    
C79   H39   S    
C82   C83   S    
C81   H47   S    
C55   C57   A    
C72   H25   S    
C4    O18   A    
C77   H37   S    
C33   O10   S    
C24   C56   A    
C59   F10   S    
C65   H8    S    
C43   H53   S    
C47   C55   A    
C54   C55   A    
C1    O17   A    
C11   O16   S    
C71   H20   S    
C72   H24   S    
C17   F1    S    
C32   C46   A    
C14   C19   A    
C62   C78   A    
C3    C26   A    
C66   H10   S    
C80   C81   S    
C3    C5    A    
C24   F4    S    
C34   C67   A    
C76   H35   S    
C75   H32   S    
C14   H2    S    
C6    C7    A    
C70   H17   S    
C4    C78   S    
C62   O14   S    
C80   O13   S    
C12   H45   S    
C71   H21   S    
C17   C84   A    
C25   O7    S    
C64   C65   S    
C51   C54   A    
C36   C38   A    
C38   C43   A    
C81   H44   S    
C32   C33   A    
C59   N3    A    
C57   C58   A    
C74   H28   S    
C57   H55   S    
C73   H27   S    
Cu2   O21   S    
C33   C35   A    
C30   C39   A    
C68   H11   S    
C69   C70   S    
C69   O7    S    
C10   C11   A    
C27   O8    S    
C83   H50   S    
C2    C5    A    
C77   H38   S    
C23   C61   A    
C79   H40   S    
C71   C72   S    
C20   C21   A    
C77   O11   S    
C49   C50   A    
C35   H54   S    
C32   O9    S    
C47   F9    S    
C14   C15   A    
C3    C22   A    
C5    C9    A    
Cu1   O1    S    
C65   H6    S    
C51   C53   A    
C37   C46   A    
C52   O15   S    
C80   H43   S    
C29   F6    S    
C75   H31   S    
C44   H12   S    
C15   F2    S    
C83   H51   S    
C63   C78   A    
C7    F3    S    
