data_mof_unit_42910.cif
_audit_creation_date              2012-10-26T19:04:45-0400
_audit_creation_method            fapswitch 2.2
_symmetry_space_group_name_H-M    P1
_symmetry_Int_Tables_number       1
_space_group_crystal_system       triclinic
_cell_length_a                    9.648938
_cell_length_b                    10.821231
_cell_length_c                    13.566896
_cell_angle_alpha                 93.204076
_cell_angle_beta                  73.649603
_cell_angle_gamma                 89.176766
_cell_volume                      1356.48199286

loop_
_atom_site_label
_atom_site_type_symbol
_atom_type_description
_atom_site_fract_x
_atom_site_fract_y
_atom_site_fract_z
_atom_type_partial_charge
C1    C     C_R   0.501874 0.736714 0.491777 0.552551
C2    C     C_R   0.384716 0.470399 0.811530 0.007884
C3    C     C_R   0.260798 0.889159 0.444866 0.018996
C4    C     C_R   0.424312 0.488953 0.698682 0.545167
C5    C     C_R   0.122261 0.944177 0.483916 -0.086866
C6    C     C_R   0.101831 0.053871 0.546422 -0.007493
C7    C     C_R   0.222355 0.117057 0.557037 -0.085021
C8    C     C_R   0.362729 0.063904 0.516356 0.003940
C9    C     C_R   0.376737 0.939146 0.478625 0.034050
C10   C     C_R   0.502228 0.870875 0.482261 -0.009289
C11   C     C_R   0.621088 0.933953 0.497607 -0.161620
C12   C     C_R   0.442835 0.500949 0.976906 0.027734
C13   C     C_R   0.615694 0.061355 0.511342 -0.170896
C14   C     C_R   0.489511 0.128478 0.516476 -0.011864
C15   C     C_R   0.933428 0.374180 0.329626 0.055373
C16   C     C_R   0.496323 0.263145 0.508505 0.526946
C17   C     C_R   0.048224 0.360150 0.239409 -0.161383
C18   C     C_R   0.184982 0.339067 0.249298 -0.203476
C19   C     C_R   0.209893 0.364199 0.343891 -0.088558
C20   C     C_R   0.107313 0.433601 0.422636 0.133409
C21   C     C_R   0.959506 0.435741 0.419579 0.154665
C22   C     C_R   0.895764 0.562855 0.574449 -0.029384
C23   C     C_R   0.489765 0.481379 0.868011 0.018304
C24   C     C_R   0.043403 0.563693 0.573896 -0.026753
C25   C     C_R   0.576620 0.506267 0.301719 0.526166
C26   C     C_R   0.798647 0.548964 0.030440 -0.143027
C27   C     C_R   0.618449 0.521345 0.190982 -0.004774
C28   C     C_R   0.239910 0.446936 0.866505 -0.006508
C29   C     C_R   0.196928 0.462934 0.973529 -0.124968
C30   C     C_R   0.293753 0.498986 0.026928 -0.144557
C31   C     C_3   0.283750 0.792786 0.356472 -0.359816
C32   C     C_3   0.953436 0.106405 0.599328 -0.415917
C33   C     C_3   0.841418 0.262071 0.337183 -0.323657
C34   C     C_R   0.547492 0.517495 0.032106 0.032260
C35   C     C_3   0.130382 0.400324 0.814411 -0.385285
C36   C     C_R   0.694916 0.527633 0.977782 0.056392
C37   C     C_R   0.739311 0.504629 0.872084 -0.153029
C38   C     C_R   0.640517 0.469982 0.820285 -0.129000
C39   C     C_R   0.511940 0.515591 0.139396 -0.147833
C40   C     C_R   0.761400 0.543374 0.136740 -0.143375
Cu1   Cu    Cu3+1 0.359340 0.500010 0.500010 0.897621
Cu2   Cu    Cu3+1 0.640660 0.499990 0.499990 0.915106
H1    H     H_    0.844432 0.553914 0.175911 0.133347
H2    H     H_    0.073243 0.616880 0.634253 0.119611
H3    H     H_    0.909338 0.564813 0.988532 0.109249
H4    H     H_    0.403006 0.502473 0.184153 0.129379
H5    H     H_    0.248306 0.521837 0.107938 0.113742
H6    H     H_    0.086527 0.448872 0.016848 0.106846
H7    H     H_    0.687979 0.426847 0.744708 0.155918
H8    H     H_    0.718435 0.885004 0.500606 0.135684
H9    H     H_    0.246341 0.831548 0.293942 0.106430
H10   H     H_    0.399608 0.765522 0.323091 0.141733
H11   H     H_    0.220029 0.709892 0.381726 0.170024
H12   H     H_    0.031165 0.902529 0.464338 0.105618
H13   H     H_    0.870822 0.036990 0.597185 0.122284
H14   H     H_    0.944151 0.131288 0.681515 0.131334
H15   H     H_    0.932818 0.190830 0.562092 0.133477
H16   H     H_    0.890934 0.185698 0.278774 0.090569
H17   H     H_    0.836180 0.220910 0.410275 0.137064
H18   H     H_    0.735979 0.282478 0.323710 0.170503
H19   H     H_    0.033564 0.365433 0.870354 0.111492
H20   H     H_    0.094298 0.476050 0.775024 0.146448
H21   H     H_    0.178354 0.321993 0.758420 0.135390
H22   H     H_    0.204068 0.203655 0.602999 0.139868
H23   H     H_    0.708867 0.107167 0.521683 0.122115
H24   H     H_    0.816317 0.615149 0.635369 0.123488
H25   H     H_    0.028586 0.327349 0.167715 0.119704
H26   H     H_    0.269537 0.297123 0.185250 0.127077
H27   H     H_    0.310616 0.330532 0.351661 0.189508
H28   H     H_    0.852329 0.503112 0.830096 0.091399
N1    N     N_R   0.852480 0.498790 0.499000 -0.245157
N2    N     N_R   0.148360 0.498710 0.498970 -0.254479
O1    O     O_R   0.381190 0.680360 0.500010 -0.493373
O2    O     O_R   0.618760 0.680340 0.500000 -0.499763
O3    O     O_R   0.323240 0.499990 0.650990 -0.503602
O4    O     O_R   0.560820 0.499960 0.650980 -0.516505
O5    O     O_R   0.381240 0.319660 0.500000 -0.529228
O6    O     O_R   0.618810 0.319640 0.499990 -0.519709
O7    O     O_R   0.439180 0.500040 0.349020 -0.535753
O8    O     O_R   0.676760 0.500010 0.349010 -0.503946

loop_
_geom_bond_atom_site_label_1
_geom_bond_atom_site_label_2
_ccdc_geom_bond_type
C6    C32   S    
Cu2   O8    S    
C33   H16   S    
C25   O8    A    
Cu1   Cu2   S    
C19   C20   A    
C31   H10   S    
C7    C8    A    
C38   H7    S    
C13   H23   S    
C12   C23   A    
C29   C30   A    
C21   N1    A    
C1    O2    A    
C36   C37   A    
C18   C19   A    
Cu1   O5    S    
C5    C6    A    
C18   H26   S    
C16   O5    A    
C22   H24   S    
C4    O3    A    
C26   H3    S    
C40   H1    S    
C28   C35   S    
C27   C39   A    
C8    C9    A    
C14   C16   S    
C9    C10   A    
C32   H13   S    
C16   O6    A    
C33   H17   S    
C37   H28   S    
C32   H15   S    
Cu2   O2    S    
C17   H25   S    
C29   H6    S    
C34   C39   A    
C5    H12   S    
C2    C4    S    
C37   C38   A    
C3    C9    A    
Cu1   O3    S    
C30   H5    S    
C27   C40   A    
C17   C18   A    
C35   H19   S    
C31   H11   S    
C3    C31   S    
C39   H4    S    
C26   C36   A    
Cu2   O6    S    
C33   H18   S    
Cu1   N2    S    
C24   H2    S    
C22   C24   A    
C19   H27   S    
C12   C34   A    
C22   N1    A    
C24   N2    A    
C15   C17   A    
C28   C29   A    
C8    C14   A    
C12   C30   A    
C25   O7    A    
C1    C10   S    
C31   H9    S    
C3    C5    A    
Cu1   O7    S    
C35   H21   S    
C6    C7    A    
C25   C27   S    
C23   C38   A    
Cu2   O4    S    
C1    O1    A    
C11   H8    S    
C11   C13   A    
C26   C40   A    
Cu2   N1    S    
C32   H14   S    
C35   H20   S    
C34   C36   A    
C7    H22   S    
C4    O4    A    
C10   C11   A    
Cu1   O1    S    
C15   C21   A    
C20   C21   A    
C2    C23   A    
C20   N2    A    
C2    C28   A    
C13   C14   A    
C15   C33   S    
