data_mof_unit_25818.cif
_audit_creation_date              2012-12-10T16:46:05-0500
_audit_creation_method            fapswitch 2.2
_symmetry_space_group_name_H-M    P1
_symmetry_Int_Tables_number       1
_space_group_crystal_system       triclinic
_cell_length_a                    10.711407
_cell_length_b                    8.685359
_cell_length_c                    7.440507
_cell_angle_alpha                 102.526541
_cell_angle_beta                  94.7295
_cell_angle_gamma                 92.515594
_cell_volume                      672.070983705

loop_
_atom_site_label
_atom_site_type_symbol
_atom_type_description
_atom_site_fract_x
_atom_site_fract_y
_atom_site_fract_z
_atom_type_partial_charge
C1    C     C_R   0.506089 0.201063 0.453714 0.865365
C2    C     C_3   0.073394 0.373553 0.613419 -0.125918
C3    C     C_3   0.928127 0.370083 0.605981 -0.363190
C4    C     C_3   0.081805 0.658592 0.586912 -0.412517
C5    C     C_3   0.058962 0.444513 0.296126 -0.395518
C6    C     C_3   0.121558 0.491673 0.499269 0.099372
C7    C     C_2   0.602220 0.962161 0.271606 0.385957
C8    C     C_2   0.121361 0.210097 0.557748 0.312244
C9    C     C_2   0.855105 0.287856 0.180838 0.400733
C10   C     C_3   0.877038 0.489816 0.493849 0.043940
C11   C     C_3   0.937921 0.656862 0.586699 -0.396822
C12   C     C_3   0.915292 0.444733 0.291379 -0.159235
C13   C     C_2   0.532949 0.037861 0.430875 -0.183485
C14   C     C_2   0.505957 0.967370 0.567248 -0.406988
C15   C     C_R   0.259877 0.496928 0.500595 0.755017
C16   C     C_R   0.507335 0.800143 0.545599 0.856518
C17   C     C_R   0.739628 0.495165 0.497555 0.744009
Cu1   Cu    Cu3+1 0.514070 0.517380 0.684380 0.986533
Cu2   Cu    Cu3+1 0.485930 0.482620 0.315620 0.993200
H1    H     H_    0.110640 0.419585 0.760611 0.103633
H2    H     H_    0.089638 0.327763 0.225535 0.198176
H3    H     H_    0.884602 0.538189 0.218537 0.163028
H4    H     H_    0.114402 0.745560 0.508005 0.190293
H5    H     H_    0.660417 0.864844 0.282398 0.054151
H6    H     H_    0.198567 0.176497 0.642154 0.066709
H7    H     H_    0.883738 0.249770 0.546445 0.171185
H8    H     H_    0.871767 0.179292 0.225728 0.123848
H9    H     H_    0.901413 0.745901 0.511697 0.168176
H10   H     H_    0.469653 0.032003 0.692320 0.193217
H11   H     H_    0.399969 0.380042 0.948597 0.215966
H12   H     H_    0.600753 0.618853 0.051089 0.224135
H13   H     H_    0.901269 0.402266 0.750160 0.196716
H14   H     H_    0.125953 0.698230 0.731417 0.179518
H15   H     H_    0.913232 0.692386 0.731761 0.190487
H16   H     H_    0.091436 0.530702 0.215968 0.167776
N1    N     N_2   0.464720 0.456420 0.038520 -0.193757
N2    N     N_2   0.535280 0.543580 0.961480 -0.185656
O1    O     O_R   0.509140 0.286130 0.619770 -0.592373
O2    O     O_2   0.077581 0.116603 0.417200 -0.582215
O3    O     O_2   0.787998 0.281789 0.038293 -0.518653
O4    O     O_R   0.485380 0.256770 0.308360 -0.527656
O5    O     O_R   0.329570 0.514650 0.655700 -0.609643
O6    O     O_R   0.305810 0.485300 0.344290 -0.590188
O7    O     O_R   0.514620 0.743230 0.691640 -0.547770
O8    O     O_R   0.490860 0.713870 0.380230 -0.597656
O9    O     O_R   0.694190 0.514700 0.655710 -0.575334
O10   O     O_R   0.670430 0.485350 0.344300 -0.577929
O11   O     O_2   0.597498 0.009994 0.128661 -0.507402

loop_
_geom_bond_atom_site_label_1
_geom_bond_atom_site_label_2
_ccdc_geom_bond_type
C16   O8    A    
Cu2   O8    S    
C8    O2    D    
Cu1   O7    S    
C17   O10   A    
C16   O7    A    
H11   N1    S    
C7    O11   D    
Cu1   O5    S    
C2    C3    S    
Cu1   O1    S    
C15   O6    A    
C3    C10   S    
C13   C14   D    
C4    C11   S    
C8    H6    S    
C2    C6    S    
C10   C12   S    
C1    O1    A    
C5    C6    S    
Cu1   O9    S    
C1    O4    A    
N1    N2    D    
C9    C12   S    
Cu1   N2    S    
Cu2   O6    S    
C14   C16   S    
Cu2   N1    S    
C9    O3    D    
C3    H13   S    
C12   H3    S    
C11   H9    S    
C1    C13   S    
C10   C11   S    
C14   H10   S    
C2    H1    S    
C7    H5    S    
C5    H16   S    
C7    C13   S    
C5    H2    S    
C17   O9    A    
C9    H8    S    
C5    C12   S    
C4    C6    S    
Cu1   Cu2   S    
Cu2   O10   S    
C3    H7    S    
C4    H4    S    
C4    H14   S    
C10   C17   S    
C6    C15   S    
C11   H15   S    
C2    C8    S    
Cu2   O4    S    
C15   O5    A    
H12   N2    S    
