data_mof_unit_20743.cif
_audit_creation_date              2012-12-11T16:51:30-0500
_audit_creation_method            fapswitch 2.2
_symmetry_space_group_name_H-M    P1
_symmetry_Int_Tables_number       1
_space_group_crystal_system       triclinic
_cell_length_a                    24.483959
_cell_length_b                    17.238948
_cell_length_c                    15.543848
_cell_angle_alpha                 89.846832
_cell_angle_beta                  128.955788
_cell_angle_gamma                 90.070636
_cell_volume                      5101.79585156

loop_
_atom_site_label
_atom_site_type_symbol
_atom_type_description
_atom_site_fract_x
_atom_site_fract_y
_atom_site_fract_z
_atom_type_partial_charge
C1    C     C_R   0.839407 0.874676 0.215224 -0.122089
C2    C     C_R   0.184065 0.118631 0.501205 -0.272830
C3    C     C_2   0.769190 0.278146 0.368923 0.573663
C4    C     C_R   0.316498 0.617863 0.499543 -0.285607
C5    C     C_R   0.684506 0.618691 0.502377 -0.259746
C6    C     C_R   0.883862 0.183652 0.211844 0.087358
C7    C     C_R   0.116446 0.183148 0.788586 0.089075
C8    C     C_R   0.383774 0.683551 0.211715 0.089595
C9    C     C_R   0.644043 0.633802 0.856999 0.087116
C10   C     C_R   0.849252 0.721455 0.611338 0.099883
C11   C     C_R   0.157417 0.729367 0.392540 0.088794
C12   C     C_R   0.346592 0.225646 0.609516 0.098003
C13   C     C_R   0.167248 0.892860 0.801297 -0.118853
C14   C     C_R   0.654161 0.226736 0.391164 0.094853
C15   C     C_R   0.836106 0.740822 0.512414 0.077908
C16   C     C_R   0.167457 0.743742 0.490174 0.077209
C17   C     C_R   0.336606 0.240613 0.511950 0.075251
C18   C     C_R   0.664172 0.241251 0.488761 0.075922
C19   C     C_R   0.787128 0.696499 0.417565 -0.234673
C20   C     C_R   0.213630 0.696169 0.582930 -0.228915
C21   C     C_R   0.288850 0.194508 0.418444 -0.231504
C22   C     C_R   0.711843 0.194793 0.582200 -0.231353
C23   C     C_R   0.242220 0.146059 0.416911 -0.113790
C24   C     C_R   0.332779 0.392943 0.198821 -0.120103
C25   C     C_R   0.758228 0.146196 0.583516 -0.112468
C26   C     C_R   0.741184 0.647253 0.416449 -0.122021
C27   C     C_R   0.258984 0.646145 0.583838 -0.109798
C28   C     C_R   0.242942 0.145403 0.508156 0.112819
C29   C     C_R   0.757403 0.145792 0.492160 0.112103
C30   C     C_R   0.743911 0.643904 0.509598 0.113556
C31   C     C_R   0.258379 0.645693 0.492789 0.113199
C32   C     C_R   0.298738 0.181201 0.605976 0.226002
C33   C     C_R   0.701801 0.182158 0.394512 0.224290
C34   C     C_R   0.802422 0.675788 0.608995 0.218581
C35   C     C_R   0.667341 0.393204 0.801498 -0.124130
C36   C     C_R   0.204098 0.683449 0.395642 0.227836
C37   C     C_3   0.810384 0.722451 0.698287 -0.222076
C38   C     C_3   0.205536 0.736118 0.319557 -0.257752
C39   C     C_3   0.299725 0.233593 0.684330 -0.251326
C40   C     C_3   0.701148 0.234954 0.316521 -0.252918
C41   C     C_R   0.087823 0.857230 0.407519 -0.122823
C42   C     C_R   0.915292 0.855915 0.594525 -0.123356
C43   C     C_R   0.584220 0.355350 0.406461 -0.126590
C44   C     C_R   0.416103 0.355098 0.593847 -0.131258
C45   C     C_3   0.862723 0.771849 0.701673 -0.596188
C46   C     C_R   0.884616 0.103573 0.591010 0.643010
C47   C     C_3   0.152009 0.785272 0.312805 -0.563958
C48   C     C_3   0.354288 0.281019 0.691266 -0.571181
C49   C     C_3   0.646775 0.282542 0.309741 -0.566436
C50   C     C_2   0.193832 0.848797 0.980031 -0.205559
C51   C     C_2   0.838110 0.771405 0.100805 -0.203317
C52   C     C_2   0.694091 0.349547 0.980502 -0.206430
C53   C     C_2   0.306391 0.348594 0.020571 -0.205767
C54   C     C_2   0.263536 0.847114 0.038213 -0.099936
C55   C     C_2   0.799740 0.722442 0.110192 -0.107579
C56   C     C_2   0.763775 0.347504 0.038456 -0.102718
C57   C     C_R   0.115513 0.103587 0.409044 0.641862
C58   C     C_2   0.236720 0.346289 0.962543 -0.100160
C59   C     C_2   0.859085 0.256724 0.150050 -0.182493
C60   C     C_2   0.141390 0.255856 0.850654 -0.182555
C61   C     C_2   0.358957 0.756589 0.149922 -0.182397
C62   C     C_2   0.689564 0.664431 0.968959 -0.186113
C63   C     C_2   0.805393 0.295033 0.132468 -0.100196
C64   C     C_2   0.195300 0.294019 0.868671 -0.102067
C65   C     C_2   0.305234 0.794803 0.132344 -0.101439
C66   C     C_2   0.759015 0.664057 0.026562 -0.114955
C67   C     C_R   0.163582 0.856843 0.591745 -0.071835
C68   C     C_R   0.385226 0.604193 0.591498 0.669825
C69   C     C_R   0.836093 0.857099 0.410664 -0.076981
C70   C     C_R   0.662023 0.355641 0.590896 -0.070577
C71   C     C_R   0.338279 0.355496 0.409453 -0.069523
C72   C     C_R   0.077170 0.894210 0.803722 -0.147456
C73   C     C_R   0.929434 0.875887 0.212349 -0.132950
C74   C     C_R   0.577275 0.394516 0.803929 -0.155220
C75   C     C_R   0.422911 0.394268 0.196490 -0.146921
C76   C     C_R   0.866424 0.840349 0.169186 0.132737
C77   C     C_R   0.147440 0.875067 0.864924 0.137991
C78   C     C_R   0.352656 0.375111 0.135379 0.138362
C79   C     C_R   0.615820 0.603660 0.409658 0.637786
C80   C     C_R   0.647621 0.375640 0.865291 0.143333
C81   C     C_R   0.139492 0.814601 0.498082 0.054740
C82   C     C_R   0.862651 0.813492 0.504826 0.056858
C83   C     C_R   0.636152 0.312376 0.496835 0.055357
C84   C     C_R   0.364374 0.312034 0.503697 0.057693
C85   C     C_R   0.811386 0.100497 0.408421 0.561619
C86   C     C_R   0.188644 0.100343 0.591633 0.561632
C87   C     C_R   0.311386 0.599505 0.408810 0.561836
C88   C     C_R   0.688701 0.600343 0.592392 0.575843
C89   C     C_R   0.941920 0.141172 0.242654 -0.111166
C90   C     C_R   0.816079 0.118740 0.498895 -0.274097
C91   C     C_R   0.058254 0.140843 0.757597 -0.111458
C92   C     C_R   0.441868 0.641121 0.242550 -0.110590
C93   C     C_R   0.574752 0.611476 0.798256 -0.085283
C94   C     C_R   0.149209 0.141139 0.756421 -0.106316
C95   C     C_R   0.850994 0.141427 0.243853 -0.103805
C96   C     C_R   0.664893 0.612960 0.795683 -0.111448
C97   C     C_R   0.350926 0.641338 0.243767 -0.106357
C98   C     C_2   0.745992 0.767205 0.662131 0.568489
C99   C     C_2   0.274657 0.777457 0.373863 0.574434
C100  C     C_2   0.231949 0.277265 0.632328 0.572332
F1    F     F_    0.751156 0.083440 0.306281 -0.719080
F2    F     F_    0.248776 0.082833 0.693798 -0.720824
F3    F     F_    0.251109 0.581946 0.306943 -0.719248
F4    F     F_    0.748370 0.581481 0.694242 -0.736268
F5    F     F_    0.908416 0.096178 0.696320 -0.720614
F6    F     F_    0.091823 0.096277 0.303831 -0.720427
F7    F     F_    0.410496 0.600343 0.697865 -0.722966
F8    F     F_    0.592253 0.596227 0.304539 -0.724444
H1    H     H_    0.786799 0.868347 0.187908 0.106528
H2    H     H_    0.184009 0.708645 0.239251 0.169382
H3    H     H_    0.321046 0.205117 0.764135 0.171752
H4    H     H_    0.679763 0.206907 0.236617 0.171441
H5    H     H_    0.846010 0.833181 0.675837 0.238502
H6    H     H_    0.170197 0.844941 0.346473 0.239359
H7    H     H_    0.337571 0.341361 0.659388 0.238328
H8    H     H_    0.663729 0.342686 0.341969 0.239439
H9    H     H_    0.917220 0.764971 0.780248 0.189039
H10   H     H_    0.099412 0.783107 0.229690 0.184641
H11   H     H_    0.407130 0.276877 0.773744 0.186489
H12   H     H_    0.219937 0.895183 0.827943 0.105976
H13   H     H_    0.593938 0.278921 0.227206 0.185723
H14   H     H_    0.784022 0.277491 0.172880 0.117151
H15   H     H_    0.216848 0.276619 0.828568 0.117437
H16   H     H_    0.283875 0.777255 0.172787 0.116651
H17   H     H_    0.783676 0.633680 0.997964 0.136448
H18   H     H_    0.288180 0.872816 0.006484 0.134636
H19   H     H_    0.789557 0.732847 0.167937 0.127230
H20   H     H_    0.788389 0.372974 0.006546 0.132207
H21   H     H_    0.211939 0.371584 0.994138 0.134211
H22   H     H_    0.879558 0.274167 0.107909 0.143163
H23   H     H_    0.280086 0.395223 0.172169 0.105992
H24   H     H_    0.120750 0.273166 0.892500 0.143376
H25   H     H_    0.379386 0.774049 0.107721 0.143254
H26   H     H_    0.665805 0.695897 0.998559 0.146271
H27   H     H_    0.169989 0.822571 0.013019 0.133891
H28   H     H_    0.848035 0.760803 0.042778 0.134875
H29   H     H_    0.670278 0.323561 0.013673 0.134412
H30   H     H_    0.330370 0.322744 0.987728 0.133842
H31   H     H_    0.059509 0.841729 0.322833 0.112744
H32   H     H_    0.948446 0.839140 0.680264 0.115966
H33   H     H_    0.551832 0.338732 0.320747 0.115681
H34   H     H_    0.720009 0.395644 0.828060 0.103728
H35   H     H_    0.448644 0.338341 0.679640 0.117454
H36   H     H_    0.205055 0.841181 0.676902 0.102965
H37   H     H_    0.791685 0.842468 0.327224 0.097806
H38   H     H_    0.703637 0.339688 0.675879 0.102329
H39   H     H_    0.296732 0.339547 0.324570 0.101616
H40   H     H_    0.048601 0.897987 0.835436 0.114479
H41   H     H_    0.958029 0.870215 0.181094 0.101885
H42   H     H_    0.548665 0.398340 0.835570 0.110989
H43   H     H_    0.451560 0.397960 0.164886 0.113242
H44   H     H_    0.978722 0.157227 0.229375 0.176493
H45   H     H_    0.202157 0.115795 0.341368 0.202316
H46   H     H_    0.021532 0.156762 0.771018 0.176691
H47   H     H_    0.478673 0.657162 0.229262 0.175429
H48   H     H_    0.545290 0.610662 0.828507 0.173529
H49   H     H_    0.196718 0.155269 0.769062 0.139081
H50   H     H_    0.803559 0.155649 0.231334 0.139643
H51   H     H_    0.716990 0.614674 0.819987 0.151071
H52   H     H_    0.303482 0.655470 0.231294 0.137298
H53   H     H_    0.778995 0.706136 0.341373 0.132385
H54   H     H_    0.219675 0.703198 0.657713 0.139850
H55   H     H_    0.282482 0.201858 0.343383 0.140349
H56   H     H_    0.798176 0.115535 0.658956 0.202843
H57   H     H_    0.718248 0.201852 0.657287 0.140693
H58   H     H_    0.730515 0.766565 0.713969 -0.000043
H59   H     H_    0.299996 0.774328 0.336755 -0.030854
H60   H     H_    0.207287 0.274950 0.670558 -0.030793
H61   H     H_    0.794178 0.275495 0.331242 -0.031541
H62   H     H_    0.699915 0.619040 0.339793 0.205062
H63   H     H_    0.298190 0.614440 0.658726 0.198208
H64   H     H_    0.835401 0.689209 0.776250 0.170811
N1    N     N_R   0.888400 0.921830 0.294620 -0.046250
N2    N     N_R   0.874350 0.922400 0.443380 -0.043192
N3    N     N_R   0.625650 0.422400 0.556620 -0.043963
N4    N     N_R   0.374350 0.422400 0.443380 -0.043519
N5    N     N_R   0.054230 0.922730 0.705400 -0.047740
N6    N     N_R   0.945770 0.922730 0.294600 -0.045233
N7    N     N_R   0.554230 0.422730 0.705400 -0.046569
N8    N     N_R   0.445770 0.422730 0.294600 -0.046987
N9    N     N_R   0.873790 0.077030 0.443380 -0.138433
N10   N     N_R   0.126210 0.077030 0.556620 -0.138162
N11   N     N_R   0.373790 0.577030 0.443380 -0.138668
N12   N     N_R   0.111600 0.921830 0.705380 -0.049314
N13   N     N_R   0.626210 0.577030 0.556620 -0.135107
N14   N     N_R   0.945200 0.076700 0.294600 -0.047234
N15   N     N_R   0.054800 0.076700 0.705400 -0.046371
N16   N     N_R   0.445200 0.576700 0.294600 -0.045929
N17   N     N_R   0.554800 0.576700 0.705400 -0.051473
N18   N     N_R   0.111030 0.077600 0.705380 -0.043724
N19   N     N_R   0.888970 0.077600 0.294620 -0.044058
N20   N     N_R   0.611030 0.577600 0.705380 -0.049040
N21   N     N_R   0.388970 0.577600 0.294620 -0.043389
N22   N     N_R   0.919490 0.077280 0.556590 -0.145380
N23   N     N_R   0.388400 0.421830 0.294620 -0.048895
N24   N     N_R   0.080510 0.077280 0.443410 -0.145211
N25   N     N_R   0.419490 0.577280 0.556590 -0.144627
N26   N     N_R   0.580510 0.577280 0.443410 -0.143006
N27   N     N_R   0.611600 0.421830 0.705380 -0.047589
N28   N     N_R   0.079940 0.922160 0.443410 -0.048484
N29   N     N_R   0.920060 0.922160 0.556590 -0.048323
N30   N     N_R   0.579940 0.422160 0.443410 -0.047676
N31   N     N_R   0.420060 0.422160 0.556590 -0.050150
N32   N     N_R   0.125650 0.922400 0.556620 -0.044612
Ni1   Ni    Ni4+2 0.882160 0.999430 0.370180 0.267337
Ni2   Ni    Ni4+2 0.117840 0.999430 0.629820 0.261612
Ni3   Ni    Ni4+2 0.382160 0.499430 0.370180 0.263073
Ni4   Ni    Ni4+2 0.617840 0.499430 0.629820 0.253924
Ni5   Ni    Ni4+2 0.012460 0.999430 0.370180 0.256674
Ni6   Ni    Ni4+2 0.987540 0.999430 0.629820 0.252926
Ni7   Ni    Ni4+2 0.512460 0.499430 0.370180 0.254597
Ni8   Ni    Ni4+2 0.487540 0.499430 0.629820 0.243688
O1    O     O_2   0.711173 0.804242 0.575811 -0.571816
O2    O     O_2   0.303328 0.813088 0.460329 -0.560173
O3    O     O_2   0.203622 0.313976 0.546537 -0.565144
O4    O     O_2   0.797426 0.314734 0.454541 -0.564917

loop_
_geom_bond_atom_site_label_1
_geom_bond_atom_site_label_2
_ccdc_geom_bond_type
C47   H6    S    
C71   H39   S    
C100  O3    D    
N21   Ni3   S    
C27   H63   S    
N17   N20   A    
C34   C37   S    
C69   H37   S    
C89   N14   A    
C14   C18   A    
C11   C47   S    
C42   C82   A    
N30   Ni7   S    
C12   C48   S    
C60   H24   S    
C14   C33   A    
C67   N32   A    
C2    C57   A    
C61   H25   S    
C59   H22   S    
C4    C87   A    
C55   C66   S    
C15   C19   A    
C54   H18   S    
C1    N1    A    
N11   N25   A    
C21   H55   S    
C72   N5    A    
N4    Ni3   S    
C11   C36   A    
C51   H28   S    
C71   C84   A    
C50   H27   S    
C31   C36   A    
C87   N11   A    
N16   Ni7   S    
C32   C39   S    
C14   C49   S    
N22   Ni6   S    
C58   H21   S    
C40   C49   S    
C95   H50   S    
C46   F5    S    
C29   C33   A    
C35   C80   A    
N11   Ni3   S    
C71   N4    A    
C19   H53   S    
C65   H16   S    
C97   N21   A    
N14   N19   A    
C19   C26   A    
C29   C90   S    
N15   N18   A    
C16   C81   S    
C69   C82   A    
C1    H1    S    
C22   H57   S    
N18   Ni2   S    
C47   H10   S    
N9    N22   A    
C74   N7    A    
C75   H43   S    
C22   C25   A    
C12   C17   A    
N2    Ni1   S    
N19   Ni1   S    
C70   H38   S    
C68   F7    S    
C86   N10   A    
N13   N26   A    
C38   H2    S    
C52   H29   S    
C70   N3    A    
N28   N32   A    
C8    C61   S    
C39   H3    S    
C57   F6    S    
C49   H13   S    
C79   N26   A    
C74   C80   A    
C12   C32   A    
C25   C29   A    
N20   Ni4   S    
N4    N31   A    
N3    Ni4   S    
C43   N30   A    
C41   N28   A    
C67   H36   S    
C37   C98   S    
C88   F4    S    
C46   N22   A    
C15   C82   S    
C99   H59   S    
C89   H44   S    
C58   C64   S    
C85   C90   A    
C13   C77   A    
C33   C40   S    
C62   C66   D    
C57   N24   A    
C35   N27   A    
C53   H30   S    
C97   H52   S    
C28   C32   A    
C51   C76   S    
C91   H46   S    
C40   H4    S    
C54   C65   S    
C30   C34   A    
C3    H61   S    
C24   N23   A    
C3    O4    D    
C72   H40   S    
C42   H32   S    
N7    Ni8   S    
N2    N29   A    
C17   C21   A    
C9    C62   S    
N6    Ni5   S    
C68   N25   A    
N10   Ni2   S    
N5    Ni6   S    
N8    Ni7   S    
N9    Ni1   S    
C8    C97   A    
C94   N18   A    
C72   C77   A    
N26   Ni7   S    
C45   H5    S    
C44   N31   A    
C11   C16   A    
N15   Ni6   S    
C75   N8    A    
C41   C81   A    
C16   C20   A    
C13   N12   A    
C20   H54   S    
N12   Ni2   S    
C96   H51   S    
C10   C45   S    
C18   C83   S    
C56   C63   S    
N23   Ni3   S    
C10   C34   A    
C50   C54   D    
C23   C28   A    
N13   Ni4   S    
C70   C83   A    
C9    C96   A    
C38   C47   S    
C98   H58   S    
N8    N23   A    
C48   H7    S    
C8    C92   A    
C73   N6    A    
C24   C78   A    
C88   N13   A    
C99   O2    D    
C98   O1    D    
N32   Ni2   S    
N16   N21   A    
C67   C81   A    
C94   H49   S    
C23   H45   S    
C27   C31   A    
C37   H64   S    
C87   F3    S    
N31   Ni8   S    
C43   H33   S    
C5    C79   A    
C69   N2    A    
N24   Ni5   S    
C37   C45   S    
N5    N12   A    
C50   C77   S    
C9    C93   A    
C7    C91   A    
C63   H14   S    
C85   F1    S    
C4    C68   A    
C5    C30   S    
C45   H9    S    
C7    C94   A    
C91   N15   A    
C85   N9    A    
C95   N19   A    
C73   H41   S    
C10   C15   A    
C18   C22   A    
C1    C76   A    
C6    C59   S    
C93   H48   S    
C7    C60   S    
N3    N30   A    
C55   H19   S    
C38   C99   S    
C44   C84   A    
N17   Ni8   S    
C3    C40   S    
N1    Ni1   S    
C53   C58   D    
C92   N16   A    
C26   C30   A    
C46   C90   A    
C20   C27   A    
C93   N17   A    
C6    C89   A    
C59   C63   D    
N28   Ni5   S    
C66   H17   S    
C100  H60   S    
C60   C64   D    
C17   C84   S    
C96   N20   A    
C21   C23   A    
C53   C78   S    
N29   Ni6   S    
N25   Ni8   S    
C43   C83   A    
C24   H23   S    
C62   H26   S    
C39   C100  S    
N7    N27   A    
N1    N6    A    
C44   H35   S    
C36   C38   S    
N27   Ni4   S    
C73   C76   A    
C79   F8    S    
C2    C86   A    
C92   H47   S    
C51   C55   D    
C56   H20   S    
C75   C78   A    
C41   H31   S    
C4    C31   S    
C35   H34   S    
C64   H15   S    
C61   C65   D    
C49   H8    S    
N10   N24   A    
C26   H62   S    
C6    C95   A    
N14   Ni5   S    
C5    C88   A    
C48   H11   S    
C74   H42   S    
C42   N29   A    
C2    C28   S    
C13   H12   S    
C25   H56   S    
C52   C80   S    
C52   C56   D    
C39   C48   S    
C86   F2    S    
