data_mof_unit_15723.cif
_audit_creation_date              2013-03-05T15:52:56-0500
_audit_creation_method            fapswitch 2.2
_symmetry_space_group_name_H-M    P1
_symmetry_Int_Tables_number       1
_space_group_crystal_system       triclinic
_cell_length_a                    10.673503
_cell_length_b                    10.847942
_cell_length_c                    17.11906
_cell_angle_alpha                 100.00506
_cell_angle_beta                  100.277947
_cell_angle_gamma                 60.606951
_cell_volume                      1690.66908792

loop_
_atom_site_label
_atom_site_type_symbol
_atom_site_description
_atom_site_fract_x
_atom_site_fract_y
_atom_site_fract_z
_atom_type_partial_charge
O1    O     O_R   0.749810 0.499790 0.438040 -0.519564
O2    O     O_R   0.477660 0.726260 0.439290 -0.516334
C1    C     C_R   0.377041 0.715307 0.386960 0.561748
O3    O     O_R   0.260150 0.743000 0.412270 -0.451460
O4    O     O_R   0.297740 0.466550 0.394720 -0.447645
C2    C     C_R   0.367948 0.345514 0.358010 0.566009
O5    O     O_R   0.488080 0.253500 0.386430 -0.544287
O6    O     O_R   0.722670 0.303800 0.421940 -0.507184
C3    C     C_R   0.774467 0.378076 0.402622 0.537575
O7    O     O_R   0.751130 0.502220 0.613520 -0.505138
O8    O     O_R   0.478890 0.728510 0.601960 -0.480871
C4    C     C_R   0.381725 0.715076 0.631622 0.537530
O9    O     O_R   0.261470 0.745430 0.587750 -0.508773
O10   O     O_R   0.298970 0.468800 0.557390 -0.505812
C5    C     C_R   0.406985 0.374043 0.600039 0.527394
O11   O     O_R   0.489400 0.255930 0.561910 -0.518592
O12   O     O_R   0.723890 0.306050 0.584610 -0.532548
C6    C     C_R   0.772688 0.381641 0.629925 0.538207
Cr1   Cr    Cr6+3 0.608100 0.610860 0.522250 1.016350
Cr2   Cr    Cr6+3 0.288890 0.599990 0.488420 1.065395
Cr3   Cr    Cr6+3 0.603040 0.289190 0.489390 0.977336
O13   O     O_3   0.500010 0.500010 0.500020 -0.305782
C7    C     C_1   0.340841 0.332043 0.274894 0.013876
C8    C     C_1   0.330817 0.320101 0.204226 0.020044
H1    H     H_    0.779472 0.566428 0.322848 0.167314
C9    C     C_R   0.823959 0.334834 0.159108 -0.009653
C10   C     C_R   0.829622 0.219962 0.191280 -0.017723
C11   C     C_R   0.846226 0.220123 0.274851 0.008356
C12   C     C_R   0.800564 0.465745 0.288358 -0.135010
C13   C     C_R   0.800994 0.459527 0.207803 -0.134759
C14   C     C_R   0.821095 0.104461 0.142567 -0.068238
C15   C     C_R   0.851938 0.981595 0.175017 0.211918
C16   C     C_R   0.890283 0.975450 0.257342 -0.109482
C17   C     C_R   0.885460 0.093464 0.306964 -0.146117
C18   C     C_R   0.821709 0.347720 0.323241 0.010164
H2    H     H_    0.785441 0.111356 0.079508 0.168268
H3    H     H_    0.791014 0.550868 0.184362 0.198747
H4    H     H_    0.909626 0.884497 0.284463 0.205247
H5    H     H_    0.912627 0.084302 0.370391 0.149948
C19   C     C_R   0.359874 0.811680 0.154673 -0.048231
C20   C     C_R   0.437731 0.853768 0.219223 -0.003264
C21   C     C_R   0.420338 0.844184 0.297130 -0.011308
C22   C     C_R   0.282900 0.714026 0.241360 0.152628
C23   C     C_R   0.296864 0.732221 0.165862 -0.124941
C24   C     C_R   0.526081 0.912160 0.209315 -0.068526
C25   C     C_R   0.585008 0.969174 0.274706 -0.105738
C26   C     C_R   0.560790 0.967196 0.350889 -0.105567
C27   C     C_R   0.468552 0.917883 0.361339 -0.083760
C28   C     C_R   0.353140 0.764435 0.308647 -0.016602
H6    H     H_    0.556536 0.910356 0.152366 0.200195
H7    H     H_    0.243338 0.697399 0.113889 0.192893
H8    H     H_    0.642613 0.022269 0.266010 0.135431
H9    H     H_    0.609398 0.008245 0.402234 0.154021
H10   H     H_    0.433952 0.941888 0.420156 0.159816
H11   H     H_    0.173333 0.544142 0.681520 0.143762
C29   C     C_R   0.297970 0.277621 0.799372 -0.006086
C30   C     C_R   0.423409 0.176930 0.762167 0.034846
C31   C     C_R   0.476618 0.224155 0.711611 0.036629
C32   C     C_R   0.247283 0.444651 0.706437 -0.148844
C33   C     C_R   0.209469 0.410285 0.769918 -0.142572
C34   C     C_R   0.501457 0.032098 0.776868 -0.073325
C35   C     C_R   0.640285 0.944681 0.754565 -0.096347
C36   C     C_R   0.703842 0.000433 0.717398 -0.112921
C37   C     C_R   0.623116 0.138902 0.696138 -0.088067
C38   C     C_R   0.379805 0.351853 0.676035 -0.006575
H12   H     H_    0.456380 0.986119 0.806247 0.151548
H13   H     H_    0.111552 0.487644 0.796120 0.150798
H14   H     H_    0.699782 0.835186 0.768247 0.130973
H15   H     H_    0.814180 0.935447 0.703072 0.121703
H16   H     H_    0.676224 0.177481 0.667030 0.153981
C39   C     C_1   0.818054 0.343097 0.709160 -0.059702
C40   C     C_1   0.845364 0.313712 0.776560 -0.050332
C41   C     C_1   0.358984 0.764913 0.713816 -0.055635
C42   C     C_1   0.325951 0.811578 0.780626 -0.058743
O14   O     O_R   0.171100 0.914680 0.053100 -0.490589
O15   O     O_R   0.941680 0.184840 0.050710 -0.508582
C43   C     C_R   0.889391 0.310575 0.086231 0.534447
O16   O     O_R   0.922080 0.403420 0.072610 -0.472286
O17   O     O_R   0.196880 0.369150 0.083850 -0.427238
C44   C     C_R   0.318564 0.296912 0.120887 0.570526
O18   O     O_R   0.411730 0.181020 0.091530 -0.534233
O19   O     O_R   0.365010 0.944360 0.063320 -0.513928
C45   C     C_R   0.299152 0.887642 0.083824 0.547377
O20   O     O_R   0.159380 0.906670 0.876210 -0.497100
O21   O     O_R   0.930820 0.177420 0.886730 -0.496206
C46   C     C_R   0.886773 0.296981 0.858931 0.535931
O22   O     O_R   0.910360 0.395420 0.895720 -0.511393
O23   O     O_R   0.186010 0.361730 0.919870 -0.491038
C47   C     C_R   0.278334 0.253648 0.877024 0.529069
O24   O     O_R   0.400000 0.173010 0.914630 -0.506856
O25   O     O_R   0.354140 0.936940 0.899340 -0.527863
C48   C     C_R   0.281139 0.880850 0.857690 0.536729
Cr4   Cr    Cr6+3 0.053960 0.052250 0.967380 1.057803
Cr5   Cr    Cr6+3 0.059890 0.373160 0.992710 1.119456
Cr6   Cr    Cr6+3 0.373370 0.061690 0.991710 1.046732
O26   O     O_3   0.162410 0.162370 0.983930 -0.290799
N1    N     N_R   0.840674 0.865531 0.124885 0.083593
O27   O     O_R   0.823466 0.863241 0.047532 -0.355196
O28   O     O_R   0.842544 0.763441 0.156094 -0.328815
N2    N     N_R   0.189236 0.653117 0.244594 0.052804
O29   O     O_R   0.125677 0.672806 0.306756 -0.323536
O30   O     O_R   0.137111 0.607841 0.178318 -0.307405

loop_
_geom_bond_atom_site_label_1
_geom_bond_atom_site_label_2
_geom_bond_distance
_ccdc_geom_bond_type
O11   Cr3   2.065242 S    
H11   C32   1.083233 S    
C41   C42   1.206738 T    
Cr6   O26   1.951978 S    
N1    O27   1.301582 A    
C1    C28   1.462589 S    
O24   Cr6   2.074775 S    
O4    Cr2   1.946884 S    
C43   O16   1.283002 A    
C15   N1    1.439629 S    
C27   H10   1.079443 S    
C4    O9    1.283369 A    
O8    Cr1   1.931720 S    
C9    C10   1.418621 A    
C12   C13   1.369644 A    
O7    C6    1.285271 A    
C36   H15   1.082642 S    
O4    C2    1.263322 A    
O18   Cr6   2.065278 S    
C5    O11   1.284328 A    
C5    C38   1.465158 S    
O22   Cr5   2.043963 S    
C25   H8    1.068641 S    
C29   C30   1.420702 A    
O12   C6    1.264715 A    
C20   C21   1.406942 A    
C42   C48   1.435906 S    
O21   Cr4   1.931177 S    
C34   H12   1.068783 S    
C8    C44   1.398851 S    
C14   C15   1.398128 A    
C11   C18   1.412091 A    
O6    C3    1.288145 A    
C7    C8    1.185223 T    
C37   H16   1.072787 S    
C26   H9    1.080790 S    
C11   C17   1.407467 A    
C32   C33   1.388464 A    
C4    C41   1.435202 S    
H1    C12   1.083607 S    
C19   C45   1.453504 S    
N1    O28   1.300935 A    
C16   C17   1.391492 A    
C31   C37   1.419040 A    
O23   Cr5   1.940051 S    
O1    Cr1   2.050216 S    
C9    C43   1.459421 S    
C10   C14   1.412576 A    
C17   H5    1.081577 S    
O10   Cr2   1.954276 S    
Cr1   O13   1.991969 S    
O1    C3    1.271963 A    
C22   N2    1.456004 S    
C33   H13   1.083187 S    
O17   Cr5   1.929043 S    
O25   C48   1.265735 A    
C46   O22   1.254575 A    
C22   C28   1.436431 A    
C24   C25   1.386103 A    
O12   Cr3   1.931862 S    
O17   C44   1.258054 A    
C13   H3    1.083276 S    
C22   C23   1.384872 A    
C35   C36   1.386101 A    
O15   Cr4   1.935227 S    
C31   C38   1.421663 A    
C26   C27   1.378578 A    
O7    Cr1   2.045330 S    
N2    O30   1.298996 A    
O6    Cr3   1.943493 S    
C21   C27   1.417349 A    
O15   C43   1.275674 A    
Cr5   O26   1.982888 S    
O21   C46   1.290655 A    
C23   H7    1.083696 S    
C19   C20   1.410517 A    
Cr2   O13   1.951837 S    
C9    C13   1.392956 A    
Cr4   O26   1.992454 S    
C1    O3    1.270572 A    
O14   Cr4   2.053881 S    
C6    C39   1.418852 S    
C25   C26   1.379716 A    
C29   C47   1.466870 S    
O19   Cr6   1.955365 S    
O9    Cr2   2.063611 S    
O2    Cr1   1.929718 S    
C14   H2    1.081330 S    
C44   O18   1.246432 A    
C40   C46   1.415796 S    
O8    C4    1.310204 A    
C30   C34   1.415485 A    
C2    O5    1.251780 A    
C12   C18   1.407371 A    
C16   H4    1.075494 S    
C35   H14   1.082667 S    
C15   C16   1.399345 A    
O2    C1    1.309574 A    
C39   C40   1.197692 T    
O5    Cr3   2.054170 S    
C32   C38   1.402839 A    
O14   C45   1.278388 A    
C30   C31   1.396085 A    
C24   H6    1.075509 S    
O16   Cr5   2.056756 S    
C2    C7    1.397123 S    
N2    O29   1.294089 A    
O20   Cr4   2.054747 S    
C34   C35   1.391932 A    
C21   C28   1.421448 A    
O25   Cr6   1.946084 S    
C36   C37   1.392411 A    
O3    Cr2   2.071985 S    
C29   C33   1.401934 A    
C19   C23   1.379982 A    
O23   C47   1.307178 A    
O19   C45   1.258379 A    
C10   C11   1.409665 A    
C3    C18   1.461309 S    
C20   C24   1.414217 A    
O10   C5    1.309957 A    
O20   C48   1.275454 A    
C47   O24   1.283871 A    
Cr3   O13   1.982617 S    
