data_mof_unit_57642.cif
_audit_creation_date              2012-12-10T17:40:58-0500
_audit_creation_method            fapswitch 2.2
_symmetry_space_group_name_H-M    P1
_symmetry_Int_Tables_number       1
_space_group_crystal_system       triclinic
_cell_length_a                    14.885124
_cell_length_b                    15.681198
_cell_length_c                    9.972496
_cell_angle_alpha                 90.465161
_cell_angle_beta                  94.614339
_cell_angle_gamma                 89.174583
_cell_volume                      2319.90380673

loop_
_atom_site_label
_atom_site_type_symbol
_atom_type_description
_atom_site_fract_x
_atom_site_fract_y
_atom_site_fract_z
_atom_type_partial_charge
C1    C     C_R   0.385997 0.874889 0.497104 0.999016
C2    C     C_R   0.386816 0.125831 0.496451 1.024352
C3    C     C_R   0.886376 0.374669 0.497332 0.997531
C4    C     C_R   0.888474 0.626667 0.496969 1.026148
C5    C     C_R   0.267597 0.213240 0.377030 0.442652
C6    C     C_R   0.275862 0.779638 0.376289 0.354307
C7    C     C_R   0.775649 0.718792 0.375136 0.435091
C8    C     C_R   0.779897 0.276129 0.376902 0.368866
C9    C     C_R   0.696838 0.763458 0.389324 0.018196
C10   C     C_R   0.703136 0.229080 0.388620 0.064150
C11   C     C_R   0.189705 0.258678 0.393807 0.027768
C12   C     C_R   0.199067 0.732505 0.389251 0.060375
C13   C     C_R   0.684449 0.806915 0.512095 -0.071544
C14   C     C_R   0.697576 0.177421 0.503475 -0.038690
C15   C     C_R   0.181760 0.305599 0.514101 -0.074507
C16   C     C_R   0.195508 0.679104 0.502161 -0.033981
C17   C     C_R   0.327947 0.969405 0.099840 0.442740
C18   C     C_R   0.831865 0.462431 0.103125 0.494274
C19   C     C_R   0.260072 0.939059 0.001595 0.000113
C20   C     C_R   0.766916 0.424729 0.009553 0.003320
C21   C     C_R   0.273681 0.944900 0.865980 0.298720
C22   C     C_R   0.776684 0.431769 0.872216 0.216901
C23   C     C_R   0.339851 0.999354 0.833887 0.386046
C24   C     C_R   0.839408 0.488835 0.835313 0.423571
C25   C     C_R   0.420154 0.995681 0.915721 -0.078891
C26   C     C_R   0.920435 0.491431 0.916155 -0.077753
C27   C     C_R   0.417736 0.989443 0.059049 0.009156
C28   C     C_R   0.918765 0.486550 0.059668 -0.026141
C29   C     C_R   0.576804 0.009168 0.082790 0.160022
C30   C     C_R   0.076507 0.511187 0.082180 0.188548
C31   C     C_R   0.622898 0.117674 0.502725 1.009255
C32   C     C_R   0.618677 0.877468 0.503934 0.975992
C33   C     C_R   0.121669 0.618751 0.502339 1.010925
C34   C     C_R   0.118100 0.377326 0.504281 0.974774
C35   C     C_R   0.576778 0.008909 0.939602 0.156218
C36   C     C_R   0.075785 0.513829 0.939514 0.149647
C37   C     C_R   0.409754 0.277351 0.678951 0.409664
C38   C     C_R   0.413078 0.730892 0.689173 0.356301
C39   C     C_R   0.908771 0.774224 0.689516 0.391449
C40   C     C_R   0.911326 0.235291 0.696925 0.337045
C41   C     C_R   0.403479 0.311530 0.807624 0.033824
C42   C     C_R   0.410523 0.679463 0.802862 0.064850
C43   C     C_R   0.899798 0.808627 0.817547 0.050602
C44   C     C_R   0.907558 0.187284 0.813462 0.075908
C45   C     C_R   0.813414 0.825370 0.858561 0.060417
C46   C     C_R   0.850127 0.118143 0.808598 0.115398
C47   C     C_R   0.318567 0.325785 0.853967 0.055563
C48   C     C_R   0.351234 0.611562 0.795763 0.113286
C49   C     C_R   0.737586 0.818485 0.764140 0.449948
C50   C     C_R   0.789145 0.106951 0.693582 0.283864
C51   C     C_R   0.240704 0.320186 0.764066 0.481287
C52   C     C_R   0.289608 0.603852 0.681751 0.264435
C53   C     C_R   0.748652 0.795080 0.626972 0.016367
C54   C     C_R   0.770124 0.176412 0.605163 -0.033237
C55   C     C_R   0.248416 0.295758 0.626117 0.000157
C56   C     C_R   0.269854 0.675612 0.599613 -0.048700
C57   C     C_R   0.330803 0.258343 0.597123 -0.095327
C58   C     C_R   0.335327 0.739651 0.599922 -0.073892
C59   C     C_R   0.831710 0.757514 0.601923 -0.092463
C60   C     C_R   0.835247 0.240853 0.604108 -0.060653
C61   C     C_R   0.332407 0.203865 0.485512 -0.182268
C62   C     C_R   0.332130 0.797251 0.491152 -0.115898
C63   C     C_R   0.836272 0.705884 0.487395 -0.178355
C64   C     C_R   0.833710 0.296259 0.492632 -0.125257
N1    N     N_R   0.498810 1.000000 0.142780 -0.097187
N2    N     N_R   0.998810 0.500000 0.142780 -0.102923
N3    N     N_R   0.498740 1.000000 0.857170 -0.109839
N4    N     N_R   0.998740 0.500000 0.857170 -0.108905
O1    O     O_R   0.408390 0.908380 0.614690 -0.625184
O2    O     O_R   0.408390 0.091620 0.614690 -0.580828
O3    O     O_R   0.908390 0.408380 0.614690 -0.619828
O4    O     O_R   0.908390 0.591620 0.614690 -0.578072
O5    O     O_R   0.408370 0.908380 0.385360 -0.548062
O6    O     O_R   0.408370 0.091620 0.385360 -0.539956
O7    O     O_R   0.908370 0.408380 0.385360 -0.560858
O8    O     O_R   0.908370 0.591620 0.385360 -0.539297
O9    O     O_R   0.591620 0.091610 0.614640 -0.617211
O10   O     O_R   0.591620 0.908390 0.614640 -0.571538
O11   O     O_R   0.091620 0.591610 0.614640 -0.627954
O12   O     O_R   0.091620 0.408390 0.614640 -0.565526
O13   O     O_R   0.591610 0.091610 0.385310 -0.594361
O14   O     O_R   0.591610 0.908390 0.385310 -0.647931
O15   O     O_R   0.091610 0.591610 0.385310 -0.593861
O16   O     O_R   0.091610 0.408390 0.385310 -0.643480
Zn1   Zn    Zn3+2 0.500010 1.000000 0.653130 1.035102
Zn2   Zn    Zn3+2 0.000010 0.500000 0.653130 1.031849
Zn3   Zn    Zn3+2 0.499980 1.000000 0.346870 1.058574
Zn4   Zn    Zn3+2 0.999980 0.500000 0.346870 1.060415
Cl1   Cl    Cl    0.288166 0.184058 0.211311 -0.536955
Cl2   Cl    Cl    0.319519 0.781860 0.217274 -0.676453
Cl3   Cl    Cl    0.802247 0.691400 0.210578 -0.554671
Cl4   Cl    Cl    0.825819 0.276932 0.219822 -0.663916
Cl5   Cl    Cl    0.187948 0.918559 0.741131 -0.494542
Cl6   Cl    Cl    0.692365 0.398103 0.750412 -0.544191
Cl7   Cl    Cl    0.293258 0.102890 0.814073 -0.531025
Cl8   Cl    Cl    0.786476 0.588739 0.803573 -0.515683
N5    N     N_3   0.659713 0.020871 0.881926 -0.462739
H1    H     H_    0.650155 0.003124 0.782383 0.295540
H2    H     H_    0.704239 0.974574 0.921892 0.193959
N6    N     N_3   0.156527 0.536058 0.883051 -0.494528
H3    H     H_    0.163973 0.495609 0.801674 0.277315
H4    H     H_    0.148489 0.598744 0.849359 0.215969
Cl9   Cl    Cl    0.515330 0.273383 0.612059 -0.595982
Cl10  Cl    Cl    0.513992 0.723537 0.611365 -0.575007
Cl11  Cl    Cl    0.016542 0.769898 0.629439 -0.614764
Cl12  Cl    Cl    0.014239 0.227340 0.625192 -0.583318
N7    N     N_3   0.482465 0.328189 0.895016 -0.452634
H5    H     H_    0.521625 0.272310 0.903914 0.227249
H6    H     H_    0.519062 0.374966 0.850311 0.277290
N8    N     N_3   0.479529 0.682915 0.911400 -0.372480
H7    H     H_    0.482466 0.745472 0.948316 0.239285
H8    H     H_    0.541295 0.665711 0.875479 0.305283
N9    N     N_3   0.977912 0.825574 0.907106 -0.439323
H9    H     H_    0.016184 0.769331 0.919677 0.229370
H10   H     H_    0.016368 0.871305 0.863153 0.283116
N10   N     N_3   0.974757 0.195119 0.923959 -0.357204
H11   H     H_    0.977502 0.259179 0.953710 0.232386
H12   H     H_    0.037236 0.176156 0.892307 0.301073
N11   N     N_3   0.801681 0.854165 0.993800 -0.471816
H13   H     H_    0.758578 0.812655 0.037036 0.280155
H14   H     H_    0.861873 0.852888 0.055111 0.246843
N12   N     N_3   0.867356 0.053774 0.908940 -0.397422
H15   H     H_    0.865795 0.993119 0.865692 0.245050
H16   H     H_    0.819444 0.059966 0.979180 0.203691
N13   N     N_3   0.310918 0.343213 0.994129 -0.379193
H17   H     H_    0.345357 0.294311 0.047232 0.277924
H18   H     H_    0.346021 0.398467 0.021984 0.190099
N14   N     N_3   0.365225 0.544897 0.892817 -0.397813
H19   H     H_    0.320992 0.495748 0.867712 0.216023
H20   H     H_    0.347449 0.569440 0.984982 0.210145
Cl13  Cl    Cl    0.633103 0.815355 0.834840 -0.638299
Cl14  Cl    Cl    0.780086 0.003731 0.623551 -0.708406
Cl15  Cl    Cl    0.138949 0.320648 0.842365 -0.589567
Cl16  Cl    Cl    0.277832 0.502274 0.606748 -0.686372
N15   N     N_3   0.628059 0.759205 0.279391 -0.356020
H21   H     H_    0.632588 0.811637 0.216372 0.224318
H22   H     H_    0.564145 0.756125 0.315496 0.250224
N16   N     N_3   0.631125 0.233711 0.283740 -0.393979
H23   H     H_    0.654736 0.212794 0.193150 0.213887
H24   H     H_    0.610743 0.297523 0.272654 0.239858
N17   N     N_3   0.117769 0.253124 0.288512 -0.349337
H25   H     H_    0.122318 0.303148 0.220835 0.243153
H26   H     H_    0.055079 0.254200 0.328961 0.244302
N18   N     N_3   0.125246 0.737975 0.287439 -0.401316
H27   H     H_    0.147400 0.720035 0.194428 0.212329
H28   H     H_    0.102785 0.801393 0.281814 0.222121
N19   N     N_3   0.659319 0.016029 0.166142 -0.380450
H29   H     H_    0.693554 0.069785 0.137516 0.190575
H30   H     H_    0.699228 0.962040 0.150819 0.184857
N20   N     N_3   0.159604 0.518440 0.163897 -0.372478
H31   H     H_    0.189801 0.575711 0.141110 0.191962
H32   H     H_    0.202349 0.468426 0.137979 0.203403
Cl17  Cl    Cl    0.281558 0.993980 0.251793 -0.521536
Cl18  Cl    Cl    0.781727 0.497282 0.247389 -0.466179
N21   N     N_3   0.171717 0.915451 0.035202 -0.382724
H33   H     H_    0.176912 0.868808 0.109038 0.237463
H34   H     H_    0.138731 0.969070 0.071715 0.262292
N22   N     N_3   0.685707 0.390316 0.054261 -0.362742
H35   H     H_    0.631465 0.428665 0.017153 0.244955
H36   H     H_    0.677215 0.328966 0.013847 0.222981

loop_
_geom_bond_atom_site_label_1
_geom_bond_atom_site_label_2
_ccdc_geom_bond_type
C58   C62   A    
C40   C60   A    
N21   H34   S    
N4    Zn2   S    
C13   C32   S    
C3    O3    A    
N19   H29   S    
C25   N3    A    
C14   C31   S    
C17   Cl17  S    
C1    C62   S    
N5    H1    S    
C53   C59   A    
N15   H21   S    
C54   C60   A    
C3    C64   S    
C49   Cl13  S    
C4    C63   S    
C50   C54   A    
N13   H17   S    
C22   C24   A    
N19   H30   S    
C24   C26   A    
C5    C11   A    
N17   H26   S    
C6    C12   A    
C30   N20   S    
O14   Zn3   S    
C52   Cl16  S    
N10   H11   S    
N15   H22   S    
C9    C13   A    
N8    H7    S    
O5    Zn3   S    
C38   Cl10  S    
C34   O12   A    
C38   C58   A    
C11   C15   A    
C12   C16   A    
C23   Cl7   S    
O12   Zn2   S    
N7    H5    S    
C47   N13   S    
C8    Cl4   S    
C35   N3    A    
O6    Zn3   S    
C3    O7    A    
O8    Zn4   S    
C15   C34   S    
C18   C20   A    
C2    O6    A    
C2    C61   S    
C39   Cl11  S    
C45   N11   S    
O15   Zn4   S    
C7    Cl3   S    
C20   N22   S    
N14   H19   S    
N22   H36   S    
C22   Cl6   S    
C34   O16   A    
N5    H2    S    
C44   C46   A    
N1    Zn3   S    
N21   H33   S    
C13   C53   A    
N11   H14   S    
C5    Cl1   S    
N3    Zn1   S    
C17   C27   A    
C18   C28   A    
N18   H28   S    
C10   C14   A    
C37   Cl9   S    
C33   O11   A    
C39   C43   A    
C6    Cl2   S    
C56   C58   A    
C1    O1    A    
C12   N18   S    
N14   H20   S    
C15   C55   A    
N22   H35   S    
C28   N2    A    
C16   C56   A    
C27   N1    A    
C16   C33   S    
C48   N14   S    
O3    Zn2   S    
C11   N17   S    
O4    Zn2   S    
C45   C49   A    
C39   C59   A    
C24   Cl8   S    
N6    H4    S    
C41   C47   A    
C5    C61   A    
C36   N6    S    
C42   C48   A    
C33   O15   A    
C7    C63   A    
O13   Zn3   S    
C50   Cl14  S    
C8    C64   A    
C29   N1    A    
C30   N2    A    
O10   Zn1   S    
C14   C54   A    
C20   C22   A    
C55   C57   A    
C19   N21   S    
N20   H32   S    
N12   H16   S    
C9    N15   S    
C4    O4    A    
O1    Zn1   S    
C40   Cl12  S    
N9    H9    S    
C7    C9    A    
C46   C50   A    
C31   O9    A    
C41   N7    S    
C19   C21   A    
C59   C63   A    
O16   Zn4   S    
N18   H27   S    
C18   Cl18  S    
C29   N19   S    
C47   C51   A    
N11   H13   S    
C36   N4    A    
C57   C61   A    
N16   H24   S    
C25   C27   A    
C32   O14   A    
C29   C35   A    
C26   C28   A    
C31   O13   A    
C30   C36   A    
C60   C64   A    
C26   N4    A    
C6    C62   A    
C21   C23   A    
C42   N8    S    
C1    O5    A    
C43   C45   A    
C2    O2    A    
N17   H25   S    
C43   N9    S    
N2    Zn4   S    
C51   Cl15  S    
N7    H6    S    
C21   Cl5   S    
O9    Zn1   S    
C49   C53   A    
N6    H3    S    
C17   C19   A    
N10   H12   S    
C51   C55   A    
C23   C25   A    
C37   C41   A    
N8    H8    S    
C4    O8    A    
N16   H23   S    
C32   O10   A    
C38   C42   A    
O7    Zn4   S    
C48   C52   A    
C44   N10   S    
C8    C10   A    
C40   C44   A    
N13   H18   S    
N20   H31   S    
C46   N12   S    
C10   N16   S    
N12   H15   S    
C35   N5    S    
O2    Zn1   S    
O11   Zn2   S    
C37   C57   A    
C52   C56   A    
N9    H10   S    
