data_mof_unit_56329.cif
_audit_creation_date              2013-03-05T16:04:41-0500
_audit_creation_method            fapswitch 2.2
_symmetry_space_group_name_H-M    P1
_symmetry_Int_Tables_number       1
_space_group_crystal_system       triclinic
_cell_length_a                    6.925397
_cell_length_b                    23.155852
_cell_length_c                    23.601154
_cell_angle_alpha                 112.722552
_cell_angle_beta                  89.438779
_cell_angle_gamma                 89.921045
_cell_volume                      3490.79064814

loop_
_atom_site_label
_atom_site_type_symbol
_atom_site_description
_atom_site_fract_x
_atom_site_fract_y
_atom_site_fract_z
_atom_type_partial_charge
O1    O     O_R   0.505740 0.453370 0.547760 -0.577118
O2    O     O_R   0.169520 0.427650 0.423350 -0.593051
O3    O     O_R   0.005620 0.546630 0.452240 -0.600845
C1    C     C_R   0.340748 0.409602 0.398858 0.909128
O4    O     O_R   0.175610 0.445960 0.545510 -0.602600
O5    O     O_R   0.011740 0.565080 0.575280 -0.574648
C2    C     C_R   0.344296 0.434012 0.562429 0.988668
O6    O     O_R   0.499610 0.434920 0.424720 -0.593036
O7    O     O_3   0.341310 0.539060 0.509620 -0.270319
V1    V     V_3+5 0.063960 0.492750 0.498220 1.173810
O8    O     O_R   0.682400 0.572350 0.576650 -0.576416
C3    C     C_R   0.848865 0.589884 0.601738 1.023732
O9    O     O_R   0.676320 0.554040 0.454490 -0.605567
C4    C     C_R   0.845400 0.566037 0.437517 0.906283
V2    V     V_3+5 0.564740 0.507250 0.501780 1.189011
O10   O     O_3   0.837250 0.460940 0.490380 -0.276931
C5    C     C_R   0.780754 0.891740 0.130692 -0.115147
H1    H     H_    0.652097 0.916251 0.126268 0.170481
C6    C     C_R   0.772122 0.856905 0.167604 -0.225198
H2    H     H_    0.636830 0.855270 0.190306 0.184415
C7    C     C_R   0.934111 0.823571 0.174426 -0.043572
C8    C     C_R   0.108127 0.825987 0.143513 0.576658
C9    C     C_R   0.117292 0.863612 0.108453 -0.298754
H3    H     H_    0.252912 0.868021 0.087382 0.142028
C10   C     C_R   0.953548 0.895797 0.100831 -0.158823
C11   C     C_R   0.989932 0.724068 0.191979 -0.096156
H4    H     H_    0.052410 0.702486 0.146400 0.126316
C12   C     C_R   0.977709 0.688980 0.228687 -0.193649
H5    H     H_    0.034565 0.641642 0.210999 0.117505
C13   C     C_R   0.889176 0.714135 0.287043 0.098926
C14   C     C_R   0.812394 0.775141 0.307721 -0.166579
H6    H     H_    0.743798 0.795806 0.352557 0.120142
C15   C     C_R   0.827759 0.810666 0.271396 -0.146187
H7    H     H_    0.770536 0.857950 0.289064 0.130866
C16   C     C_R   0.918597 0.785802 0.213285 0.145254
C17   C     C_R   0.703926 0.672860 0.355691 -0.156299
H8    H     H_    0.575525 0.696844 0.350153 0.111899
C18   C     C_R   0.692987 0.636855 0.391647 -0.162879
H9    H     H_    0.556390 0.634424 0.413331 0.129441
C19   C     C_R   0.856466 0.604660 0.399639 -0.124778
C20   C     C_R   0.030763 0.609247 0.370472 -0.157606
H10   H     H_    0.159519 0.585086 0.375430 0.127493
C21   C     C_R   0.040827 0.644515 0.333870 -0.156623
H11   H     H_    0.177099 0.647130 0.312081 0.111039
C22   C     C_R   0.877702 0.676796 0.326118 0.122121
C23   C     C_R   0.847420 0.643806 0.662539 -0.305572
C24   C     C_R   0.960468 0.853763 0.839659 -0.136249
C25   C     C_R   0.134591 0.787314 0.746562 -0.180396
C26   C     C_R   0.123403 0.841391 0.800436 -0.164403
C27   C     C_R   0.807865 0.810616 0.823602 -0.244700
C28   C     C_R   0.820564 0.755198 0.770120 0.152255
C29   C     C_R   0.984596 0.743543 0.731107 0.216021
C30   C     C_R   0.996025 0.688479 0.677389 -0.232780
C31   C     C_R   0.688167 0.654173 0.703993 0.376802
C32   C     C_R   0.674313 0.710380 0.756130 -0.337578
H12   H     H_    0.118789 0.681020 0.646458 0.158168
H13   H     H_    0.262138 0.779283 0.717500 0.124825
H14   H     H_    0.551388 0.718185 0.787043 0.175943
H15   H     H_    0.243495 0.873664 0.811613 0.133571
H16   H     H_    0.682918 0.818970 0.853814 0.135619
C33   C     C_R   0.365291 0.356629 0.338109 -0.145948
C34   C     C_R   0.444321 0.141020 0.163620 -0.308182
C35   C     C_R   0.260837 0.185051 0.261028 0.381774
C36   C     C_R   0.312270 0.133354 0.206672 0.214605
C37   C     C_R   0.525715 0.200266 0.176601 -0.316342
C38   C     C_R   0.471592 0.252128 0.230138 0.170458
C39   C     C_R   0.335561 0.245059 0.272173 -0.007334
C40   C     C_R   0.280864 0.297831 0.325482 -0.195486
C41   C     C_R   0.499970 0.362592 0.295691 -0.145045
C42   C     C_R   0.550692 0.311357 0.242149 -0.142100
H17   H     H_    0.180245 0.292811 0.358698 0.156147
H18   H     H_    0.569119 0.407166 0.304651 0.115897
H19   H     H_    0.655168 0.317868 0.210678 0.110319
H20   H     H_    0.624499 0.206613 0.143561 0.145071
C43   C     C_R   0.281759 0.108072 0.870641 -0.187111
H21   H     H_    0.156782 0.081695 0.874460 0.192561
C44   C     C_R   0.267323 0.143616 0.834570 -0.141922
H22   H     H_    0.132448 0.143421 0.811658 0.126620
C45   C     C_R   0.426193 0.177484 0.826702 0.056530
C46   C     C_R   0.599110 0.175787 0.856735 -0.320738
H23   H     H_    0.723150 0.202118 0.852044 0.131332
C47   C     C_R   0.613565 0.141600 0.894523 0.557283
C48   C     C_R   0.454687 0.105857 0.900699 -0.313194
C49   C     C_R   0.565996 0.214872 0.748072 -0.165169
H24   H     H_    0.695713 0.187750 0.745471 0.116658
C50   C     C_R   0.553196 0.249431 0.710945 -0.174523
H25   H     H_    0.673503 0.247687 0.680686 0.109957
C51   C     C_R   0.386496 0.284801 0.712107 0.111241
C52   C     C_R   0.232199 0.284026 0.751119 -0.162188
H26   H     H_    0.102811 0.311399 0.754175 0.116676
C53   C     C_R   0.244607 0.249103 0.787972 -0.179364
H27   H     H_    0.124286 0.250346 0.818088 0.113634
C54   C     C_R   0.412019 0.214288 0.787118 0.145953
C55   C     C_R   0.198952 0.330004 0.647249 -0.142975
H28   H     H_    0.069249 0.307217 0.653869 0.097796
C56   C     C_R   0.188584 0.366025 0.611367 -0.149862
H29   H     H_    0.050848 0.370521 0.592076 0.126863
C57   C     C_R   0.354115 0.395356 0.600189 -0.140235
C58   C     C_R   0.529973 0.387824 0.625976 -0.081048
H30   H     H_    0.660345 0.409980 0.618775 0.146471
C59   C     C_R   0.539986 0.352316 0.662215 -0.159745
H31   H     H_    0.677212 0.348952 0.682334 0.107451
C60   C     C_R   0.374830 0.322730 0.673329 0.115932
O11   O     O_R   0.309730 0.065160 0.075230 -0.580900
O12   O     O_R   0.633800 0.053970 0.954410 -0.558376
O13   O     O_R   0.797580 0.934860 0.924760 -0.595881
C61   C     C_R   0.465121 0.066481 0.937950 0.944473
O14   O     O_R   0.639820 0.072410 0.076610 -0.583771
O15   O     O_R   0.803650 0.953440 0.047830 -0.604068
C62   C     C_R   0.468681 0.089933 0.101440 1.054715
O16   O     O_R   0.303670 0.046590 0.952160 -0.603931
O17   O     O_3   0.468000 0.960960 0.990410 -0.284936
V3    V     V_3+5 0.745380 0.007240 0.001780 1.194487
O18   O     O_R   0.132940 0.946010 0.045600 -0.576019
C63   C     C_R   0.963947 0.934277 0.062805 1.020281
O19   O     O_R   0.126920 0.927560 0.923400 -0.606024
C64   C     C_R   0.960052 0.909095 0.899042 0.924580
V4    V     V_3+5 0.244590 0.992720 0.998240 1.185046
O20   O     O_3   0.972110 0.039040 0.009600 -0.269168
N1    N     N_R   0.543799 0.607039 0.695418 0.238996
O21   O     O_R   0.595110 0.548831 0.680074 -0.420270
O22   O     O_R   0.366064 0.623209 0.712735 -0.414287
O23   O     O_3   0.131242 0.177150 0.302412 -0.595013
C65   C     C_3   0.234928 0.159427 0.344423 0.305805
H32   H     H_    0.349950 0.193980 0.367483 0.066077
H33   H     H_    0.301861 0.112280 0.320771 0.130482
C66   C     C_3   0.096531 0.156623 0.393730 -0.869184
H34   H     H_    0.980734 0.122066 0.372420 0.272411
H35   H     H_    0.176077 0.142283 0.426851 0.205655
H36   H     H_    0.030082 0.203437 0.418875 0.242916
N2    N     N_R   0.230391 0.072908 0.195700 0.240387
O24   O     O_R   0.048397 0.067713 0.207055 -0.364846
O25   O     O_R   0.339462 0.023086 0.176864 -0.433160
O26   O     O_3   0.786489 0.141887 0.923393 -0.631088
C67   C     C_3   0.789111 0.194927 0.979218 0.285226
H37   H     H_    0.675534 0.191126 0.011360 0.065783
H38   H     H_    0.766463 0.239005 0.971502 0.076426
C68   C     C_3   0.984709 0.199036 0.009291 -0.881911
H39   H     H_    0.100388 0.205156 0.979206 0.246796
H40   H     H_    0.986158 0.239704 0.054006 0.197037
H41   H     H_    0.013723 0.155787 0.017473 0.275896
O27   O     O_3   0.271525 0.796221 0.153131 -0.641538
C69   C     C_3   0.360961 0.758707 0.096657 0.210195
H42   H     H_    0.457169 0.787844 0.080661 0.112374
H43   H     H_    0.253540 0.734457 0.060319 0.083307
C70   C     C_3   0.484363 0.708736 0.105989 -0.877480
H44   H     H_    0.391875 0.676288 0.118529 0.244731
H45   H     H_    0.564865 0.681510 0.062960 0.211691
H46   H     H_    0.589117 0.730809 0.143274 0.263405

loop_
_geom_bond_atom_site_label_1
_geom_bond_atom_site_label_2
_geom_bond_distance
_ccdc_geom_bond_type
C67   C68   1.521432 S    
O17   V4    1.689709 S    
C43   H21   1.082954 S    
C59   H31   1.082538 S    
C2    C57   1.489047 S    
C31   N1    1.438102 S    
C69   C70   1.521728 S    
C20   H10   1.083075 S    
C13   C22   1.489665 S    
C6    H2    1.082740 S    
C1    O6    1.290405 A    
O18   C63   1.298149 A    
O23   C65   1.412318 S    
C24   C26   1.409272 A    
C38   C42   1.402216 A    
C44   H22   1.083012 S    
C29   C30   1.410062 A    
O12   C61   1.301672 A    
C11   H4    1.081258 S    
O16   V4    1.986680 S    
O12   V3    1.991755 S    
C17   H8    1.083169 S    
C6    C7    1.406201 A    
C49   C50   1.399658 A    
C45   C54   1.491746 S    
C10   C63   1.490378 S    
O5    C3    1.303638 A    
C18   H9    1.083004 S    
C50   C51   1.408465 A    
C69   H42   1.111198 S    
O19   C64   1.293548 A    
C69   H43   1.116189 S    
V4    O20   2.132029 S    
C34   C36   1.421918 A    
C5    C6    1.398268 A    
V3    O20   1.716296 S    
O8    V2    2.008111 S    
C14   H6    1.082932 S    
C48   C61   1.493268 S    
C56   C57   1.407027 A    
C9    H3    1.081765 S    
C14   C15   1.402242 A    
O1    V2    1.984899 S    
C52   C53   1.400894 A    
O7    V1    2.168996 S    
C70   H45   1.110367 S    
O15   V3    1.987268 S    
C67   H37   1.114439 S    
C38   C39   1.416349 A    
C59   C60   1.407641 A    
C7    C8    1.415003 A    
C20   C21   1.400704 A    
C8    O27   1.389545 S    
C55   H28   1.082557 S    
O17   V3    2.168910 S    
N1    O22   1.301137 A    
C27   C28   1.412055 A    
C24   C27   1.406040 A    
O11   V4    1.995591 S    
C44   C45   1.403901 A    
C35   C39   1.410689 A    
V2    O10   2.132035 S    
O13   V3    1.968711 S    
C39   C40   1.421752 A    
C25   H13   1.083712 S    
C15   H7    1.082863 S    
C49   H24   1.082962 S    
C3    C23   1.494591 S    
C53   H27   1.083001 S    
O4    C2    1.301664 A    
C50   H25   1.082499 S    
C35   C36   1.417430 A    
C1    C33   1.491697 S    
C47   C48   1.417567 A    
C37   H20   1.084469 S    
C28   C29   1.413431 A    
O14   V3    1.960483 S    
C47   O26   1.382384 S    
C41   H18   1.083558 S    
O2    C1    1.309022 A    
C21   H11   1.083267 S    
C66   H35   1.110500 S    
C53   C54   1.406748 A    
C70   H46   1.108130 S    
C21   C22   1.405652 A    
C58   H30   1.083014 S    
C34   C62   1.494975 S    
C36   N2    1.439726 S    
C24   C64   1.489467 S    
C56   H29   1.082993 S    
C23   C31   1.424039 A    
C42   H19   1.083612 S    
C5    H1    1.083107 S    
C17   C22   1.405987 A    
C55   C56   1.401695 A    
C43   C44   1.398163 A    
O18   V4    1.984053 S    
O3    C4    1.296410 A    
C68   H40   1.110453 S    
O19   V4    2.008291 S    
C65   C66   1.521103 S    
C46   C47   1.406777 A    
C19   C20   1.408094 A    
C58   C59   1.398813 A    
C55   C60   1.408907 A    
C37   C38   1.412951 A    
O6    V2    1.995304 S    
O9    V2    1.984013 S    
O13   C64   1.302080 A    
C66   H34   1.111363 S    
O2    V1    1.960363 S    
C51   C60   1.495901 S    
N1    O21   1.301224 A    
O11   C62   1.290121 A    
C65   H33   1.114048 S    
C70   H44   1.109864 S    
C30   H12   1.084247 S    
C33   C41   1.407145 A    
C67   H38   1.114991 S    
C31   C32   1.406190 A    
C12   H5    1.083015 S    
C34   C37   1.405154 A    
O1    C2    1.297905 A    
C61   O16   1.299307 A    
C8    C9    1.415577 A    
C46   H23   1.083360 S    
N2    O25   1.301515 A    
C68   H41   1.109145 S    
O5    V1    1.968726 S    
C35   O23   1.383569 S    
O8    C3    1.293606 A    
O26   C67   1.412482 S    
C7    C16   1.495160 S    
C11   C12   1.400158 A    
C26   H15   1.083274 S    
C27   H16   1.084198 S    
C12   C13   1.405279 A    
O7    V2    1.690273 S    
C66   H36   1.111472 S    
C5    C10   1.404445 A    
O4    V1    1.991539 S    
O3    V1    1.987613 S    
V1    O10   1.716235 S    
C18   C19   1.408403 A    
C33   C40   1.405893 A    
C43   C48   1.408806 A    
C13   C14   1.405966 A    
C40   H17   1.083317 S    
C25   C26   1.399458 A    
C23   C30   1.407824 A    
C17   C18   1.402290 A    
C15   C16   1.407226 A    
O14   C62   1.309246 A    
C28   C32   1.398808 A    
C49   C54   1.406038 A    
C9    C10   1.406762 A    
C41   C42   1.399902 A    
C68   H39   1.110382 S    
O15   C63   1.296792 A    
C4    C19   1.490454 S    
C45   C46   1.405715 A    
C11   C16   1.406499 A    
C25   C29   1.401472 A    
C51   C52   1.408341 A    
C57   C58   1.407126 A    
C32   H14   1.084074 S    
O27   C69   1.415132 S    
C52   H26   1.082478 S    
O9    C4    1.298629 A    
N2    O24   1.301365 A    
C65   H32   1.115685 S    
