data_mof_unit_57165.cif
_audit_creation_date              2012-12-10T17:09:52-0500
_audit_creation_method            fapswitch 2.2
_symmetry_space_group_name_H-M    P1
_symmetry_Int_Tables_number       1
_space_group_crystal_system       triclinic
_cell_length_a                    10.77658
_cell_length_b                    13.145195
_cell_length_c                    11.753659
_cell_angle_alpha                 100.506135
_cell_angle_beta                  91.320093
_cell_angle_gamma                 92.23559
_cell_volume                      1635.09617749

loop_
_atom_site_label
_atom_site_type_symbol
_atom_type_description
_atom_site_fract_x
_atom_site_fract_y
_atom_site_fract_z
_atom_type_partial_charge
C1    C     C_R   0.497561 0.299212 0.477994 0.807327
C2    C     C_R   0.068002 0.599981 0.543060 -0.105182
C3    C     C_R   0.128754 0.505026 0.513711 -0.237452
C4    C     C_R   0.059982 0.410084 0.482143 0.427596
C5    C     C_R   0.931462 0.409674 0.472543 0.368860
C6    C     C_R   0.871217 0.504685 0.490411 -0.248359
C7    C     C_R   0.490659 0.815654 0.535994 -0.217921
C8    C     C_R   0.493911 0.185371 0.464927 -0.157697
C9    C     C_R   0.490105 0.013700 0.346766 -0.183292
C10   C     C_R   0.505057 0.120309 0.355877 -0.086293
C11   C     C_R   0.477304 0.140236 0.564045 0.414600
C12   C     C_R   0.262938 0.504867 0.503891 0.791102
C13   C     C_R   0.488995 0.032891 0.556111 0.001874
C14   C     C_R   0.481281 0.968797 0.446163 -0.009730
C15   C     C_R   0.468377 0.861202 0.437091 -0.080324
C16   C     C_R   0.512319 0.881591 0.645799 -0.173175
C17   C     C_R   0.512537 0.990075 0.655343 0.367184
C18   C     C_R   0.391535 0.392348 0.022358 0.334618
C19   C     C_R   0.400179 0.404846 0.145277 -0.009161
C20   C     C_R   0.544294 0.548010 0.154731 0.613142
C21   C     C_R   0.537777 0.539338 0.032201 -0.152999
C22   C     C_R   0.455990 0.463846 0.965924 -0.230247
C23   C     C_R   0.496032 0.700974 0.522319 0.857372
C24   C     C_R   0.443989 0.460953 0.843760 0.590815
C25   C     C_R   0.609947 0.586686 0.851499 0.437931
C26   C     C_R   0.613313 0.603645 0.974309 0.281670
C27   C     C_R   0.737245 0.501747 0.497442 0.911099
C28   C     C_R   0.129638 0.693466 0.600399 -0.157288
C29   C     C_R   0.076504 0.789505 0.598676 0.353624
C30   C     C_R   0.955460 0.791552 0.554077 -0.117063
C31   C     C_R   0.884989 0.697911 0.514953 0.335728
C32   C     C_R   0.940002 0.601072 0.515734 0.017045
Cu1   Cu    Cu3+1 0.509250 0.507730 0.615930 1.083957
Cu2   Cu    Cu3+1 0.490750 0.492270 0.384070 0.993718
H1    H     H_    0.493618 0.965550 0.261613 0.168882
N1    N     N_R   0.523180 0.519350 0.790130 -0.232824
N2    N     N_R   0.476820 0.480650 0.209890 -0.283304
O1    O     O_R   0.506570 0.354460 0.582000 -0.484044
O2    O     O_R   0.490940 0.341410 0.386200 -0.610837
O3    O     O_R   0.327470 0.506530 0.597920 -0.552686
O4    O     O_R   0.311840 0.493480 0.402120 -0.578347
O5    O     O_R   0.509060 0.658590 0.613800 -0.531353
O6    O     O_R   0.493430 0.645540 0.418000 -0.568462
O7    O     O_R   0.688160 0.506520 0.597880 -0.524003
O8    O     O_R   0.672530 0.493470 0.402080 -0.606898
O9    O     O_3   0.114368 0.314990 0.462330 -0.639357
H2    H     H_    0.201239 0.322202 0.492732 0.322445
O10   O     O_3   0.543008 0.056778 0.758850 -0.684480
H3    H     H_    0.590901 0.021373 0.811652 0.341233
C33   C     C_1   0.534087 0.158668 0.251429 0.326630
N3    N     N_1   0.558004 0.188652 0.167527 -0.255492
O11   O     O_3   0.444568 0.201370 0.666450 -0.608471
H4    H     H_    0.382801 0.161181 0.703705 0.376678
O12   O     O_3   0.352087 0.401784 0.776573 -0.611996
H5    H     H_    0.273528 0.413096 0.818369 0.343041
O13   O     O_3   0.692039 0.638192 0.791241 -0.679291
H6    H     H_    0.771356 0.652845 0.836640 0.316951
O14   O     O_3   0.325482 0.309180 0.955412 -0.685830
H7    H     H_    0.306497 0.254677 0.001080 0.338997
O15   O     O_3   0.690655 0.680824 0.037799 -0.653551
H8    H     H_    0.701116 0.738191 0.994210 0.341726
C34   C     C_1   0.322451 0.339390 0.202647 0.347979
N4    N     N_1   0.259281 0.286017 0.246966 -0.233051
O16   O     O_3   0.615483 0.628938 0.217172 -0.646317
H9    H     H_    0.654893 0.604852 0.282297 0.385178
C35   C     C_1   0.223503 0.690605 0.689374 0.272761
N5    N     N_1   0.295887 0.688844 0.763142 -0.243543
O17   O     O_3   0.138432 0.882855 0.644442 -0.699807
H10   H     H_    0.228290 0.871845 0.653219 0.324341
C36   C     C_1   0.901941 0.891290 0.556461 0.349878
N6    N     N_1   0.858997 0.970918 0.558421 -0.218457
O18   O     O_3   0.765388 0.698323 0.470143 -0.743831
H11   H     H_    0.745294 0.767980 0.456777 0.327206
O19   O     O_3   0.868735 0.313837 0.446405 -0.651641
H12   H     H_    0.780192 0.321407 0.427389 0.304398
C37   C     C_1   0.420138 0.800611 0.327904 0.353666
N7    N     N_1   0.380664 0.753275 0.240944 -0.238835
C38   C     C_1   0.526026 0.841519 0.751942 0.349736
N8    N     N_1   0.536341 0.812161 0.838506 -0.248100

loop_
_geom_bond_atom_site_label_1
_geom_bond_atom_site_label_2
_ccdc_geom_bond_type
C6    C32   A    
C21   C26   A    
C12   O3    A    
Cu2   N2    S    
C17   O10   S    
C4    O9    S    
C24   N1    A    
C23   O5    A    
Cu1   O5    S    
C28   C29   A    
C30   C31   A    
C19   C34   S    
C24   O12   S    
C1    C8    S    
Cu1   N1    S    
C23   O6    A    
O13   H6    S    
C2    C32   A    
C18   C19   A    
C5    O19   S    
C11   O11   S    
C19   N2    A    
O12   H5    S    
C27   O7    A    
C18   O14   S    
C6    C27   S    
C16   C17   A    
C25   O13   S    
C36   N6    T    
C3    C12   S    
C29   C30   A    
C9    C10   A    
C27   O8    A    
C7    C15   A    
C15   C37   S    
C13   C14   A    
Cu2   O4    S    
C30   C36   S    
C33   N3    T    
Cu1   O3    S    
O19   H12   S    
Cu2   O2    S    
C37   N7    T    
C38   N8    T    
C4    C5    A    
C25   C26   A    
O15   H8    S    
C20   O16   S    
C28   C35   S    
C9    C14   A    
C34   N4    T    
C29   O17   S    
C31   C32   A    
Cu1   Cu2   S    
Cu2   O8    S    
C1    O1    A    
O10   H3    S    
C22   C24   A    
C3    C4    A    
C10   C33   S    
O11   H4    S    
C12   O4    A    
O9    H2    S    
C31   O18   S    
C18   C22   A    
Cu1   O7    S    
O17   H10   S    
C7    C16   A    
Cu2   O6    S    
O18   H11   S    
Cu1   O1    S    
C13   C17   A    
O16   H9    S    
C2    C3    A    
O14   H7    S    
C20   N2    A    
C11   C13   A    
C5    C6    A    
C8    C11   A    
C7    C23   S    
C35   N5    T    
C16   C38   S    
C1    O2    A    
C25   N1    A    
C20   C21   A    
C8    C10   A    
C9    H1    S    
C14   C15   A    
C2    C28   A    
C21   C22   A    
C26   O15   S    
