data_mof_unit_60977.cif
_audit_creation_date              2012-12-10T19:13:18-0500
_audit_creation_method            fapswitch 2.2
_symmetry_space_group_name_H-M    P1
_symmetry_Int_Tables_number       1
_space_group_crystal_system       triclinic
_cell_length_a                    16.002556
_cell_length_b                    14.766509
_cell_length_c                    10.944601
_cell_angle_alpha                 90.002607
_cell_angle_beta                  90.038615
_cell_angle_gamma                 90.000802
_cell_volume                      2586.22928063

loop_
_atom_site_label
_atom_site_type_symbol
_atom_type_description
_atom_site_fract_x
_atom_site_fract_y
_atom_site_fract_z
_atom_type_partial_charge
C1    C     C_R   0.340866 0.499997 0.500030 0.829094
C2    C     C_R   0.659133 0.499998 0.499970 0.829074
C3    C     C_R   0.559461 0.952104 0.567816 -0.132805
C4    C     C_R   0.440538 0.952098 0.432184 -0.132796
C5    C     C_R   0.500000 0.902862 0.500000 0.038190
C6    C     C_R   0.440541 0.047889 0.432179 -0.144357
C7    C     C_R   0.559459 0.047895 0.567821 -0.144361
C8    C     C_R   0.500000 0.097133 0.500000 0.042359
C9    C     C_1   0.500000 0.802718 0.500000 0.160852
C10   C     C_1   0.500000 0.197280 0.500000 0.126202
C11   C     C_R   0.494981 0.500037 0.264895 0.707791
C12   C     C_R   0.505026 0.500042 0.735105 0.707848
C13   C     C_2   0.495984 0.428989 0.933489 -0.148119
C14   C     C_2   0.504128 0.429000 0.066508 -0.148088
C15   C     C_2   0.519951 0.500551 0.866530 0.339939
C16   C     C_2   0.480065 0.500526 0.133470 0.339978
C17   C     C_R   0.956023 0.586704 0.500135 0.247568
C18   C     C_R   0.043981 0.586703 0.500086 0.247566
C19   C     C_R   0.912735 0.503719 0.500047 0.025827
C20   C     C_R   0.087265 0.503717 0.499969 0.025826
C21   C     C_R   0.956527 0.421831 0.499924 -0.210203
C22   C     C_R   0.043470 0.421830 0.499890 -0.210199
C23   C     C_1   0.823199 0.501452 0.500045 0.037771
C24   C     C_1   0.176801 0.501449 0.499964 0.037774
C25   C     C_1   0.251807 0.500268 0.499984 -0.135991
C26   C     C_1   0.748193 0.500271 0.500019 -0.135992
Cu1   Cu    Cu3+1 0.500000 0.589220 0.500000 1.026277
Cu2   Cu    Cu3+1 0.500000 0.410780 0.500000 0.983807
H1    H     H_    0.470329 0.368719 0.890608 0.118920
H2    H     H_    0.529863 0.368773 0.109389 0.118888
H3    H     H_    0.923342 0.357849 0.499853 0.168142
H4    H     H_    0.076652 0.357848 0.499803 0.168143
H5    H     H_    0.606098 0.083574 0.621022 0.139454
H6    H     H_    0.393901 0.083563 0.378978 0.139455
H7    H     H_    0.606105 0.916428 0.621010 0.148588
H8    H     H_    0.393895 0.916417 0.378991 0.148582
N1    N     N_1   0.500000 0.276710 0.500000 -0.149997
N2    N     N_1   0.500000 0.723290 0.500000 -0.143460
O1    O     O_R   0.380310 0.575320 0.500020 -0.552474
O2    O     O_R   0.619690 0.575320 0.499980 -0.552473
O3    O     O_R   0.380310 0.424640 0.499970 -0.573090
O4    O     O_R   0.619690 0.424640 0.500030 -0.573105
O5    O     O_R   0.500000 0.575320 0.321940 -0.568028
O6    O     O_R   0.500000 0.575320 0.678060 -0.568064
O7    O     O_R   0.500000 0.424640 0.321880 -0.592239
O8    O     O_R   0.500000 0.424640 0.678120 -0.592234
O9    O     O_3   0.562226 0.571811 0.921236 -0.671567
H9    H     H_    0.580212 0.615268 0.857492 0.333549
O10   O     O_3   0.437703 0.571723 0.078773 -0.671577
H10   H     H_    0.419647 0.615138 0.142529 0.333501
Br1   Br    Br    0.105032 0.699259 0.500166 -0.409866
Br2   Br    Br    0.894976 0.699261 0.500332 -0.409882

loop_
_geom_bond_atom_site_label_1
_geom_bond_atom_site_label_2
_ccdc_geom_bond_type
C19   C23   S    
C4    H8    S    
C5    C9    S    
C15   O9    S    
C21   H3    S    
C11   C16   S    
C18   C20   A    
O9    H9    S    
C12   C15   S    
C3    H7    S    
Cu1   O2    S    
C17   C18   A    
C7    C8    A    
C2    C26   S    
C21   C22   A    
C24   C25   T    
C1    C25   S    
C7    H5    S    
Cu2   O8    S    
C22   H4    S    
Cu2   N1    S    
C2    O4    A    
C10   N1    T    
C17   Br2   S    
C13   H1    S    
C9    N2    T    
C17   C19   A    
C14   H2    S    
C18   Br1   S    
C3    C7    A    
C13   C15   D    
C14   C16   D    
Cu2   O7    S    
C11   O7    A    
C4    C6    A    
C1    O1    A    
Cu1   N2    S    
Cu1   O1    S    
C2    O2    A    
Cu2   O3    S    
C16   O10   S    
C12   O8    A    
O10   H10   S    
C23   C26   T    
C1    O3    A    
Cu1   Cu2   S    
Cu1   O5    S    
C20   C24   S    
C12   O6    A    
C6    C8    A    
C11   O5    A    
Cu2   O4    S    
C19   C21   A    
C13   C14   S    
Cu1   O6    S    
C8    C10   S    
C6    H6    S    
C20   C22   A    
C4    C5    A    
C3    C5    A    
