data_mof_unit_15836.cif
_audit_creation_date              2012-12-11T15:18:39-0500
_audit_creation_method            fapswitch 2.2
_symmetry_space_group_name_H-M    P1
_symmetry_Int_Tables_number       1
_space_group_crystal_system       triclinic
_cell_length_a                    6.930137
_cell_length_b                    20.062583
_cell_length_c                    23.606198
_cell_angle_alpha                 92.941839
_cell_angle_beta                  91.06406
_cell_angle_gamma                 88.884921
_cell_volume                      3276.66835524

loop_
_atom_site_label
_atom_site_type_symbol
_atom_type_description
_atom_site_fract_x
_atom_site_fract_y
_atom_site_fract_z
_atom_type_partial_charge
O1    O     O_R   0.620100 0.812200 0.810870 -0.539274
O2    O     O_R   0.379900 0.187800 0.189130 -0.532747
O3    O     O_R   0.296960 0.671650 0.794750 -0.505169
O4    O     O_R   0.703040 0.328350 0.205250 -0.519615
O5    O     O_R   0.120160 0.687800 0.689130 -0.533446
O6    O     O_R   0.879840 0.312200 0.310870 -0.530889
C1    C     C_R   0.469421 0.646295 0.804328 0.751893
C2    C     C_R   0.530988 0.353599 0.195725 0.776164
O7    O     O_R   0.290810 0.810670 0.817290 -0.519913
O8    O     O_R   0.709190 0.189330 0.182710 -0.525894
O9    O     O_R   0.113980 0.827820 0.711840 -0.540791
O10   O     O_R   0.886020 0.172180 0.288160 -0.534225
C3    C     C_R   0.459184 0.831191 0.834580 0.728389
C4    C     C_R   0.541348 0.169379 0.164957 0.742976
O11   O     O_R   0.626290 0.672180 0.788160 -0.550029
O12   O     O_R   0.373710 0.327820 0.211840 -0.548905
O13   O     O_3   0.451520 0.755460 0.715370 -0.364324
O14   O     O_3   0.548480 0.244540 0.284630 -0.367705
V1    V     V_3+5 0.179200 0.748980 0.756420 1.600032
V2    V     V_3+5 0.820800 0.251020 0.243580 1.593466
O15   O     O_R   0.783880 0.828350 0.705250 -0.527060
O16   O     O_R   0.216120 0.171650 0.294750 -0.537400
C5    C     C_R   0.951360 0.853696 0.695550 0.762650
C6    C     C_R   0.048444 0.147471 0.305571 0.777281
O17   O     O_R   0.790030 0.689320 0.682700 -0.529130
O18   O     O_R   0.209970 0.310680 0.317300 -0.535546
C7    C     C_R   0.957480 0.667923 0.665702 0.783770
C8    C     C_R   0.042519 0.331145 0.334740 0.783614
V3    V     V_3+5 0.678400 0.751010 0.743570 1.564088
V4    V     V_3+5 0.321600 0.248990 0.256430 1.559459
O19   O     O_3   0.955950 0.744540 0.784620 -0.359800
O20   O     O_3   0.044050 0.255460 0.215380 -0.361502
C9    C     C_R   0.903191 0.434373 0.382698 0.156807
C10   C     C_R   0.101468 0.564479 0.617865 0.161304
C11   C     C_R   0.038095 0.381077 0.383694 -0.189845
C12   C     C_R   0.962103 0.616736 0.617268 -0.195532
C13   C     C_R   0.172462 0.378503 0.429854 0.146998
C14   C     C_R   0.823460 0.617059 0.572002 0.144455
C15   C     C_R   0.163909 0.428256 0.474778 0.042321
C16   C     C_R   0.834728 0.567829 0.526776 0.045555
C17   C     C_R   0.008682 0.475057 0.477082 -0.058896
C18   C     C_R   0.992147 0.521918 0.524168 -0.059280
C19   C     C_R   0.871459 0.475699 0.431973 0.035726
C20   C     C_R   0.131123 0.522006 0.568893 0.033552
C21   C     C_R   0.308173 0.432733 0.517327 -0.217464
C22   C     C_R   0.690805 0.563147 0.483996 -0.219819
C23   C     C_R   0.296046 0.479755 0.563340 0.385119
C24   C     C_R   0.706047 0.517398 0.437316 0.384514
H1    H     H_    0.435803 0.401185 0.514687 0.160537
H2    H     H_    0.561799 0.593924 0.486424 0.159752
C25   C     C_R   0.967078 0.917641 0.666667 -0.146302
C26   C     C_R   0.040425 0.085638 0.337184 -0.163542
C27   C     C_R   0.134289 0.022928 0.665766 -0.123778
C28   C     C_R   0.998575 0.965867 0.335962 -0.123316
C29   C     C_R   0.065258 0.970379 0.695454 0.146919
C30   C     C_R   0.010034 0.024407 0.307050 0.141473
C31   C     C_R   0.929296 0.921462 0.607746 0.093438
C32   C     C_R   0.043208 0.087741 0.397359 0.090004
C33   C     C_R   0.028550 0.968593 0.575891 0.034417
C34   C     C_R   0.055296 0.027089 0.426826 0.027265
C35   C     C_R   0.121418 0.021706 0.606478 -0.009659
C36   C     C_R   0.020586 0.966584 0.395094 -0.018370
C37   C     C_R   0.038081 0.965758 0.515053 -0.064770
C38   C     C_R   0.091356 0.024042 0.486785 -0.069999
C39   C     C_R   0.198688 0.073136 0.518826 0.415330
C40   C     C_R   0.020090 0.905210 0.481334 0.416515
C41   C     C_R   0.207123 0.072282 0.577779 -0.113546
C42   C     C_R   0.007843 0.906768 0.422448 -0.126052
H3    H     H_    0.288000 0.110644 0.601310 0.165202
H4    H     H_    0.991572 0.860082 0.397717 0.164489
H5    H     H_    0.206330 0.063506 0.689103 0.167426
H6    H     H_    0.970191 0.919473 0.311959 0.166529
C43   C     C_R   0.502069 0.583611 0.834824 -0.175221
C44   C     C_R   0.507433 0.417099 0.166147 -0.188649
C45   C     C_R   0.719335 0.488845 0.847590 -0.076915
C46   C     C_R   0.374118 0.529823 0.162825 -0.085895
C47   C     C_R   0.637861 0.535786 0.812679 0.332376
C48   C     C_R   0.413879 0.473299 0.193190 0.328442
C49   C     C_R   0.438475 0.578347 0.890918 0.300374
C50   C     C_R   0.548080 0.418424 0.107837 0.308752
C51   C     C_R   0.544363 0.536594 0.929272 -0.045345
C52   C     C_R   0.528058 0.479411 0.078657 -0.044022
C53   C     C_R   0.682115 0.490002 0.905792 -0.107113
C54   C     C_R   0.429773 0.534178 0.106245 -0.121450
C55   C     C_R   0.521531 0.539862 0.989892 -0.107314
C56   C     C_R   0.596232 0.486844 0.022316 -0.099500
C57   C     C_R   0.750563 0.447362 0.999047 0.357246
C58   C     C_R   0.445632 0.596973 0.020614 0.349798
C59   C     C_R   0.788338 0.447480 0.941145 0.182415
C60   C     C_R   0.392976 0.593069 0.077323 0.191631
H7    H     H_    0.820541 0.453271 0.828376 0.192494
H8    H     H_    0.299026 0.570703 0.184959 0.189663
C61   C     C_R   0.463433 0.054322 0.123966 0.365022
C62   C     C_R   0.550711 0.945131 0.875625 0.373031
C63   C     C_R   0.537272 0.118580 0.116482 -0.234078
C64   C     C_R   0.467671 0.882080 0.882758 -0.202613
C65   C     C_R   0.615024 0.132858 0.063600 0.168961
C66   C     C_R   0.395544 0.867844 0.936186 0.098676
C67   C     C_R   0.582949 0.088603 0.015375 0.006733
C68   C     C_R   0.437335 0.911051 0.984209 -0.070721
C69   C     C_R   0.515621 0.023478 0.023328 -0.109555
C70   C     C_R   0.501630 0.976374 0.976174 -0.074864
C71   C     C_R   0.465538 0.004958 0.078513 -0.043428
C72   C     C_R   0.549912 0.994629 0.920956 0.008843
C73   C     C_R   0.613328 0.108243 0.959477 0.325354
C74   C     C_R   0.419497 0.890316 0.040252 0.337499
C75   C     C_R   0.591529 0.062331 0.912494 0.154342
C76   C     C_R   0.426568 0.936752 0.086687 0.253855
I1    I     I_    0.811321 0.467603 0.301519 -0.282722
I2    I     I_    0.206969 0.534639 0.698915 -0.265970
I3    I     I_    0.023003 0.384957 0.910961 -0.241600
I4    I     I_    0.261575 0.680313 0.117312 -0.176012
O21   O     O_3   0.584841 0.357857 0.079487 -0.605001
H9    H     H_    0.531339 0.359754 0.040372 0.340541
O22   O     O_3   0.271409 0.612734 0.905903 -0.604406
H10   H     H_    0.206492 0.587425 0.934813 0.322188
O23   O     O_3   0.351236 0.475140 0.248579 -0.605356
H11   H     H_    0.395456 0.434793 0.267650 0.311876
O24   O     O_3   0.700536 0.533921 0.757319 -0.608867
H12   H     H_    0.616465 0.562702 0.734280 0.314842
O25   O     O_3   0.880462 0.413350 0.032579 -0.591094
H13   H     H_    0.890294 0.437662 0.070112 0.310808
O26   O     O_3   0.442736 0.659524 0.998965 -0.592015
H14   H     H_    0.550653 0.661738 0.972191 0.311302
O27   O     O_3   0.388304 0.038900 0.175272 -0.605464
H15   H     H_    0.451468 0.065302 0.206675 0.299239
O28   O     O_3   0.638151 0.958810 0.825536 -0.603983
H16   H     H_    0.578043 0.932811 0.793386 0.304040
I5    I     I_    0.810050 0.215091 0.060639 -0.178220
I6    I     I_    0.195528 0.787662 0.941707 -0.231982
O29   O     O_3   0.640560 0.174651 0.950466 -0.590913
H17   H     H_    0.736342 0.177490 0.920111 0.341205
O30   O     O_3   0.415569 0.823719 0.051782 -0.573608
H18   H     H_    0.502576 0.799064 0.024820 0.339591
I7    I     I_    0.574565 0.103521 0.829809 -0.210353
I8    I     I_    0.412527 0.893679 0.168159 -0.132404
I9    I     I_    0.387837 0.299597 0.433006 -0.270305
I10   I     I_    0.593469 0.690780 0.570785 -0.297631
O31   O     O_3   0.450316 0.488013 0.600851 -0.614621
H19   H     H_    0.556446 0.456334 0.589924 0.309649
O32   O     O_3   0.554236 0.509624 0.398843 -0.611528
H20   H     H_    0.447040 0.540911 0.409627 0.310349
I11   I     I_    0.951170 0.179639 0.439795 -0.286512
I12   I     I_    0.671887 0.876679 0.574707 -0.325326
I13   I     I_    0.949817 0.018111 0.218369 -0.302849
I14   I     I_    0.106690 0.975217 0.784866 -0.303269
O33   O     O_3   0.317402 0.117620 0.494399 -0.601895
H21   H     H_    0.357692 0.098246 0.456937 0.310555
O34   O     O_3   0.037666 0.842917 0.503281 -0.608507
H22   H     H_    0.122073 0.846412 0.537585 0.311514

loop_
_geom_bond_atom_site_label_1
_geom_bond_atom_site_label_2
_ccdc_geom_bond_type
C59   I3    S    
C6    C26   S    
C40   C42   A    
C69   C70   A    
C49   O22   S    
O13   V3    S    
C17   C18   A    
O33   H21   S    
C60   I4    S    
O4    C2    A    
V1    O19   S    
C61   C71   A    
O34   H22   S    
O26   H14   S    
C1    C43   S    
C62   O28   S    
C16   C22   A    
C73   C75   A    
O9    V1    S    
C18   C20   A    
C11   C13   A    
C46   C48   A    
C76   I8    S    
O3    C1    A    
C9    C11   A    
C31   C33   A    
O12   V4    S    
O22   H10   S    
C34   C36   A    
C2    O12   A    
C30   I13   S    
O7    C3    A    
C75   I7    S    
C65   C67   A    
O5    C7    A    
C27   C35   A    
C32   I11   S    
O7    V1    S    
C74   O30   S    
O6    C8    A    
C8    C11   S    
O8    V2    S    
C39   C41   A    
C64   C66   A    
O3    V1    S    
C71   C76   A    
C25   C31   A    
C39   O33   S    
C19   C24   A    
C10   C12   A    
C20   C23   A    
C45   H7    S    
C15   C21   A    
C21   C23   A    
C37   C40   A    
C62   C72   A    
C69   C71   A    
C13   I9    S    
C17   C19   A    
C46   C54   A    
C54   C60   A    
C58   O26   S    
C67   C73   A    
C2    C44   S    
C51   C53   A    
C34   C38   A    
O11   V3    S    
C22   C24   A    
C27   C29   A    
O17   V3    S    
C53   C59   A    
C28   C30   A    
C33   C35   A    
C3    C64   S    
C9    C19   A    
C48   O23   S    
C10   C20   A    
C40   O34   S    
C73   O29   S    
O8    C4    A    
C49   C51   A    
C56   C57   A    
C29   I14   S    
C1    O11   A    
C28   C36   A    
C25   C29   A    
C55   C56   A    
O15   V3    S    
C41   H3    S    
C70   C72   A    
V4    O20   S    
C35   C41   A    
C5    C25   S    
C21   H1    S    
O24   H12   S    
O10   V2    S    
C68   C70   A    
C43   C49   A    
C62   C64   A    
C45   C47   A    
O25   H13   S    
C26   C32   A    
C46   H8    S    
O14   V4    S    
C50   C52   A    
C67   C69   A    
C58   C60   A    
O18   V4    S    
C52   C54   A    
C57   C59   A    
O30   H18   S    
C10   I2    S    
O16   C6    A    
O1    C3    A    
C66   I6    S    
C27   H5    S    
C4    C63   S    
C57   O25   S    
O21   H9    S    
V2    O20   S    
C55   C58   A    
C22   H2    S    
O16   V4    S    
C31   I12   S    
O18   C8    A    
C16   C18   A    
C47   O24   S    
O31   H19   S    
C63   C65   A    
O28   H16   S    
O5    V1    S    
C7    C12   S    
O17   C7    A    
O6    V2    S    
O10   C6    A    
C33   C37   A    
C36   C42   A    
O2    V4    S    
C38   C39   A    
O15   C5    A    
C65   I5    S    
V3    O19   S    
C52   C56   A    
O32   H20   S    
C12   C14   A    
C14   C16   A    
C45   C53   A    
O1    V3    S    
O27   H15   S    
C74   C76   A    
O9    C5    A    
O13   V1    S    
C24   O32   S    
C9    I1    S    
O14   V2    S    
O2    C4    A    
C66   C68   A    
C61   O27   S    
C68   C74   A    
C37   C38   A    
O4    V2    S    
C26   C30   A    
C13   C15   A    
C28   H6    S    
C50   O21   S    
C15   C17   A    
C61   C63   A    
C44   C48   A    
C23   O31   S    
C42   H4    S    
C43   C47   A    
C44   C50   A    
C14   I10   S    
O23   H11   S    
C32   C34   A    
C72   C75   A    
C51   C55   A    
O29   H17   S    
