data_mof_unit_54405.cif
_audit_creation_date              2012-12-10T17:08:42-0500
_audit_creation_method            fapswitch 2.2
_symmetry_space_group_name_H-M    P1
_symmetry_Int_Tables_number       1
_space_group_crystal_system       triclinic
_cell_length_a                    15.711046
_cell_length_b                    10.67439
_cell_length_c                    10.043468
_cell_angle_alpha                 91.069338
_cell_angle_beta                  90.116928
_cell_angle_gamma                 89.70143
_cell_volume                      1684.0287716

loop_
_atom_site_label
_atom_site_type_symbol
_atom_type_description
_atom_site_fract_x
_atom_site_fract_y
_atom_site_fract_z
_atom_type_partial_charge
C1    C     C_R   0.496668 0.262745 0.498455 0.877940
C2    C     C_2   0.519470 0.868350 0.505447 -0.314940
C3    C     C_2   0.530584 0.066368 0.403011 -0.242497
C4    C     C_R   0.338430 0.499444 0.499922 0.911850
C5    C     C_2   0.482681 0.131493 0.491118 -0.127699
C6    C     C_2   0.522926 0.595760 0.926441 -0.059388
C7    C     C_2   0.534773 0.586876 0.074646 -0.109918
C8    C     C_R   0.504684 0.737244 0.501302 0.932662
C9    C     C_R   0.661649 0.498942 0.499990 0.899167
C10   C     C_3   0.049589 0.468465 0.637505 -0.439783
C11   C     C_3   0.052520 0.365500 0.406913 -0.179541
C12   C     C_3   0.951473 0.471229 0.637319 -0.384735
C13   C     C_3   0.950472 0.356542 0.408786 -0.003287
C14   C     C_1   0.750463 0.490981 0.499327 -0.184357
C15   C     C_3   0.083114 0.481437 0.493408 0.271327
C16   C     C_R   0.404729 0.082643 0.556650 0.125897
C17   C     C_R   0.393722 0.095679 0.695137 -0.156872
C18   C     C_R   0.318720 0.055060 0.754967 -0.138581
C19   C     C_R   0.254086 0.001553 0.677244 -0.104450
C20   C     C_R   0.264329 0.988478 0.539525 -0.165271
C21   C     C_R   0.339164 0.029059 0.479239 -0.129889
C22   C     C_2   0.424728 0.439998 0.105070 0.570721
C23   C     C_3   0.917379 0.475467 0.491953 0.222189
C24   C     C_R   0.097702 0.354771 0.270337 0.187653
C25   C     C_R   0.158626 0.258667 0.248610 -0.137665
C26   C     C_R   0.202620 0.248014 0.128081 -0.141248
C27   C     C_R   0.186635 0.332450 0.026683 -0.057250
C28   C     C_R   0.126773 0.427966 0.045767 -0.107019
C29   C     C_R   0.082879 0.439607 0.166375 -0.091934
C30   C     C_R   0.915229 0.234016 0.472995 0.146738
C31   C     C_R   0.832284 0.191037 0.438923 -0.091255
C32   C     C_R   0.798272 0.082974 0.493732 -0.148489
C33   C     C_R   0.844889 0.015402 0.586081 -0.112913
C34   C     C_3   0.950238 0.599451 0.430958 -0.431041
C35   C     C_R   0.924890 0.057271 0.625870 -0.128248
C36   C     C_R   0.959346 0.165620 0.571953 -0.180946
C37   C     C_2   0.915327 0.359183 0.266347 0.328396
C38   C     C_3   0.047683 0.606149 0.440290 -0.397721
C39   C     C_1   0.825672 0.482868 0.496525 -0.130782
C40   C     C_1   0.174558 0.487852 0.497576 -0.098675
C41   C     C_1   0.249729 0.493760 0.499361 -0.160337
C42   C     C_2   0.526848 0.931962 0.393555 -0.184073
H1    H     H_    0.926288 0.389286 0.690892 0.188166
H2    H     H_    0.575496 0.655957 0.122702 0.135445
H3    H     H_    0.073482 0.380702 0.682400 0.166763
H4    H     H_    0.078135 0.284612 0.460148 0.110967
H5    H     H_    0.065382 0.684328 0.509841 0.176665
H6    H     H_    0.076143 0.630850 0.343528 0.169149
H7    H     H_    0.922629 0.681751 0.485774 0.187542
H8    H     H_    0.443266 0.136464 0.756912 0.137299
H9    H     H_    0.310636 0.065334 0.861628 0.122732
H10   H     H_    0.195990 0.970482 0.723686 0.123201
H11   H     H_    0.214045 0.947601 0.479340 0.130469
H12   H     H_    0.073545 0.546690 0.702022 0.179503
H13   H     H_    0.345634 0.020127 0.372136 0.135473
H14   H     H_    0.412889 0.344985 0.136327 0.017309
H15   H     H_    0.172956 0.191874 0.325435 0.114728
H16   H     H_    0.249286 0.174116 0.113414 0.115355
H17   H     H_    0.220574 0.323777 0.933245 0.136959
H18   H     H_    0.113985 0.492927 0.966628 0.122073
H19   H     H_    0.035505 0.512681 0.175472 0.101862
H20   H     H_    0.792625 0.241179 0.369466 0.126662
H21   H     H_    0.735276 0.051973 0.464772 0.133909
H22   H     H_    0.818440 0.931673 0.628477 0.123226
H23   H     H_    0.929325 0.555775 0.694258 0.179345
H24   H     H_    0.960143 0.006397 0.700377 0.129220
H25   H     H_    0.019286 0.194873 0.613409 0.117098
H26   H     H_    0.875734 0.435864 0.232820 0.064794
H27   H     H_    0.930052 0.609104 0.325771 0.155157
H28   H     H_    0.530342 0.886641 0.295945 0.176800
H29   H     H_    0.523700 0.914333 0.602776 0.160658
H30   H     H_    0.577523 0.112350 0.341458 0.158311
H31   H     H_    0.536592 0.684264 0.879960 0.141758
H32   H     H_    0.502349 0.414294 0.894279 0.157227
N1    N     N_2   0.500900 0.501330 0.852150 -0.166741
N2    N     N_2   0.500920 0.501360 0.147810 -0.168502
O1    O     O_R   0.499990 0.319060 0.613040 -0.626278
O2    O     O_2   0.928906 0.271991 0.188499 -0.561658
O3    O     O_R   0.500010 0.319100 0.386900 -0.641760
O4    O     O_R   0.377130 0.499990 0.613120 -0.591293
O5    O     O_R   0.377160 0.500030 0.386980 -0.610393
O6    O     O_R   0.499990 0.680900 0.613100 -0.621841
O7    O     O_R   0.500010 0.680940 0.386960 -0.614764
O8    O     O_R   0.622840 0.499970 0.613020 -0.610192
O9    O     O_R   0.622870 0.500010 0.386880 -0.622346
O10   O     O_2   0.369347 0.495642 0.043738 -0.595553
Zn1   Zn    Zn3+2 0.499980 0.499970 0.650990 0.957321
Zn2   Zn    Zn3+2 0.500020 0.500030 0.349010 0.944439

loop_
_geom_bond_atom_site_label_1
_geom_bond_atom_site_label_2
_ccdc_geom_bond_type
C3    C42   S    
C16   C21   A    
C8    O7    A    
C1    O1    A    
C19   C20   A    
O8    Zn1   S    
C22   N2    S    
C36   H25   S    
C6    N1    D    
C12   C23   S    
C26   C27   A    
C8    O6    A    
C28   C29   A    
C4    O4    A    
C12   H1    S    
C10   C15   S    
C30   C31   A    
C4    C41   S    
O6    Zn1   S    
C37   H26   S    
C11   C24   S    
C42   H28   S    
C13   C23   S    
C18   C19   A    
C24   C29   A    
C5    C16   S    
C9    O9    A    
C14   C39   T    
C11   C15   S    
C19   H10   S    
C4    O5    A    
C35   C36   A    
C16   C17   A    
N2    Zn2   S    
C13   C37   S    
O7    Zn2   S    
C31   H20   S    
C25   H15   S    
O3    Zn2   S    
C18   H9    S    
C28   H18   S    
C29   H19   S    
H32   N1    S    
C13   C30   S    
C24   C25   A    
C21   H13   S    
C22   H14   S    
C35   H24   S    
C25   C26   A    
C9    C14   S    
C15   C38   S    
C31   C32   A    
C23   C34   S    
C10   H3    S    
C17   C18   A    
C7    H2    S    
C26   H16   S    
C34   H27   S    
C38   H5    S    
C6    C7    S    
C10   C12   S    
N1    Zn1   S    
C40   C41   T    
C1    O3    A    
C1    C5    S    
C2    H29   S    
C6    H31   S    
C37   O2    D    
O9    Zn2   S    
C34   H7    S    
C34   C38   S    
C38   H6    S    
C2    C8    S    
C32   H21   S    
C20   H11   S    
C3    C5    D    
C17   H8    S    
C7    N2    D    
O4    Zn1   S    
C12   H23   S    
C30   C36   A    
C32   C33   A    
C3    H30   S    
C27   H17   S    
C11   C13   S    
C2    C42   D    
C33   H22   S    
C23   C39   S    
C33   C35   A    
C22   O10   D    
C10   H12   S    
C15   C40   S    
O5    Zn2   S    
C9    O8    A    
C20   C21   A    
O1    Zn1   S    
C27   C28   A    
C11   H4    S    
