data_mof_unit_62025.cif
_audit_creation_date              2012-12-10T17:15:47-0500
_audit_creation_method            fapswitch 2.2
_symmetry_space_group_name_H-M    P1
_symmetry_Int_Tables_number       1
_space_group_crystal_system       triclinic
_cell_length_a                    18.308145
_cell_length_b                    18.309422
_cell_length_c                    42.96957
_cell_angle_alpha                 89.999981
_cell_angle_beta                  90.0
_cell_angle_gamma                 90.018402
_cell_volume                      14403.8955418

loop_
_atom_site_label
_atom_site_type_symbol
_atom_type_description
_atom_site_fract_x
_atom_site_fract_y
_atom_site_fract_z
_atom_type_partial_charge
C1    C     C_R   0.000000 0.500000 0.915740 0.939589
C2    C     C_R   0.500000 1.000000 0.915761 0.939817
C3    C     C_R   0.500000 1.000000 0.415740 0.939593
C4    C     C_R   1.000000 0.500000 0.415761 0.939818
C5    C     C_R   0.988151 0.565080 0.167543 -0.138539
C6    C     C_R   0.435203 0.986598 0.167507 -0.137852
C7    C     C_R   0.011848 0.434920 0.167543 -0.138539
C8    C     C_R   0.564797 0.013401 0.167507 -0.137853
C9    C     C_R   0.488150 0.065080 0.667543 -0.138538
C10   C     C_R   0.935203 0.486597 0.667507 -0.137852
C11   C     C_R   0.511849 0.934920 0.667543 -0.138539
C12   C     C_R   0.064797 0.513402 0.667507 -0.137852
C13   C     C_R   1.000000 0.500000 0.184114 0.083254
C14   C     C_R   0.500000 1.000000 0.184067 0.083865
C15   C     C_R   0.500000 1.000000 0.684114 0.083254
C16   C     C_R   0.000000 0.500000 0.684067 0.083865
C17   C     C_R   1.000000 0.500000 0.118535 -0.011520
C18   C     C_R   0.500000 1.000000 0.118513 -0.010814
C19   C     C_R   0.500000 1.000000 0.618535 -0.011520
C20   C     C_R   1.000000 0.500000 0.618513 -0.010814
C21   C     C_R   0.500000 1.000000 0.781599 0.454026
C22   C     C_R   1.000000 0.500000 0.781523 0.453115
C23   C     C_R   1.000000 0.500000 0.281599 0.454026
C24   C     C_R   0.500000 1.000000 0.281523 0.453115
C25   C     C_R   1.000000 0.500000 0.218475 0.277660
C26   C     C_R   0.500000 1.000000 0.218411 0.273969
C27   C     C_R   0.500000 1.000000 0.718475 0.277661
C28   C     C_R   1.000000 0.500000 0.718411 0.273968
C29   C     C_R   0.532808 0.057934 0.832418 0.199168
C30   C     C_R   0.940520 0.529843 0.832331 0.200754
C31   C     C_R   0.467191 0.942066 0.832418 0.199168
C32   C     C_R   0.059480 0.470157 0.832331 0.200754
C33   C     C_R   0.032809 0.557933 0.332418 0.199169
C34   C     C_R   0.440522 0.029846 0.332331 0.200755
C35   C     C_R   0.967191 0.442066 0.332418 0.199169
C36   C     C_R   0.559478 0.970154 0.332331 0.200755
C37   C     C_R   0.532220 0.057917 0.864960 0.572510
C38   C     C_R   0.940593 0.529349 0.864872 0.573145
C39   C     C_R   0.467780 0.942083 0.864960 0.572511
C40   C     C_R   0.059407 0.470651 0.864872 0.573145
C41   C     C_R   0.032221 0.557916 0.364960 0.572511
C42   C     C_R   0.440595 0.029353 0.364872 0.573144
C43   C     C_R   0.967779 0.442084 0.364960 0.572509
C44   C     C_R   0.559405 0.970647 0.364872 0.573143
C45   C     C_R   0.500000 1.000000 0.881448 -0.426076
C46   C     C_R   0.000000 0.500000 0.881390 -0.401416
C47   C     C_R   1.000000 0.500000 0.381448 -0.426074
C48   C     C_R   0.500000 0.000000 0.381391 -0.401412
C49   C     C_R   0.500000 0.000000 0.815855 -0.302300
C50   C     C_R   1.000000 0.500000 0.815774 -0.279678
C51   C     C_R   1.000000 0.500000 0.315856 -0.302300
C52   C     C_R   0.500000 1.000000 0.315775 -0.279678
C53   C     C_R   0.000000 0.500000 0.084228 0.792463
C54   C     C_R   0.500000 0.000000 0.084221 0.793036
C55   C     C_R   0.500000 1.000000 0.584228 0.792464
C56   C     C_R   1.000000 0.500000 0.584221 0.793037
C57   C     C_R   0.859046 0.639179 0.000487 0.788069
C58   C     C_R   0.359141 0.860737 0.999461 0.781567
C59   C     C_R   0.140954 0.360821 0.000488 0.788072
C60   C     C_R   0.640859 0.139263 0.999461 0.781565
C61   C     C_R   0.139272 0.640856 0.999464 0.781363
C62   C     C_R   0.639179 0.859046 0.000490 0.783840
C63   C     C_R   0.860728 0.359144 0.999464 0.781365
C64   C     C_R   0.360821 0.140954 0.000490 0.783842
C65   C     C_R   0.359046 0.139179 0.500488 0.788069
C66   C     C_R   0.859141 0.360737 0.499461 0.781566
C67   C     C_R   0.640954 0.860821 0.500488 0.788070
C68   C     C_R   0.140859 0.639263 0.499461 0.781566
C69   C     C_R   0.639272 0.140856 0.499464 0.781364
C70   C     C_R   0.139179 0.359046 0.500490 0.783840
C71   C     C_R   0.360728 0.859144 0.499464 0.781365
C72   C     C_R   0.860821 0.640954 0.500490 0.783840
C73   C     C_R   0.180667 0.711584 0.940669 -0.369480
C74   C     C_R   0.402277 0.294545 0.009661 -0.388056
C75   C     C_R   0.819334 0.288415 0.940669 -0.369479
C76   C     C_R   0.597726 0.705458 0.009668 -0.388056
C77   C     C_R   0.705444 0.597738 0.009664 -0.386543
C78   C     C_R   0.711567 0.180674 0.940656 -0.356517
C79   C     C_R   0.294559 0.402265 0.009657 -0.386543
C80   C     C_R   0.288433 0.819326 0.940656 -0.356516
C81   C     C_R   0.680662 0.211588 0.440670 -0.369479
C82   C     C_R   0.902274 0.794542 0.509668 -0.388055
C83   C     C_R   0.319336 0.788413 0.440670 -0.369480
C84   C     C_R   0.097726 0.205458 0.509668 -0.388055
C85   C     C_R   0.205444 0.097737 0.509663 -0.386541
C86   C     C_R   0.211568 0.680672 0.440657 -0.356515
C87   C     C_R   0.794556 0.902262 0.509663 -0.386541
C88   C     C_R   0.788430 0.319328 0.440657 -0.356516
C89   C     C_R   0.201864 0.744387 0.912817 0.612375
C90   C     C_R   0.421477 0.367740 0.013302 0.636719
C91   C     C_R   0.798137 0.255613 0.912817 0.612376
C92   C     C_R   0.578526 0.632264 0.013313 0.636723
C93   C     C_R   0.632244 0.578545 0.013311 0.637326
C94   C     C_R   0.744401 0.201878 0.912808 0.658278
C95   C     C_R   0.367760 0.421459 0.013300 0.637323
C96   C     C_R   0.255600 0.798122 0.912808 0.658280
C97   C     C_R   0.701858 0.244392 0.412817 0.612374
C98   C     C_R   0.921474 0.867736 0.513312 0.636722
C99   C     C_R   0.298140 0.755610 0.412817 0.612375
C100  C     C_R   0.078526 0.132264 0.513313 0.636722
C101  C     C_R   0.132244 0.078545 0.513310 0.637323
C102  C     C_R   0.244403 0.701875 0.412809 0.658279
C103  C     C_R   0.867756 0.921455 0.513310 0.637324
C104  C     C_R   0.755595 0.298127 0.412809 0.658280
C105  C     C_R   0.268980 0.785782 0.969155 0.001069
C106  C     C_R   0.273787 0.328520 0.005264 0.017122
C107  C     C_R   0.731020 0.214218 0.969155 0.001071
C108  C     C_R   0.726215 0.671482 0.005267 0.017119
C109  C     C_R   0.671476 0.726222 0.005269 0.017192
C110  C     C_R   0.785774 0.268966 0.969160 0.015759
C111  C     C_R   0.328526 0.273780 0.005266 0.017195
C112  C     C_R   0.214226 0.731034 0.969160 0.015759
C113  C     C_R   0.768978 0.285783 0.469156 0.001067
C114  C     C_R   0.773785 0.828519 0.505266 0.017118
C115  C     C_R   0.231021 0.714217 0.469156 0.001067
C116  C     C_R   0.226215 0.171482 0.505266 0.017118
C117  C     C_R   0.171476 0.226222 0.505269 0.017193
C118  C     C_R   0.285775 0.768965 0.469160 0.015757
C119  C     C_R   0.828524 0.773778 0.505269 0.017193
C120  C     C_R   0.714225 0.231036 0.469160 0.015756
C121  C     C_R   0.192776 0.699405 0.997856 0.007723
C122  C     C_R   0.307460 0.199641 0.002057 0.003251
C123  C     C_R   0.807224 0.300595 0.997856 0.007723
C124  C     C_R   0.692540 0.800360 0.002056 0.003257
C125  C     C_R   0.800359 0.692539 0.002052 0.004706
C126  C     C_R   0.699401 0.192762 0.997853 0.007397
C127  C     C_R   0.199642 0.307462 0.002053 0.004700
C128  C     C_R   0.300599 0.807238 0.997853 0.007397
C129  C     C_R   0.692776 0.199405 0.497856 0.007723
C130  C     C_R   0.807460 0.699640 0.502056 0.003256
C131  C     C_R   0.307224 0.800595 0.497856 0.007723
C132  C     C_R   0.192540 0.300360 0.502056 0.003256
C133  C     C_R   0.300359 0.192539 0.502052 0.004705
C134  C     C_R   0.199401 0.692762 0.497853 0.007396
C135  C     C_R   0.699641 0.807461 0.502052 0.004706
C136  C     C_R   0.800599 0.307238 0.497853 0.007397
C137  C     C_R   0.222404 0.724216 0.025866 -0.173934
C138  C     C_R   0.233753 0.180380 0.000521 -0.192311
C139  C     C_R   0.777596 0.275784 0.025866 -0.173932
C140  C     C_R   0.766247 0.819621 0.000516 -0.192309
C141  C     C_R   0.819627 0.766239 0.000514 -0.188139
C142  C     C_R   0.724208 0.222388 0.025865 -0.173240
C143  C     C_R   0.180373 0.233761 0.000519 -0.188143
C144  C     C_R   0.275792 0.777612 0.025865 -0.173237
C145  C     C_R   0.722406 0.224214 0.525867 -0.173930
C146  C     C_R   0.733753 0.680379 0.500516 -0.192309
C147  C     C_R   0.277595 0.775785 0.525866 -0.173929
C148  C     C_R   0.266247 0.319621 0.500516 -0.192309
C149  C     C_R   0.319627 0.266239 0.500514 -0.188138
C150  C     C_R   0.224207 0.722389 0.525865 -0.173237
C151  C     C_R   0.680373 0.733761 0.500514 -0.188137
C152  C     C_R   0.775794 0.277610 0.525865 -0.173235
C153  C     C_R   0.988493 0.565135 0.135071 -0.176832
C154  C     C_R   0.435132 0.986979 0.135039 -0.176804
C155  C     C_R   0.011506 0.434865 0.135071 -0.176833
C156  C     C_R   0.564868 0.013021 0.135039 -0.176804
C157  C     C_R   0.488492 0.065135 0.635071 -0.176832
C158  C     C_R   0.935132 0.486978 0.635039 -0.176803
C159  C     C_R   0.511508 0.934865 0.635071 -0.176831
C160  C     C_R   0.064868 0.513022 0.635039 -0.176803
H1    H     H_    0.205276 0.700809 0.047861 0.159459
H2    H     H_    0.217511 0.123628 0.998549 0.159252
H3    H     H_    0.794723 0.299192 0.047861 0.159459
H4    H     H_    0.782488 0.876372 0.998541 0.159247
H5    H     H_    0.876383 0.782475 0.998538 0.159615
H6    H     H_    0.700800 0.205255 0.047858 0.158220
H7    H     H_    0.123617 0.217524 0.998546 0.159620
H8    H     H_    0.299199 0.794746 0.047859 0.158220
H9    H     H_    0.705280 0.200805 0.547860 0.159460
H10   H     H_    0.717512 0.623628 0.498542 0.159248
H11   H     H_    0.294721 0.799193 0.547861 0.159459
H12   H     H_    0.282488 0.376372 0.498542 0.159248
H13   H     H_    0.376383 0.282475 0.498538 0.159616
H14   H     H_    0.200798 0.705256 0.547859 0.158220
H15   H     H_    0.623617 0.717525 0.498538 0.159616
H16   H     H_    0.799203 0.294742 0.547859 0.158220
H17   H     H_    0.136764 0.672229 0.939570 0.203231
H18   H     H_    0.445707 0.254743 0.011036 0.203297
H19   H     H_    0.863238 0.327770 0.939570 0.203230
H20   H     H_    0.554296 0.745261 0.011043 0.203288
H21   H     H_    0.745245 0.554306 0.011035 0.201991
H22   H     H_    0.672196 0.136784 0.939547 0.217599
H23   H     H_    0.254758 0.445697 0.011029 0.201997
H24   H     H_    0.327803 0.863216 0.939547 0.217597
H25   H     H_    0.636758 0.172233 0.439570 0.203227
H26   H     H_    0.945704 0.754739 0.511043 0.203289
H27   H     H_    0.363240 0.827768 0.439570 0.203229
H28   H     H_    0.054296 0.245260 0.511043 0.203289
H29   H     H_    0.245245 0.054306 0.511034 0.201991
H30   H     H_    0.172198 0.636783 0.439547 0.217597
H31   H     H_    0.754755 0.945694 0.511034 0.201992
H32   H     H_    0.827802 0.363218 0.439547 0.217597
H33   H     H_    0.979339 0.616150 0.122927 0.168855
H34   H     H_    0.384345 0.976621 0.122889 0.167842
H35   H     H_    0.020661 0.383850 0.122927 0.168855
H36   H     H_    0.615655 0.023379 0.122889 0.167842
H37   H     H_    0.479337 0.116150 0.622927 0.168855
H38   H     H_    0.884345 0.476619 0.622889 0.167842
H39   H     H_    0.520663 0.883850 0.622927 0.168855
H40   H     H_    0.115655 0.523381 0.622889 0.167842
H41   H     H_    0.979102 0.616167 0.179637 0.166360
H42   H     H_    0.384344 0.976352 0.179610 0.166732
H43   H     H_    0.020898 0.383833 0.179637 0.166360
H44   H     H_    0.615656 0.023648 0.179610 0.166732
H45   H     H_    0.479100 0.116167 0.679637 0.166360
H46   H     H_    0.884344 0.476350 0.679610 0.166732
H47   H     H_    0.520899 0.883833 0.679637 0.166360
H48   H     H_    0.115656 0.523649 0.679610 0.166732
N1    N     N_R   0.024831 0.441232 0.234591 -0.150450
N2    N     N_R   0.557533 0.027621 0.234519 -0.147996
N3    N     N_R   0.975169 0.558768 0.234591 -0.150450
N4    N     N_R   0.442466 0.972379 0.234519 -0.147995
N5    N     N_R   0.524832 0.941232 0.734591 -0.150450
N6    N     N_R   0.057532 0.527624 0.734519 -0.147994
N7    N     N_R   0.475168 0.058768 0.734591 -0.150450
N8    N     N_R   0.942468 0.472376 0.734519 -0.147994
N9    N     N_R   0.524976 0.941284 0.765562 -0.106295
N10   N     N_R   0.057464 0.527780 0.765489 -0.098848
N11   N     N_R   0.475024 0.058715 0.765562 -0.106295
N12   N     N_R   0.942536 0.472220 0.765489 -0.098848
N13   N     N_R   0.024975 0.441284 0.265562 -0.106295
N14   N     N_R   0.557466 0.027777 0.265489 -0.098848
N15   N     N_R   0.975025 0.558716 0.265562 -0.106295
N16   N     N_R   0.442534 0.972223 0.265489 -0.098848
O1    O     O_3   0.000000 0.500000 0.999980 -0.509691
O2    O     O_3   0.500000 1.000000 0.999980 -0.507281
O3    O     O_3   0.500000 1.000000 0.499980 -0.509691
O4    O     O_3   1.000000 0.500000 0.499980 -0.507282
O5    O     O_R   0.060770 0.500000 0.930660 -0.584937
O6    O     O_R   0.500000 0.060770 0.930660 -0.590127
O7    O     O_R   0.939230 0.500000 0.930660 -0.584937
O8    O     O_R   0.500000 0.939230 0.930660 -0.590127
O9    O     O_R   0.560770 0.000000 0.430660 -0.584939
O10   O     O_R   1.000000 0.560770 0.430660 -0.590128
O11   O     O_R   0.439230 0.000000 0.430660 -0.584939
O12   O     O_R   0.000000 0.439230 0.430660 -0.590128
O13   O     O_R   1.000000 0.560700 0.069300 -0.642061
O14   O     O_R   0.439300 1.000000 0.069300 -0.641572
O15   O     O_R   1.000000 0.439300 0.069300 -0.642061
O16   O     O_R   0.560700 1.000000 0.069300 -0.641572
O17   O     O_R   0.500000 0.060700 0.569300 -0.642061
O18   O     O_R   0.939300 0.500000 0.569300 -0.641571
O19   O     O_R   0.500000 0.939300 0.569300 -0.642061
O20   O     O_R   0.060700 0.500000 0.569300 -0.641572
O21   O     O_R   0.853840 0.585430 0.981810 -0.612245
O22   O     O_R   0.414570 0.853840 0.981810 -0.619136
O23   O     O_R   0.146160 0.414570 0.981810 -0.612248
O24   O     O_R   0.585430 0.146160 0.981810 -0.619138
O25   O     O_R   0.146160 0.585430 0.981810 -0.626163
O26   O     O_R   0.585430 0.853840 0.981810 -0.624852
O27   O     O_R   0.853840 0.414570 0.981810 -0.626161
O28   O     O_R   0.414570 0.146160 0.981810 -0.624857
O29   O     O_R   0.353840 0.085430 0.481810 -0.612245
O30   O     O_R   0.914570 0.353840 0.481810 -0.619136
O31   O     O_R   0.646160 0.914570 0.481810 -0.612246
O32   O     O_R   0.085430 0.646160 0.481810 -0.619137
O33   O     O_R   0.646160 0.085430 0.481810 -0.626162
O34   O     O_R   0.085430 0.353840 0.481810 -0.624852
O35   O     O_R   0.353840 0.914570 0.481810 -0.626162
O36   O     O_R   0.914570 0.646160 0.481810 -0.624853
O37   O     O_R   0.085460 0.353830 0.018160 -0.645526
O38   O     O_R   0.646170 0.085460 0.018160 -0.646763
O39   O     O_R   0.914540 0.646170 0.018160 -0.645524
O40   O     O_R   0.353830 0.914540 0.018160 -0.646764
O41   O     O_R   0.914540 0.353830 0.018160 -0.645147
O42   O     O_R   0.353830 0.085460 0.018160 -0.641846
O43   O     O_R   0.085460 0.646170 0.018160 -0.645147
O44   O     O_R   0.646170 0.914540 0.018160 -0.641846
O45   O     O_R   0.585460 0.853830 0.518160 -0.645524
O46   O     O_R   0.146170 0.585460 0.518160 -0.646763
O47   O     O_R   0.414540 0.146170 0.518160 -0.645524
O48   O     O_R   0.853830 0.414540 0.518160 -0.646762
O49   O     O_R   0.414540 0.853830 0.518160 -0.645147
O50   O     O_R   0.853830 0.585460 0.518160 -0.641845
O51   O     O_R   0.585460 0.146170 0.518160 -0.645146
O52   O     O_R   0.146170 0.414540 0.518160 -0.641845
Zn1   Zn    Zn3+2 1.000000 0.586740 0.025950 0.973174
Zn2   Zn    Zn3+2 0.413260 0.000000 0.025950 0.973631
Zn3   Zn    Zn3+2 1.000000 0.413260 0.025950 0.973174
Zn4   Zn    Zn3+2 0.586740 0.000000 0.025950 0.973631
Zn5   Zn    Zn3+2 0.500000 0.086740 0.525950 0.973176
Zn6   Zn    Zn3+2 0.913260 0.500000 0.525950 0.973632
Zn7   Zn    Zn3+2 0.500000 0.913260 0.525950 0.973176
Zn8   Zn    Zn3+2 0.086740 0.500000 0.525950 0.973632
Zn9   Zn    Zn3+2 0.913260 0.500000 0.974020 1.046126
Zn10  Zn    Zn3+2 0.500000 0.913260 0.974020 1.037945
Zn11  Zn    Zn3+2 0.086740 0.500000 0.974020 1.046123
Zn12  Zn    Zn3+2 0.500000 0.086740 0.974020 1.037942
Zn13  Zn    Zn3+2 0.413260 1.000000 0.474020 1.046125
Zn14  Zn    Zn3+2 1.000000 0.413260 0.474020 1.037944
Zn15  Zn    Zn3+2 0.586740 1.000000 0.474020 1.046125
Zn16  Zn    Zn3+2 0.000000 0.586740 0.474020 1.037944
F1    F     F_    0.169027 0.724783 0.885780 -0.582926
F2    F     F_    0.492523 0.386382 0.017431 -0.552335
F3    F     F_    0.830975 0.275215 0.885780 -0.582926
F4    F     F_    0.507481 0.613624 0.017447 -0.552340
F5    F     F_    0.613597 0.507506 0.017442 -0.552348
F6    F     F_    0.724868 0.169043 0.885763 -0.544267
F7    F     F_    0.386408 0.492500 0.017428 -0.552342
F8    F     F_    0.275132 0.830958 0.885763 -0.544267
F9    F     F_    0.669018 0.224791 0.385781 -0.582928
F10   F     F_    0.992519 0.886376 0.517445 -0.552342
F11   F     F_    0.330979 0.775212 0.385781 -0.582927
F12   F     F_    0.007481 0.113624 0.517446 -0.552342
F13   F     F_    0.113597 0.007506 0.517441 -0.552350
F14   F     F_    0.224871 0.669039 0.385763 -0.544268
F15   F     F_    0.886403 0.992495 0.517440 -0.552350
F16   F     F_    0.775126 0.330963 0.385763 -0.544270
Br1   Br    Br    0.582941 0.136442 0.811652 -0.249627
Br2   Br    Br    0.859559 0.575812 0.811539 -0.288633
Br3   Br    Br    0.417058 0.863558 0.811652 -0.249627
Br4   Br    Br    0.140441 0.424188 0.811539 -0.288632
Br5   Br    Br    0.082943 0.636441 0.311652 -0.249629
Br6   Br    Br    0.359563 0.075820 0.311539 -0.288635
Br7   Br    Br    0.917057 0.363559 0.311652 -0.249630
Br8   Br    Br    0.640437 0.924180 0.311539 -0.288635
F17   F     F_    0.565201 0.113554 0.880473 -0.559054
F18   F     F_    0.883384 0.559631 0.880333 -0.572266
F19   F     F_    0.434799 0.886446 0.880473 -0.559054
F20   F     F_    0.116616 0.440369 0.880333 -0.572266
F21   F     F_    0.065203 0.613553 0.380473 -0.559055
F22   F     F_    0.383387 0.059637 0.380333 -0.572268
F23   F     F_    0.934797 0.386447 0.380473 -0.559056
F24   F     F_    0.616613 0.940363 0.380333 -0.572269

loop_
_geom_bond_atom_site_label_1
_geom_bond_atom_site_label_2
_ccdc_geom_bond_type
C28   N8    A    
C130  C146  A    
C34   C42   A    
C17   C153  A    
C11   C159  A    
C90   C95   A    
C90   F2    S    
C40   C46   A    
O44   Zn4   S    
O1    Zn11  S    
C138  C143  A    
C139  C142  A    
C1    C46   S    
O35   Zn13  S    
C85   H29   S    
C3    C48   S    
C119  C130  A    
C108  C109  A    
C30   C38   A    
O2    Zn2   S    
C25   N3    A    
C117  C132  A    
C61   O43   A    
C7    H43   S    
C118  C131  A    
C3    O11   A    
C11   C15   A    
C12   C16   A    
C84   C117  A    
C65   O29   A    
C77   H21   S    
C75   H19   S    
C5    C13   A    
C20   C158  A    
C82   C98   A    
C93   F5    S    
O28   Zn12  S    
C136  C152  A    
O48   Zn6   S    
O20   Zn8   S    
O21   Zn9   S    
C84   C100  A    
C8    H44   S    
C147  C150  A    
C140  C141  A    
C54   O14   A    
C116  C133  A    
C106  C127  A    
O42   Zn2   S    
C152  H16   S    
C19   C157  A    
C100  F12   S    
O13   Zn1   S    
C110  C123  A    
C113  C120  A    
C1    O7    A    
C15   C27   S    
C74   H18   S    
C66   O30   A    
C115  C118  A    
N3    N15   A    
O26   Zn10  S    
C138  H2    S    
C127  C143  A    
C14   C26   S    
C128  C144  A    
C87   C103  A    
O23   Zn11  S    
C105  C112  A    
C67   O31   A    
C35   C51   A    
C107  C110  A    
C36   C44   A    
C37   C45   A    
C17   C155  A    
C18   C156  A    
C56   O18   A    
C4    O10   A    
C85   C116  A    
C115  C134  A    
C74   C90   A    
C89   C96   A    
C9    C15   A    
C33   C41   A    
C10   C16   A    
C3    O9    A    
C91   C94   A    
C137  H1    S    
C78   C94   A    
C71   O49   A    
C98   F10   S    
C62   O26   A    
C57   O21   A    
C69   C129  S    
C20   C160  A    
O45   Zn7   S    
C26   N4    A    
O27   Zn9   S    
O46   Zn8   S    
O30   Zn14  S    
C43   C47   A    
O18   Zn6   S    
C44   C48   A    
O36   Zn16  S    
C58   C128  S    
N2    N14   A    
C20   C56   S    
C62   C124  S    
C29   C49   A    
O3    Zn15  S    
O2    Zn12  S    
C5    H41   S    
C44   F24   S    
C101  F13   S    
C59   C127  S    
C123  C139  A    
C61   C121  S    
C121  C137  A    
C88   C113  A    
C33   Br5   S    
C62   O44   A    
C64   O28   A    
C125  C141  A    
C76   C109  A    
C36   Br8   S    
C131  C147  A    
C35   C43   A    
C10   C158  A    
C114  C119  A    
C36   C52   A    
C75   C91   A    
C39   C45   A    
C56   O20   A    
C21   N9    A    
C111  C122  A    
C4    O12   A    
C11   H47   S    
C70   C132  S    
C88   C104  A    
C106  C111  A    
C2    C45   S    
C69   O51   A    
C86   H30   S    
C70   O52   A    
C120  C129  A    
C60   O38   A    
N6    N10   A    
C53   O13   A    
C42   F22   S    
O52   Zn8   S    
C31   Br3   S    
C32   Br4   S    
C79   C106  A    
C86   C115  A    
C78   H22   S    
C6    C14   A    
C7    C13   A    
O9    Zn15  S    
C41   C47   A    
C26   N2    A    
C42   C48   A    
C94   F6    S    
C143  H7    S    
C137  C144  A    
C23   N15   A    
O22   Zn10  S    
C29   C37   A    
C86   C102  A    
O33   Zn15  S    
C73   C112  A    
C69   O33   A    
N4    N16   A    
C75   C110  A    
C58   O40   A    
O3    Zn13  S    
C129  C145  A    
C59   O37   A    
C77   C108  A    
O11   Zn13  S    
O8    Zn10  S    
O14   Zn2   S    
O3    Zn7   S    
C60   O24   A    
C140  H4    S    
C141  H5    S    
C139  H3    S    
C10   H46   S    
C112  C121  A    
C64   O42   A    
O12   Zn14  S    
C100  C101  A    
C79   H23   S    
C80   H24   S    
O51   Zn5   S    
C38   C46   A    
C145  C152  A    
C2    O6    A    
C71   C131  S    
C146  C151  A    
C153  H33   S    
C61   O25   A    
C21   N11   A    
O1    Zn1   S    
C41   F21   S    
C4    C47   S    
C24   C52   S    
C63   O27   A    
N1    N13   A    
O32   Zn16  S    
C53   O15   A    
C85   C101  A    
C55   O19   A    
C82   H26   S    
C72   O50   A    
C156  H36   S    
O47   Zn5   S    
C98   C103  A    
C23   N13   A    
O15   Zn3   S    
C37   F17   S    
O16   Zn4   S    
O10   Zn16  S    
C39   F19   S    
C40   F20   S    
C22   C50   S    
O34   Zn14  S    
C159  H39   S    
C30   C50   A    
C83   C99   A    
C27   N7    A    
C29   Br1   S    
C82   C119  A    
C31   C49   A    
O3    Zn5   S    
C21   C49   S    
O50   Zn6   S    
C102  F14   S    
C145  H9    S    
C151  H15   S    
O2    Zn10  S    
C58   O22   A    
C122  C138  A    
C74   C111  A    
C34   Br6   S    
C126  C142  A    
C78   C107  A    
C67   C135  S    
C79   C95   A    
N7    N11   A    
N8    N12   A    
O37   Zn3   S    
C9    C157  A    
O38   Zn4   S    
O1    Zn3   S    
C12   C160  A    
C6    C154  A    
C83   H27   S    
C84   H28   S    
C17   C53   S    
C87   H31   S    
O4    Zn6   S    
C88   H32   S    
C22   N12   A    
C57   O39   A    
C55   O17   A    
C124  C140  A    
C76   H20   S    
C63   C123  S    
C24   N14   A    
C33   C51   A    
C92   F4    S    
C34   C52   A    
C19   C159  A    
C68   C134  S    
C73   C89   A    
C57   C125  S    
C89   F1    S    
C135  C151  A    
C91   F3    S    
C92   C93   A    
C157  H37   S    
C97   C104  A    
C155  H35   S    
C67   O45   A    
C70   O34   A    
C99   C102  A    
C7    C155  A    
O6    Zn12  S    
C27   N5    A    
O7    Zn9   S    
O4    Zn14  S    
C71   O35   A    
C16   C28   S    
C160  H40   S    
C81   C120  A    
C104  F16   S    
C144  H8    S    
C12   H48   S    
C83   C118  A    
C6    H42   S    
C64   C122  S    
C134  C150  A    
C116  C117  A    
C96   F8    S    
C87   C114  A    
O19   Zn7   S    
C158  H38   S    
C113  C136  A    
O40   Zn2   S    
C114  C135  A    
C108  C125  A    
C80   C96   A    
C73   H17   S    
O4    Zn8   S    
C22   N10   A    
C13   C25   S    
C8    C156  A    
C81   H25   S    
C147  H11   S    
C24   N16   A    
C28   N6    A    
O49   Zn7   S    
C133  C149  A    
C148  C149  A    
C43   F23   S    
O31   Zn15  S    
O24   Zn12  S    
N5    N9    A    
O41   Zn3   S    
O39   Zn1   S    
C80   C105  A    
O43   Zn1   S    
C38   F18   S    
O1    Zn9   S    
C68   O46   A    
C63   O41   A    
C68   O32   A    
C23   C51   S    
O4    Zn16  S    
O2    Zn4   S    
C25   N1    A    
C30   Br2   S    
C32   C50   A    
C76   C92   A    
C150  H14   S    
C72   O36   A    
C103  F15   S    
C146  H10   S    
C66   C136  S    
C97   F9    S    
C142  H6    S    
C99   F11   S    
C77   C93   A    
C35   Br7   S    
C8    C14   A    
C105  C128  A    
C132  C148  A    
C95   F7    S    
O29   Zn13  S    
C107  C126  A    
O17   Zn5   S    
C18   C154  A    
C59   O23   A    
C109  C124  A    
C72   C130  S    
C19   C55   S    
C60   C126  S    
C54   O16   A    
C9    H45   S    
C81   C97   A    
C5    C153  A    
C148  H12   S    
C31   C39   A    
C149  H13   S    
C32   C40   A    
C65   O47   A    
C2    O8    A    
C66   O48   A    
C18   C54   S    
C154  H34   S    
C1    O5    A    
O5    Zn11  S    
O25   Zn11  S    
C65   C133  S    
