data_mof_unit_36429.cif
_audit_creation_date              2012-12-11T15:34:57-0500
_audit_creation_method            fapswitch 2.2
_symmetry_space_group_name_H-M    P1
_symmetry_Int_Tables_number       1
_space_group_crystal_system       triclinic
_cell_length_a                    30.379331
_cell_length_b                    7.254523
_cell_length_c                    26.033322
_cell_angle_alpha                 89.800272
_cell_angle_beta                  112.339118
_cell_angle_gamma                 90.165356
_cell_volume                      5306.78949749

loop_
_atom_site_label
_atom_site_type_symbol
_atom_type_description
_atom_site_fract_x
_atom_site_fract_y
_atom_site_fract_z
_atom_type_partial_charge
O1    O     O_R   0.295360 0.592990 0.320420 -0.534917
O2    O     O_R   0.704640 0.407010 0.679580 -0.537461
O3    O     O_R   0.204640 0.092990 0.179580 -0.534988
O4    O     O_R   0.795360 0.907010 0.820420 -0.537014
O5    O     O_R   0.294060 0.265620 0.213230 -0.540821
O6    O     O_R   0.705940 0.734380 0.786770 -0.540612
O7    O     O_R   0.205940 0.765620 0.286770 -0.541740
O8    O     O_R   0.794060 0.234380 0.713230 -0.541792
C1    C     C_R   0.304325 0.432618 0.199678 0.741195
C2    C     C_R   0.695720 0.567210 0.800351 0.739841
C3    C     C_R   0.195702 0.931923 0.300405 0.741624
C4    C     C_R   0.804108 0.068119 0.699435 0.737925
O9    O     O_R   0.300850 0.263360 0.322080 -0.519672
O10   O     O_R   0.699150 0.736640 0.677920 -0.518220
O11   O     O_R   0.199150 0.763360 0.177920 -0.519611
O12   O     O_R   0.800850 0.236640 0.822080 -0.518149
O13   O     O_R   0.211480 0.091820 0.289210 -0.535821
O14   O     O_R   0.788520 0.908180 0.710790 -0.533061
O15   O     O_R   0.288520 0.591820 0.210790 -0.536278
O16   O     O_R   0.711480 0.408180 0.789210 -0.534470
C5    C     C_R   0.313357 0.431491 0.343308 0.781225
C6    C     C_R   0.686704 0.568528 0.656659 0.780863
C7    C     C_R   0.186630 0.931690 0.156691 0.781508
C8    C     C_R   0.813306 0.068331 0.843334 0.781616
O17   O     O_3   0.220670 0.426670 0.239090 -0.379294
O18   O     O_3   0.779330 0.573330 0.760910 -0.378971
O19   O     O_3   0.279330 0.926670 0.260910 -0.378945
O20   O     O_3   0.720670 0.073330 0.739090 -0.379408
V1    V     V_3+5 0.255440 0.152290 0.252020 1.542218
V2    V     V_3+5 0.744560 0.847710 0.747980 1.547694
V3    V     V_3+5 0.244560 0.652290 0.247980 1.541527
V4    V     V_3+5 0.755440 0.347710 0.752020 1.546148
C9    C     C_R   0.849613 0.061466 0.900511 -0.203575
C10   C     C_R   0.150134 0.938665 0.099593 -0.202336
C11   C     C_R   0.650391 0.562392 0.599474 -0.202874
C12   C     C_R   0.349842 0.437711 0.400406 -0.202452
C13   C     C_R   0.871286 0.081954 0.000401 0.441373
C14   C     C_R   0.128107 0.918289 0.999642 0.443033
C15   C     C_R   0.628617 0.587362 0.499610 0.441966
C16   C     C_R   0.371945 0.412796 0.500316 0.441484
C17   C     C_R   0.837007 0.097382 0.945974 0.313101
C18   C     C_R   0.162489 0.902276 0.053971 0.316584
C19   C     C_R   0.662925 0.601368 0.554048 0.312614
C20   C     C_R   0.337538 0.398247 0.445972 0.315320
C21   C     C_R   0.897450 0.029790 0.909501 -0.150252
C22   C     C_R   0.102358 0.971193 0.090820 -0.151303
C23   C     C_R   0.602583 0.528974 0.590470 -0.150484
C24   C     C_R   0.397592 0.471895 0.409203 -0.151032
C25   C     C_R   0.933431 0.032639 0.963649 0.039166
C26   C     C_R   0.066238 0.968868 0.036742 0.039279
C27   C     C_R   0.566559 0.533252 0.536354 0.038566
C28   C     C_R   0.433747 0.468080 0.463250 0.039579
C29   C     C_R   0.918846 0.028981 0.009375 -0.187719
C30   C     C_R   0.080692 0.972318 0.990910 -0.188682
C31   C     C_R   0.581090 0.532809 0.490580 -0.186353
C32   C     C_R   0.419338 0.468338 0.509120 -0.189784
C33   C     C_R   0.983190 0.027707 0.973522 -0.085972
C34   C     C_R   0.016488 0.974415 0.026980 -0.085158
C35   C     C_R   0.516811 0.526782 0.526529 -0.086014
C36   C     C_R   0.483486 0.475128 0.472969 -0.085626
C37   C     C_R   0.998457 0.918340 0.067613 0.333388
C38   C     C_R   0.001197 0.084219 0.932921 0.332954
C39   C     C_R   0.501485 0.422097 0.432169 0.334006
C40   C     C_R   0.498832 0.580258 0.567296 0.332379
C41   C     C_R   0.951212 0.958886 0.060734 0.412490
C42   C     C_R   0.048376 0.043325 0.939679 0.413263
C43   C     C_R   0.548704 0.464257 0.439081 0.413670
C44   C     C_R   0.451674 0.537788 0.560493 0.412525
H1    H     H_    0.094014 0.003725 0.126581 0.178775
H2    H     H_    0.905973 0.997627 0.873836 0.178476
H3    H     H_    0.405891 0.506695 0.373488 0.179090
H4    H     H_    0.594115 0.494526 0.626095 0.178692
C45   C     C_R   0.087763 0.029241 0.474024 0.584704
C46   C     C_R   0.904313 0.970245 0.519779 0.621098
C47   C     C_R   0.413367 0.397690 0.026941 0.631068
C48   C     C_R   0.592638 0.567973 0.980220 0.587405
N1    N     N_R   0.070035 0.967430 0.420618 -0.533140
N2    N     N_R   0.923283 0.037413 0.572442 -0.537033
N3    N     N_R   0.428381 0.472988 0.078583 -0.536612
N4    N     N_R   0.575015 0.509566 0.926271 -0.536634
C49   C     C_R   0.022744 0.927429 0.394649 0.670323
C50   C     C_R   0.968868 0.100064 0.594507 0.646636
C51   C     C_R   0.471619 0.557079 0.101491 0.645124
C52   C     C_R   0.529563 0.443916 0.903039 0.661430
C53   C     C_R   0.992059 0.924289 0.424909 -0.094720
C54   C     C_R   0.996768 0.112419 0.561466 -0.096570
C55   C     C_R   0.500860 0.581735 0.070211 -0.092985
C56   C     C_R   0.503768 0.401089 0.936823 -0.085074
C57   C     C_R   0.009477 0.006793 0.478546 -0.074124
C58   C     C_R   0.979809 0.021351 0.509227 -0.062813
C59   C     C_R   0.488155 0.483657 0.019455 -0.069217
C60   C     C_R   0.517986 0.490291 0.988993 -0.084807
C61   C     C_R   0.056853 0.075718 0.501446 -0.065252
C62   C     C_R   0.933313 0.943677 0.488291 -0.084184
C63   C     C_R   0.445022 0.380854 0.998740 -0.082111
C64   C     C_R   0.562123 0.585966 0.010189 -0.071188
C65   C     C_R   0.945609 0.840657 0.404154 0.093119
C66   C     C_R   0.040135 0.215034 0.578504 0.094462
C67   C     C_R   0.541535 0.701004 0.087601 0.086021
C68   C     C_R   0.465507 0.271459 0.920893 0.114594
C69   C     C_R   0.917511 0.841829 0.437511 0.096608
C70   C     C_R   0.071077 0.193649 0.549111 0.119519
C71   C     C_R   0.573395 0.698299 0.058769 0.112606
C72   C     C_R   0.435693 0.261859 0.952049 0.107400
O21   O     O_2   0.135305 0.041484 0.500401 -0.508285
O22   O     O_2   0.857341 0.933475 0.498304 -0.506428
O23   O     O_2   0.367557 0.344392 0.002982 -0.507263
O24   O     O_2   0.639475 0.604736 0.004391 -0.508131
O25   O     O_2   0.006094 0.893769 0.339781 -0.484578
O26   O     O_2   0.987144 0.144490 0.648757 -0.489055
O27   O     O_2   0.486274 0.611169 0.154806 -0.490137
O28   O     O_2   0.508799 0.430969 0.847361 -0.484765
C73   C     C_R   0.888619 0.888116 0.634363 0.447101
C74   C     C_R   0.108987 0.787571 0.367427 0.451136
C75   C     C_R   0.613004 0.369180 0.865522 0.453949
C76   C     C_R   0.392928 0.295939 0.135082 0.441913
C77   C     C_R   0.859326 0.896069 0.664927 -0.170198
C78   C     C_R   0.139492 0.780673 0.338338 -0.174044
C79   C     C_R   0.642222 0.385558 0.835148 -0.162039
C80   C     C_R   0.362435 0.286437 0.164130 -0.177176
H5    H     H_    0.855368 0.773902 0.686839 0.170307
H6    H     H_    0.144543 0.650038 0.321324 0.174205
H7    H     H_    0.648429 0.264297 0.814689 0.173768
H8    H     H_    0.359154 0.157007 0.183245 0.174119
C81   C     C_R   0.835780 0.060492 0.667726 -0.112847
C82   C     C_R   0.163191 0.939786 0.331197 -0.124956
C83   C     C_R   0.663430 0.554870 0.831267 -0.123460
C84   C     C_R   0.336869 0.442642 0.169000 -0.122880
C85   C     C_R   0.842147 0.216789 0.639070 -0.119030
C86   C     C_R   0.155925 0.106083 0.354429 -0.114161
C87   C     C_R   0.654572 0.708610 0.858582 -0.111255
C88   C     C_R   0.342619 0.608791 0.144048 -0.115520
H9    H     H_    0.824311 0.345160 0.639887 0.178271
H10   H     H_    0.173786 0.231434 0.350383 0.184370
H11   H     H_    0.670708 0.840819 0.857109 0.183049
H12   H     H_    0.323601 0.731924 0.146816 0.186219
C89   C     C_R   0.870783 0.208067 0.607870 -0.092814
C90   C     C_R   0.125882 0.112696 0.383892 -0.091059
C91   C     C_R   0.625715 0.692088 0.889477 -0.075762
C92   C     C_R   0.372555 0.617730 0.114452 -0.092328
H13   H     H_    0.874484 0.328409 0.585160 0.184410
H14   H     H_    0.121722 0.241200 0.402197 0.196527
H15   H     H_    0.620446 0.810574 0.911397 0.193905
H16   H     H_    0.375796 0.745732 0.094725 0.190532
C93   C     C_R   0.894215 0.044377 0.605291 0.298712
C94   C     C_R   0.101557 0.955001 0.390360 0.292200
C95   C     C_R   0.604305 0.523245 0.893270 0.277609
C96   C     C_R   0.397904 0.462036 0.109707 0.298679
Cl1   Cl    Cl    0.931708 0.882118 0.113340 -0.387247
Cl2   Cl    Cl    0.067927 0.120809 0.887180 -0.387134
Cl3   Cl    Cl    0.568158 0.391370 0.386236 -0.395128
Cl4   Cl    Cl    0.432162 0.611486 0.613212 -0.375249
Cl5   Cl    Cl    0.221855 0.842447 0.064997 -0.568392
Cl6   Cl    Cl    0.777458 0.156062 0.934564 -0.551337
Cl7   Cl    Cl    0.278201 0.336296 0.434857 -0.562744
Cl8   Cl    Cl    0.722423 0.662175 0.565498 -0.558319
Cl9   Cl    Cl    0.854669 0.157046 0.055115 -0.393111
Cl10  Cl    Cl    0.144341 0.842544 0.944697 -0.393440
Cl11  Cl    Cl    0.645146 0.666190 0.445014 -0.406832
Cl12  Cl    Cl    0.355782 0.333333 0.555125 -0.383875
Cl13  Cl    Cl    0.030604 0.762909 0.121778 -0.542675
Cl14  Cl    Cl    0.969101 0.240547 0.879003 -0.538628
Cl15  Cl    Cl    0.469344 0.268353 0.377670 -0.543461
Cl16  Cl    Cl    0.530923 0.734898 0.621553 -0.539094
C97   C     C_3   0.926664 0.739090 0.348350 -0.306544
C98   C     C_3   0.950468 0.551286 0.352123 -0.594659
H17   H     H_    0.938822 0.488746 0.310171 0.251586
H18   H     H_    0.989626 0.564065 0.369226 0.281001
H19   H     H_    0.940436 0.457088 0.379590 0.185294
H20   H     H_    0.888058 0.714597 0.332416 0.171747
H21   H     H_    0.928800 0.824913 0.314254 0.249742
C99   C     C_3   0.049821 0.366740 0.622278 -0.333689
C100  C     C_3   0.085561 0.306691 0.679515 -0.547928
H22   H     H_    0.091949 0.422914 0.709124 0.238512
H23   H     H_    0.072074 0.187729 0.696007 0.278933
H24   H     H_    0.120105 0.264992 0.678045 0.192931
H25   H     H_    0.062086 0.495063 0.608542 0.167828
H26   H     H_    0.016619 0.415563 0.625976 0.241881
C101  C     C_3   0.547150 0.849597 0.131326 -0.328274
C102  C     C_3   0.581268 0.791477 0.189645 -0.542194
H27   H     H_    0.580901 0.897389 0.220161 0.246564
H28   H     H_    0.570899 0.657230 0.202119 0.272614
H29   H     H_    0.618294 0.776931 0.192159 0.186471
H30   H     H_    0.558763 0.982646 0.119475 0.170039
H31   H     H_    0.512283 0.889397 0.132207 0.255882
C103  C     C_3   0.462792 0.118267 0.879180 -0.284067
C104  C     C_3   0.496070 0.959331 0.907873 -0.710656
H32   H     H_    0.492901 0.848079 0.877480 0.256053
H33   H     H_    0.533344 0.008470 0.924973 0.258042
H34   H     H_    0.487417 0.901318 0.942420 0.205639
H35   H     H_    0.426353 0.063989 0.858068 0.181498
H36   H     H_    0.471242 0.163602 0.843683 0.270576
C105  C     C_3   0.874099 0.714172 0.422676 -0.318543
C106  C     C_3   0.827618 0.808244 0.385329 -0.572932
H37   H     H_    0.796922 0.735905 0.389600 0.245811
H38   H     H_    0.826731 0.955299 0.396470 0.252523
H39   H     H_    0.822747 0.803090 0.340997 0.189221
H40   H     H_    0.878914 0.584761 0.402985 0.162457
H41   H     H_    0.870741 0.659006 0.460812 0.224030
C107  C     C_3   0.116238 0.312978 0.564589 -0.342394
C108  C     C_3   0.111378 0.458616 0.520180 -0.606941
H42   H     H_    0.143746 0.546598 0.533554 0.248839
H43   H     H_    0.107197 0.393639 0.480223 0.260139
H44   H     H_    0.080035 0.547719 0.513841 0.210258
H45   H     H_    0.125527 0.388583 0.603839 0.178238
H46   H     H_    0.148559 0.228719 0.573771 0.248999
C109  C     C_3   0.616749 0.827965 0.077057 -0.312296
C110  C     C_3   0.609979 0.988486 0.036501 -0.658472
H47   H     H_    0.640445 0.085463 0.053222 0.247118
H48   H     H_    0.608319 0.939732 0.995569 0.247643
H49   H     H_    0.576763 0.064507 0.030933 0.206218
H50   H     H_    0.625024 0.890051 0.118124 0.172491
H51   H     H_    0.650157 0.752572 0.084470 0.243755
C111  C     C_3   0.397540 0.111200 0.939060 -0.330247
C112  C     C_3   0.351266 0.168060 0.891776 -0.586816
H52   H     H_    0.324106 0.058368 0.885137 0.232052
H53   H     H_    0.337192 0.298537 0.901480 0.266409
H54   H     H_    0.356874 0.188804 0.852492 0.206409
H55   H     H_    0.409945 0.978531 0.928647 0.168010
H56   H     H_    0.390470 0.070648 0.976259 0.232024
Cl17  Cl    Cl    0.918546 0.681854 0.633471 -0.629290
Cl18  Cl    Cl    0.081886 0.582336 0.375678 -0.699559
Cl19  Cl    Cl    0.589646 0.150851 0.869387 -0.673493
Cl20  Cl    Cl    0.425335 0.098999 0.131800 -0.652584

loop_
_geom_bond_atom_site_label_1
_geom_bond_atom_site_label_2
_ccdc_geom_bond_type
C99   H25   S    
O17   V3    S    
C67   C71   A    
O1    C5    A    
C97   C98   S    
C55   C59   A    
O19   V1    S    
C9    C21   A    
C108  H42   S    
C46   C62   A    
O3    C7    A    
C10   C18   A    
C45   C61   A    
C40   Cl16  S    
C11   C23   A    
C92   C96   A    
C48   O24   S    
C47   C63   A    
C33   C38   A    
C5    C12   S    
C38   Cl14  S    
C100  H22   S    
C63   C72   A    
C47   O23   S    
C6    C11   S    
C56   C68   A    
C91   C95   A    
C35   C40   A    
C107  H45   S    
C36   C39   A    
C37   Cl13  S    
C50   O26   S    
C89   C93   A    
C71   C109  S    
C14   C18   A    
C87   H11   S    
C111  H55   S    
C112  H53   S    
O16   V4    S    
C99   C100  S    
O4    C8    A    
C65   C97   S    
C106  H39   S    
C82   C86   A    
C13   Cl9   S    
C105  H40   S    
C75   C95   A    
O1    V3    S    
O13   V1    S    
C31   C43   A    
O2    V4    S    
C78   H6    S    
C73   C93   A    
C103  H35   S    
O3    V1    S    
C77   H5    S    
C22   H1    S    
C28   C36   A    
N2    C93   S    
C91   H15   S    
C1    O15   A    
C68   C72   A    
C15   C31   A    
C88   C92   A    
C56   C60   A    
C62   C69   A    
C2    O16   A    
C107  C108  S    
C104  H34   S    
O2    C6    A    
C74   C94   A    
C10   C22   A    
N1    C49   A    
C69   C105  S    
C11   C19   A    
C39   Cl15  S    
C16   C20   A    
C55   C67   A    
C102  H29   S    
O8    C4    A    
C51   C55   A    
C13   C29   A    
C34   C37   A    
O11   C7    A    
C106  H37   S    
O15   V3    S    
C35   C36   A    
O12   C8    A    
C98   H18   S    
C108  H43   S    
C86   H10   S    
O10   V2    S    
C84   C88   A    
C102  H28   S    
C58   C62   A    
O5    V1    S    
C100  H23   S    
C60   C64   A    
C39   C43   A    
C1    C84   S    
O7    V3    S    
C38   C42   A    
C43   Cl3   S    
C109  C110  S    
O8    V4    S    
C103  H36   S    
C52   C56   A    
C3    C82   S    
C53   C65   A    
C14   Cl10  S    
C54   C58   A    
C112  H54   S    
C59   C60   A    
C76   C96   A    
C53   C57   A    
C111  C112  S    
C110  H47   S    
C23   C27   A    
C4    C81   S    
C16   C32   A    
C105  H41   S    
C57   C61   A    
O4    V2    S    
C76   C80   A    
C80   H8    S    
C26   C34   A    
C76   Cl20  S    
O7    C3    A    
C112  H52   S    
C67   C101  S    
C44   Cl4   S    
C66   C70   A    
C46   O22   S    
N2    C50   A    
C45   O21   S    
C14   C30   A    
C21   C25   A    
C88   H12   S    
C7    C10   S    
C65   C69   A    
C18   Cl5   S    
C106  H38   S    
O9    C5    A    
C52   O28   S    
C74   Cl18  S    
O11   V3    S    
C73   Cl17  S    
C74   C78   A    
C97   H21   S    
C73   C77   A    
C99   H26   S    
O6    V2    S    
C49   O25   S    
C85   H9    S    
C75   C79   A    
C66   C99   S    
C90   H14   S    
C98   H17   S    
C108  H44   S    
C51   O27   S    
C12   C20   A    
C27   C35   A    
C24   H3    S    
C2    C83   S    
C86   C90   A    
C40   C44   A    
C29   C41   A    
C102  H27   S    
C77   C81   A    
C17   Cl6   S    
C101  H30   S    
C100  H24   S    
O9    V1    S    
C97   H20   S    
C89   H13   S    
C3    O13   A    
C107  H46   S    
C15   Cl11  S    
C21   H2    S    
C20   Cl7   S    
C16   Cl12  S    
C70   C107  S    
C48   N4    A    
O5    C1    A    
N4    C95   S    
C61   C70   A    
O6    C2    A    
C25   C33   A    
C15   C19   A    
C80   C84   A    
C42   Cl2   S    
N3    C96   S    
C30   C42   A    
C79   H7    S    
O12   V4    S    
C22   C26   A    
C8    C9    S    
C68   C103  S    
C9    C17   A    
O10   C6    A    
C92   H16   S    
C103  C104  S    
C72   C111  S    
C104  H32   S    
C26   C30   A    
C109  H51   S    
C32   C44   A    
C48   C64   A    
N4    C52   A    
C50   C54   A    
C33   C34   A    
C109  H50   S    
C28   C32   A    
C90   C94   A    
C110  H49   S    
C25   C29   A    
O20   V2    S    
C101  H31   S    
C12   C24   A    
C27   C31   A    
C37   C41   A    
C13   C17   A    
C54   C66   A    
C83   C87   A    
C23   H4    S    
C104  H33   S    
C87   C91   A    
C75   Cl19  S    
O14   V2    S    
C59   C63   A    
C101  C102  S    
N3    C51   A    
C81   C85   A    
C24   C28   A    
C85   C89   A    
C98   H19   S    
C110  H48   S    
C105  C106  S    
C46   N2    A    
C64   C71   A    
C4    O14   A    
C41   Cl1   S    
C45   N1    A    
C111  H56   S    
C78   C82   A    
C57   C58   A    
C47   N3    A    
N1    C94   S    
O18   V4    S    
C49   C53   A    
C19   Cl8   S    
C79   C83   A    
