data_mof_unit_5541.cif
_audit_creation_date              2012-12-10T17:12:02-0500
_audit_creation_method            fapswitch 2.2
_symmetry_space_group_name_H-M    P1
_symmetry_Int_Tables_number       1
_space_group_crystal_system       triclinic
_cell_length_a                    11.652745
_cell_length_b                    12.988325
_cell_length_c                    15.867668
_cell_angle_alpha                 92.42859
_cell_angle_beta                  74.472403
_cell_angle_gamma                 100.106396
_cell_volume                      2277.98217242

loop_
_atom_site_label
_atom_site_type_symbol
_atom_type_description
_atom_site_fract_x
_atom_site_fract_y
_atom_site_fract_z
_atom_type_partial_charge
C1    C     C_R   0.522359 0.700962 0.498733 0.821716
C2    C     C_R   0.477685 0.299041 0.501128 0.822287
C3    C     C_R   0.348450 0.454167 0.086618 -0.179236
C4    C     C_R   0.632319 0.450122 0.915871 -0.207548
C5    C     C_R   0.265652 0.441668 0.036450 -0.229515
C6    C     C_R   0.712480 0.445259 0.965955 -0.233469
C7    C     C_R   0.462452 0.185348 0.506032 -0.086327
C8    C     C_R   0.537560 0.814641 0.493564 -0.091920
C9    C     C_R   0.661716 0.986319 0.462976 -0.270400
C10   C     C_R   0.338170 0.013688 0.536528 -0.266749
C11   C     C_R   0.653038 0.877830 0.465427 0.248361
C12   C     C_R   0.346975 0.122243 0.534516 0.247888
C13   C     C_R   0.433469 0.860581 0.516612 -0.304730
C14   C     C_R   0.566445 0.139355 0.482465 -0.308987
C15   C     C_R   0.442510 0.968361 0.512982 0.136183
C16   C     C_R   0.557372 0.031593 0.486165 0.138502
C17   C     C_R   0.940284 0.595785 0.583876 0.148977
C18   C     C_R   0.057800 0.400325 0.419425 0.152667
C19   C     C_R   0.822758 0.587977 0.573507 0.004543
C20   C     C_R   0.177253 0.411862 0.426590 0.005928
C21   C     C_R   0.858172 0.457309 0.465581 0.017960
C22   C     C_R   0.141275 0.541523 0.535395 0.017144
C23   C     C_R   0.427565 0.496084 0.668249 0.813574
C24   C     C_R   0.572572 0.506283 0.331901 0.794952
C25   C     C_R   0.978223 0.462819 0.471660 -0.022464
C26   C     C_R   0.020111 0.533775 0.531222 -0.022281
C27   C     C_R   0.385106 0.487297 0.764322 -0.094259
C28   C     C_R   0.613260 0.502409 0.235940 -0.098412
C29   C     C_R   0.222031 0.443887 0.895689 -0.198749
C30   C     C_R   0.760768 0.460364 0.105442 -0.202318
C31   C     C_R   0.261790 0.456472 0.805219 -0.261340
C32   C     C_R   0.726581 0.475687 0.195397 -0.243346
C33   C     C_R   0.469020 0.505370 0.815437 0.195521
C34   C     C_R   0.534654 0.516284 0.184522 0.177900
C35   C     C_R   0.431258 0.475478 0.904589 0.037319
C36   C     C_R   0.560802 0.483712 0.096469 0.045787
C37   C     C_R   0.305752 0.453695 0.945765 0.121134
C38   C     C_R   0.678639 0.463480 0.055740 0.122038
C39   C     C_R   0.514235 0.469526 0.954683 0.076991
C40   C     C_R   0.474207 0.472746 0.046930 0.078146
Cu1   Cu    Cu3+1 0.386820 0.492450 0.493500 0.936669
Cu2   Cu    Cu3+1 0.613180 0.507550 0.506500 0.942858
H1    H     H_    0.169902 0.424019 0.068894 0.139647
H2    H     H_    0.801567 0.427893 0.934140 0.140331
H3    H     H_    0.238603 0.364299 0.386835 0.130779
H4    H     H_    0.761982 0.636573 0.612329 0.144488
H5    H     H_    0.788823 0.466264 0.233293 0.169446
H6    H     H_    0.195749 0.443655 0.767419 0.164837
H7    H     H_    0.125902 0.424239 0.926327 0.135805
H8    H     H_    0.850063 0.442508 0.075143 0.137129
H9    H     H_    0.312392 0.440725 0.156078 0.142529
H10   H     H_    0.661154 0.430698 0.847613 0.146657
H11   H     H_    0.654944 0.187568 0.460493 0.161006
H12   H     H_    0.344885 0.812355 0.538316 0.167420
H13   H     H_    0.749948 0.034985 0.441640 0.134518
H14   H     H_    0.249921 0.965002 0.558117 0.137400
H15   H     H_    0.176311 0.596053 0.579591 0.165616
H16   H     H_    0.824004 0.404413 0.419985 0.163229
N1    N     N_R   0.216750 0.481110 0.483710 -0.198417
N2    N     N_R   0.783250 0.518890 0.516290 -0.198805
O1    O     O_R   0.419950 0.645670 0.495380 -0.595568
O2    O     O_R   0.580050 0.354330 0.504620 -0.597891
O3    O     O_R   0.611110 0.658410 0.506370 -0.546446
O4    O     O_R   0.388890 0.341590 0.493630 -0.547955
O5    O     O_R   0.350820 0.490050 0.621260 -0.591044
O6    O     O_R   0.649180 0.509950 0.378740 -0.586255
O7    O     O_R   0.541970 0.502800 0.632250 -0.575139
O8    O     O_R   0.458030 0.497200 0.367750 -0.590325
N3    N     N_2   0.976848 0.665932 0.646887 -0.448070
H17   H     H_    0.937149 0.732016 0.655813 0.247870
C41   C     C_3   0.967027 0.616762 0.729277 -0.722378
H18   H     H_    0.870910 0.585365 0.761756 0.226046
H19   H     H_    0.002858 0.675339 0.772969 0.233986
H20   H     H_    0.020248 0.552094 0.719121 0.231117
N4    N     N_2   0.019208 0.326463 0.359592 -0.447060
H21   H     H_    0.086347 0.318575 0.303383 0.243928
C42   C     C_3   0.958474 0.226188 0.398735 -0.732068
H22   H     H_    0.022280 0.187151 0.421725 0.227810
H23   H     H_    0.924408 0.175588 0.349430 0.226464
H24   H     H_    0.880303 0.235763 0.454832 0.231307
N5    N     N_2   0.440752 0.576896 0.215719 -0.436879
H25   H     H_    0.367211 0.543363 0.264177 0.265960
C43   C     C_3   0.480713 0.687003 0.228059 -0.641522
H26   H     H_    0.402204 0.728522 0.241423 0.223751
H27   H     H_    0.548194 0.721162 0.168021 0.228868
H28   H     H_    0.521009 0.698802 0.284437 0.209020
N6    N     N_2   0.584647 0.567813 0.780167 -0.431791
H29   H     H_    0.654816 0.532465 0.744679 0.252656
C44   C     C_3   0.613568 0.668264 0.819505 -0.679219
H30   H     H_    0.681034 0.664495 0.856649 0.228674
H31   H     H_    0.531746 0.692512 0.864252 0.236190
H32   H     H_    0.652857 0.728126 0.767114 0.222031
N7    N     N_2   0.239872 0.166983 0.562552 -0.412344
H33   H     H_    0.164796 0.121134 0.549633 0.238150
C45   C     C_3   0.215451 0.203769 0.651926 -0.646867
H34   H     H_    0.135922 0.244137 0.666266 0.219817
H35   H     H_    0.293777 0.260208 0.662368 0.225997
H36   H     H_    0.195626 0.136778 0.697888 0.209439
N8    N     N_2   0.760387 0.833333 0.438427 -0.413966
H37   H     H_    0.834838 0.879455 0.452019 0.239301
C46   C     C_3   0.786511 0.796758 0.349012 -0.647212
H38   H     H_    0.867179 0.757901 0.335065 0.225361
H39   H     H_    0.805275 0.863632 0.303062 0.207803
H40   H     H_    0.709493 0.739033 0.338211 0.221847

loop_
_geom_bond_atom_site_label_1
_geom_bond_atom_site_label_2
_ccdc_geom_bond_type
N6    H29   S    
C17   N3    S    
C18   N4    S    
C5    C37   A    
C1    C8    S    
Cu1   Cu2   S    
C2    C7    S    
Cu1   O1    S    
C22   H15   S    
N5    H25   S    
C19   H4    S    
C29   H7    S    
C42   H22   S    
C27   C33   A    
N7    H33   S    
C4    H10   S    
C43   H26   S    
C17   C26   A    
C35   C37   A    
C9    C16   A    
C10   C15   A    
C15   C16   A    
C30   C38   A    
C11   N8    S    
C23   O7    A    
N3    C41   S    
C17   C19   A    
C7    C14   A    
C45   H34   S    
C6    C38   A    
C9    H13   S    
C34   N5    S    
C23   C27   S    
C44   H31   S    
C10   H14   S    
Cu2   O2    S    
C18   C20   A    
C20   H3    S    
C24   O6    A    
C30   H8    S    
C28   C34   A    
N7    C45   S    
C6    H2    S    
C18   C25   A    
C1    O3    A    
N5    C43   S    
C2    O4    A    
Cu1   O8    S    
C42   H23   S    
C7    C12   A    
C45   H36   S    
C27   C31   A    
C46   H38   S    
C28   C32   A    
Cu1   N1    S    
C21   N2    A    
C4    C6    A    
Cu2   N2    S    
C22   N1    A    
C41   H19   S    
C3    H9    S    
Cu1   O5    S    
C25   C26   A    
C44   H32   S    
C35   C39   A    
N4    H21   S    
C9    C11   A    
N8    H37   S    
C4    C39   A    
C36   C40   A    
C14   H11   S    
C20   N1    A    
N4    C42   S    
C10   C12   A    
C43   H27   S    
C3    C40   A    
C46   H40   S    
C31   H6    S    
N6    C44   S    
Cu2   O7    S    
C32   H5    S    
C14   C16   A    
C12   N7    S    
C39   C40   A    
C13   H12   S    
C42   H24   S    
C21   C25   A    
N8    C46   S    
C24   C28   S    
C3    C5    A    
C1    O1    A    
C41   H20   S    
C45   H35   S    
C19   N2    A    
C23   O5    A    
C13   C15   A    
C33   N6    S    
C41   H18   S    
C29   C31   A    
C30   C32   A    
C8    C11   A    
C36   C38   A    
C33   C35   A    
C34   C36   A    
C5    H1    S    
N3    H17   S    
C24   O8    A    
C8    C13   A    
C21   H16   S    
C43   H28   S    
C46   H39   S    
C22   C26   A    
C29   C37   A    
Cu2   O6    S    
Cu1   O4    S    
C44   H30   S    
Cu2   O3    S    
C2    O2    A    
