data_mof_unit_20967.cif
_audit_creation_date              2012-12-11T14:03:20-0500
_audit_creation_method            fapswitch 2.2
_symmetry_space_group_name_H-M    P1
_symmetry_Int_Tables_number       1
_space_group_crystal_system       triclinic
_cell_length_a                    6.961382
_cell_length_b                    11.399173
_cell_length_c                    18.667717
_cell_angle_alpha                 89.975675
_cell_angle_beta                  93.077079
_cell_angle_gamma                 89.934663
_cell_volume                      1479.22105011

loop_
_atom_site_label
_atom_site_type_symbol
_atom_type_description
_atom_site_fract_x
_atom_site_fract_y
_atom_site_fract_z
_atom_type_partial_charge
O1    O     O_R   0.330540 0.606360 0.598870 -0.541611
O2    O     O_R   0.669460 0.106360 0.401130 -0.541806
O3    O     O_R   0.026770 0.620470 0.750430 -0.540776
O4    O     O_R   0.973230 0.120470 0.249570 -0.534693
O5    O     O_R   0.856460 0.393640 0.750930 -0.529080
O6    O     O_R   0.143540 0.893640 0.249070 -0.529766
C1    C     C_R   0.198733 0.646310 0.775547 0.798312
C2    C     C_R   0.800966 0.147067 0.224815 0.799105
O7    O     O_R   0.000920 0.620350 0.599420 -0.551198
O8    O     O_R   0.999080 0.120350 0.400580 -0.551152
O9    O     O_R   0.830430 0.393520 0.598850 -0.541976
O10   O     O_R   0.169570 0.893520 0.401150 -0.542144
C3    C     C_R   0.166523 0.647837 0.574536 0.753892
C4    C     C_R   0.833402 0.147817 0.425451 0.753226
O11   O     O_R   0.356570 0.606480 0.750960 -0.531046
O12   O     O_R   0.643430 0.106480 0.249040 -0.536985
O13   O     O_3   0.176990 0.425580 0.674890 -0.366978
O14   O     O_3   0.823010 0.925580 0.325110 -0.367075
V1    V     V_3+5 0.902170 0.513810 0.674910 1.459405
V2    V     V_3+5 0.097830 0.013810 0.325090 1.459019
O15   O     O_R   0.500800 0.379530 0.599380 -0.549494
O16   O     O_R   0.499200 0.879530 0.400620 -0.549977
C5    C     C_R   0.666499 0.352013 0.574548 0.748751
C6    C     C_R   0.333575 0.851994 0.425465 0.747551
O17   O     O_R   0.526650 0.379650 0.750390 -0.529070
O18   O     O_R   0.473350 0.879650 0.249610 -0.527711
C7    C     C_R   0.698892 0.351427 0.774291 0.708860
C8    C     C_R   0.301158 0.850901 0.226145 0.714636
V3    V     V_3+5 0.402160 0.486190 0.674900 1.470312
V4    V     V_3+5 0.597840 0.986190 0.325100 1.470168
O19   O     O_3   0.677210 0.574420 0.674910 -0.381070
O20   O     O_3   0.322790 0.074420 0.325090 -0.382001
C9    C     C_R   0.703774 0.058205 0.871360 -0.039918
C10   C     C_R   0.277045 0.557709 0.129792 -0.036622
C11   C     C_R   0.715473 0.261499 0.830632 -0.140702
C12   C     C_R   0.283666 0.761106 0.169991 -0.130973
C13   C     C_R   0.776488 0.344576 0.175273 -0.115659
C14   C     C_R   0.200240 0.843568 0.825110 -0.120196
C15   C     C_R   0.751235 0.423550 0.119157 -0.050083
C16   C     C_R   0.207855 0.922851 0.881197 -0.048293
C17   C     C_R   0.738988 0.383976 0.048686 -0.034585
C18   C     C_R   0.220603 0.883266 0.951634 -0.033907
C19   C     C_R   0.748184 0.262491 0.031955 0.070820
C20   C     C_R   0.237906 0.761713 0.968549 0.072691
C21   C     C_R   0.765114 0.180910 0.089849 0.015274
C22   C     C_R   0.238001 0.680301 0.910595 0.013157
C23   C     C_R   0.738298 0.220637 0.959496 -0.001570
C24   C     C_R   0.256342 0.720030 0.041100 -0.004941
C25   C     C_R   0.719362 0.097960 0.944809 -0.076159
C26   C     C_R   0.269846 0.597037 0.056096 -0.070739
C27   C     C_R   0.711622 0.019959 0.003829 0.277487
C28   C     C_R   0.279695 0.518298 0.997406 0.256109
C29   C     C_R   0.760119 0.059324 0.074344 0.184235
C30   C     C_R   0.266302 0.559531 0.925848 0.200431
C31   C     C_R   0.743243 0.298979 0.901157 -0.232054
C32   C     C_R   0.265626 0.798933 0.099399 -0.244948
C33   C     C_R   0.697894 0.141084 0.814843 0.277627
C34   C     C_R   0.284804 0.640627 0.186125 0.272262
C35   C     C_R   0.783055 0.224223 0.161876 -0.055952
C36   C     C_R   0.215104 0.723407 0.838491 -0.064492
H1    H     H_    0.767584 0.391600 0.908418 0.124663
H2    H     H_    0.264372 0.892541 0.092434 0.123625
H3    H     H_    0.788418 0.377555 0.229786 0.121939
H4    H     H_    0.182746 0.876274 0.770607 0.121486
H5    H     H_    0.715822 0.451490 0.008856 0.103959
H6    H     H_    0.215636 0.951698 0.991033 0.095567
H7    H     H_    0.742754 0.516584 0.130316 0.113295
H8    H     H_    0.196296 0.015931 0.870074 0.111093
C37   C     C_2   0.831821 0.233683 0.484779 -0.330724
C38   C     C_2   0.168111 0.733721 0.515179 -0.330412
H9    H     H_    0.968914 0.270617 0.503959 0.150020
H10   H     H_    0.030988 0.770734 0.495919 0.149644
C39   C     C_2   0.668105 0.266063 0.515271 -0.326397
C40   C     C_2   0.331959 0.766017 0.484766 -0.325339
H11   H     H_    0.531013 0.229121 0.496096 0.151251
H12   H     H_    0.469081 0.728996 0.504020 0.150812
O21   O     O_3   0.683040 0.100492 0.744724 -0.628468
H13   H     H_    0.696549 0.165324 0.710191 0.274739
O22   O     O_3   0.288112 0.600145 0.256292 -0.630560
H14   H     H_    0.283110 0.665887 0.290642 0.274080
O23   O     O_3   0.644958 0.907013 0.992911 -0.633874
H15   H     H_    0.601592 0.873997 0.038308 0.303370
O24   O     O_3   0.314316 0.400811 0.009585 -0.640767
H16   H     H_    0.231413 0.354938 0.975001 0.313493
C41   C     C_2   0.704751 0.931430 0.849846 0.887973
O25   O     O_2   0.809476 0.860958 0.882019 -0.547023
O26   O     O_R   0.594134 0.893745 0.789505 -0.644745
H17   H     H_    0.612019 0.807216 0.779115 0.290335
C42   C     C_2   0.269099 0.431671 0.152097 0.888802
O27   O     O_2   0.155770 0.364073 0.122007 -0.556266
O28   O     O_R   0.382438 0.392011 0.211325 -0.647302
H18   H     H_    0.360509 0.306054 0.222268 0.290751
O29   O     O_3   0.798380 0.978703 0.128548 -0.647511
H19   H     H_    0.855625 0.907512 0.107781 0.298152
O30   O     O_3   0.285438 0.481463 0.870151 -0.646259
H20   H     H_    0.382206 0.421266 0.884953 0.300672

loop_
_geom_bond_atom_site_label_1
_geom_bond_atom_site_label_2
_ccdc_geom_bond_type
C14   C16   A    
O26   H17   S    
O29   H19   S    
O13   V3    S    
O30   H20   S    
O4    C2    A    
V1    O19   S    
O23   H15   S    
C23   C25   A    
O21   H13   S    
O9    V1    S    
C40   H12   S    
O16   C6    A    
C12   C34   A    
C2    C35   S    
C10   C34   A    
C3    C38   S    
O12   V4    S    
C37   H9    S    
C9    C41   S    
O7    C3    A    
O5    C7    A    
O7    V1    S    
O6    C8    A    
O8    V2    S    
C25   C27   A    
C38   C40   D    
C26   C28   A    
O3    V1    S    
O14   V4    S    
C42   O28   S    
C27   O23   S    
C28   C30   A    
C24   C26   A    
C21   C29   A    
C2    O12   A    
C39   H11   S    
O10   V2    S    
C18   C20   A    
C5    C39   S    
O18   C8    A    
C13   H3    S    
C20   C22   A    
O11   V3    S    
C14   H4    S    
C41   O26   S    
O17   V3    S    
C10   C26   A    
C29   O29   S    
C33   O21   S    
C15   C17   A    
O8    C4    A    
O28   H18   S    
C17   H5    S    
C1    O11   A    
C7    C11   S    
C41   O25   D    
O15   V3    S    
C11   C31   A    
C27   C29   A    
C28   O24   S    
C12   C32   A    
O24   H16   S    
C22   C30   A    
O1    V3    S    
C37   C39   D    
C19   C21   A    
C30   O30   S    
C13   C35   A    
C34   O22   S    
C14   C36   A    
O18   V4    S    
O15   C5    A    
C4    C37   S    
C32   H2    S    
O1    C3    A    
C1    C36   S    
C23   C31   A    
V2    O20   S    
C24   C32   A    
C21   C35   A    
C9    C33   A    
O16   V4    S    
C22   C36   A    
C15   H7    S    
C17   C19   A    
C16   C18   A    
O5    V1    S    
O17   C7    A    
O6    V2    S    
O10   C6    A    
O3    C1    A    
O2    V4    S    
C11   C33   A    
C10   C42   S    
V3    O19   S    
V4    O20   S    
C6    C40   S    
C31   H1    S    
O9    C5    A    
O13   V1    S    
O14   V2    S    
O2    C4    A    
O22   H14   S    
O4    V2    S    
C8    C12   S    
C13   C15   A    
C16   H8    S    
C9    C25   A    
C18   H6    S    
C38   H10   S    
C42   O27   D    
C19   C23   A    
C20   C24   A    
