data_mof_unit_37251.cif
_audit_creation_date              2012-12-11T16:31:35-0500
_audit_creation_method            fapswitch 2.2
_symmetry_space_group_name_H-M    P1
_symmetry_Int_Tables_number       1
_space_group_crystal_system       triclinic
_cell_length_a                    6.944247
_cell_length_b                    18.285958
_cell_length_c                    20.16706
_cell_angle_alpha                 68.341807
_cell_angle_beta                  90.533231
_cell_angle_gamma                 90.825881
_cell_volume                      2379.79753368

loop_
_atom_site_label
_atom_site_type_symbol
_atom_type_description
_atom_site_fract_x
_atom_site_fract_y
_atom_site_fract_z
_atom_type_partial_charge
O1    O     O_R   0.488990 0.443920 0.942160 -0.537134
O2    O     O_R   0.823840 0.406530 0.087600 -0.538500
O3    O     O_R   0.999650 0.556080 0.057840 -0.537289
C1    C     C_R   0.654963 0.383563 0.115082 0.693469
O4    O     O_R   0.818390 0.434590 0.944530 -0.539613
O5    O     O_R   0.994160 0.584350 0.913750 -0.534805
C2    C     C_R   0.648810 0.420318 0.924207 0.724861
O6    O     O_R   0.494480 0.415650 0.086250 -0.536706
O7    O     O_3   0.662600 0.549100 0.990070 -0.366067
V1    V     V_3+5 0.935320 0.490890 0.001840 1.422441
O8    O     O_R   0.324240 0.593470 0.912400 -0.538761
C3    C     C_R   0.155526 0.616420 0.884882 0.693766
O9    O     O_R   0.329690 0.565410 0.055470 -0.538773
C4    C     C_R   0.162037 0.579559 0.075938 0.723367
V2    V     V_3+5 0.435990 0.509110 0.998160 1.422572
O10   O     O_3   0.158840 0.450900 0.009930 -0.368015
C5    C     C_3   0.981630 0.675834 0.264450 -0.328055
C6    C     C_3   0.335956 0.705728 0.246638 -0.330109
C7    C     C_3   0.327034 0.753558 0.296364 -0.329013
H1    H     H_    0.996902 0.683737 0.370360 0.135706
H2    H     H_    0.010398 0.613016 0.297054 0.133722
H3    H     H_    0.453462 0.729856 0.207085 0.136431
H4    H     H_    0.371942 0.643509 0.278829 0.138104
H5    H     H_    0.358645 0.714098 0.352233 0.137558
H6    H     H_    0.440369 0.800412 0.280488 0.135747
C8    C     C_1   0.110956 0.874624 0.378427 -0.192434
C9    C     C_3   0.141077 0.709088 0.207334 0.289222
C10   C     C_3   0.972625 0.723748 0.314102 -0.327636
C11   C     C_3   0.125891 0.790968 0.292354 0.290783
C12   C     C_3   0.087415 0.844646 0.213554 -0.327876
C13   C     C_3   0.096144 0.796761 0.163856 -0.323675
C14   C     C_1   0.117460 0.836872 0.339909 -0.102924
C15   C     C_1   0.149364 0.663156 0.159806 -0.100593
C16   C     C_1   0.155563 0.625349 0.121332 -0.191963
H7    H     H_    0.956097 0.801291 0.135419 0.140781
H8    H     H_    0.208780 0.822637 0.122619 0.139401
H9    H     H_    0.943288 0.872030 0.208700 0.138879
H10   H     H_    0.839385 0.677958 0.237948 0.136892
H11   H     H_    0.826177 0.748753 0.311128 0.137197
H12   H     H_    0.196026 0.893287 0.196024 0.135260
H13   H     H_    0.978856 0.528383 0.690878 0.105162
C17   C     C_R   0.239698 0.773233 0.878716 -0.138731
C18   C     C_R   0.273694 0.847647 0.879775 -0.125429
C19   C     C_R   0.247774 0.913519 0.818527 -0.104860
C20   C     C_R   0.190191 0.906304 0.754551 -0.045428
C21   C     C_R   0.164324 0.829875 0.750462 0.022251
C22   C     C_R   0.184579 0.762477 0.815176 0.070027
C23   C     C_R   0.116828 0.817903 0.685760 -0.192959
C24   C     C_R   0.080608 0.740499 0.687429 0.072176
C25   C     C_R   0.092805 0.674680 0.752805 0.069242
C26   C     C_R   0.145779 0.685565 0.816468 -0.175639
C27   C     C_R   0.033385 0.726959 0.624310 -0.134749
C28   C     C_R   0.996598 0.651229 0.625910 -0.123710
C29   C     C_R   0.007058 0.587165 0.689900 -0.125065
C30   C     C_R   0.055313 0.598364 0.752679 -0.141112
H14   H     H_    0.316303 0.854364 0.929021 0.118410
H15   H     H_    0.269193 0.971110 0.821526 0.122177
H16   H     H_    0.024551 0.774472 0.572889 0.096164
H17   H     H_    0.960282 0.642235 0.577128 0.106579
H18   H     H_    0.064136 0.546392 0.800880 0.103927
H19   H     H_    0.948751 0.453897 0.305943 0.106784
C31   C     C_R   0.480473 0.234922 0.124841 -0.132048
C32   C     C_R   0.394371 0.164500 0.127810 -0.122184
C33   C     C_R   0.382551 0.101070 0.192303 -0.126173
C34   C     C_R   0.456906 0.107557 0.254313 -0.142257
C35   C     C_R   0.543333 0.178635 0.253238 0.068708
C36   C     C_R   0.555235 0.243711 0.187088 0.069296
C37   C     C_R   0.620986 0.184948 0.316297 -0.184161
C38   C     C_R   0.710364 0.256434 0.313126 0.068951
C39   C     C_R   0.722241 0.321514 0.246974 0.068299
C40   C     C_R   0.644571 0.315202 0.183922 -0.186288
C41   C     C_R   0.785173 0.265220 0.375365 -0.131229
C42   C     C_R   0.871253 0.335651 0.372386 -0.123783
C43   C     C_R   0.882998 0.399090 0.307894 -0.127831
C44   C     C_R   0.808655 0.392595 0.245886 -0.140876
H20   H     H_    0.489098 0.281900 0.073068 0.103999
H21   H     H_    0.337824 0.158957 0.079655 0.110504
H22   H     H_    0.316748 0.046272 0.194249 0.107940
H23   H     H_    0.447028 0.055930 0.302759 0.110139
H24   H     H_    0.776598 0.218237 0.427137 0.103719
H25   H     H_    0.927840 0.341195 0.420536 0.108712
H26   H     H_    0.818535 0.444211 0.197428 0.110902
O11   O     O_R   0.770890 0.084490 0.414040 -0.538952
O12   O     O_R   0.445980 0.065450 0.555510 -0.528622
O13   O     O_R   0.270670 0.915620 0.586180 -0.534744
C45   C     C_R   0.615323 0.079520 0.576143 0.733750
O14   O     O_R   0.441480 0.093500 0.412450 -0.540874
O15   O     O_R   0.266140 0.943870 0.442100 -0.540523
C46   C     C_R   0.610468 0.116578 0.385131 0.683745
O16   O     O_R   0.775410 0.056240 0.558120 -0.524029
O17   O     O_3   0.602660 0.950990 0.510100 -0.372865
V3    V     V_3+5 0.329740 0.009100 0.498130 1.455998
O18   O     O_R   0.936120 0.934420 0.444240 -0.541601
C47   C     C_R   0.103981 0.920346 0.423877 0.713677
O19   O     O_R   0.940610 0.906370 0.587310 -0.537531
C48   C     C_R   0.108958 0.884763 0.615843 0.717006
V4    V     V_3+5 0.829110 0.990690 0.501470 1.448440
O20   O     O_3   0.106080 0.049010 0.489880 -0.356908
C49   C     C_3   0.827954 0.249798 0.705737 -0.328336
C50   C     C_3   0.472333 0.269977 0.687064 -0.351723
C51   C     C_3   0.472548 0.317917 0.736745 -0.330398
H27   H     H_    0.328618 0.241498 0.689064 0.144725
H28   H     H_    0.495560 0.310701 0.630960 0.145138
H29   H     H_    0.494907 0.381464 0.704243 0.142653
H30   H     H_    0.329533 0.311720 0.762852 0.138308
C52   C     C_1   0.638787 0.374107 0.879255 -0.193278
C53   C     C_3   0.631574 0.206539 0.709637 0.239154
C54   C     C_3   0.829125 0.297409 0.755694 -0.335411
C55   C     C_3   0.632975 0.289140 0.794270 0.278305
C56   C     C_3   0.596634 0.200501 0.838283 -0.359043
C57   C     C_3   0.591948 0.151764 0.788769 -0.134022
C58   C     C_1   0.634620 0.335755 0.841233 -0.091896
C59   C     C_1   0.629050 0.161690 0.661058 -0.078987
C60   C     C_1   0.624803 0.124612 0.621992 -0.146354
H31   H     H_    0.445797 0.124938 0.791713 0.101450
H32   H     H_    0.947432 0.206768 0.720998 0.152001
H33   H     H_    0.947035 0.276013 0.795716 0.138931
H34   H     H_    0.456583 0.192836 0.866609 0.132124
H35   H     H_    0.256777 0.724224 0.928761 0.103833
C61   C     C_1   0.147819 0.979851 0.697387 0.270373
N1    N     N_1   0.113707 0.039515 0.652578 -0.327959
H36   H     H_    0.860181 0.360501 0.723809 0.136132
H37   H     H_    0.855590 0.290473 0.649935 0.138587
C62   C     C_1   0.728917 0.085974 0.814486 0.289542
N2    N     N_1   0.836167 0.034453 0.834523 -0.368954
H38   H     H_    0.710000 0.178999 0.880255 0.143364

loop_
_geom_bond_atom_site_label_1
_geom_bond_atom_site_label_2
_ccdc_geom_bond_type
C8    C47   S    
C35   C37   A    
C8    C14   T    
O18   C47   A    
C34   H23   S    
C42   C43   A    
O19   C48   A    
C1    O6    A    
C56   H34   S    
V4    O20   S    
C28   H17   S    
V3    O20   S    
C52   C58   T    
C20   C21   A    
C9    C15   S    
C49   C54   S    
C31   C32   A    
C31   C36   A    
C10   C11   S    
O12   C45   A    
C11   C14   S    
O5    C3    A    
C12   C13   S    
O13   C48   A    
C17   H35   S    
C51   C55   S    
V2    O10   S    
C54   C55   S    
C6    C7    S    
C56   C57   S    
C53   C59   S    
C21   C22   A    
O8    V2    S    
O15   V3    S    
C37   C38   A    
C39   C40   A    
O1    V2    S    
O9    C4    A    
O7    V1    S    
O16   V4    S    
C5    H10   S    
C35   C36   A    
C6    H3    S    
C30   H18   S    
C31   H20   S    
C53   C57   S    
C42   H25   S    
O13   V3    S    
C15   C16   T    
C21   C23   A    
C51   H30   S    
O11   C46   A    
O15   C47   A    
C43   C44   A    
C6    C9    S    
C9    C13   S    
C6    H4    S    
C5    C9    S    
C45   O16   A    
C55   C58   S    
O17   V3    S    
O4    C2    A    
C22   C26   A    
H1    C10   S    
C10   H11   S    
C28   C29   A    
C50   H28   S    
C5    H2    S    
C12   H9    S    
C38   C41   A    
O2    C1    A    
C18   C19   A    
O5    V1    S    
C11   C12   S    
C19   H15   S    
C24   C27   A    
C50   H27   S    
C25   C26   A    
C2    C52   S    
C12   H12   S    
C27   C28   A    
O17   V4    S    
O3    C4    A    
C27   H16   S    
C56   H38   S    
C20   C61   S    
C23   C24   A    
C34   C35   A    
O6    V2    S    
O9    V2    S    
C13   H7    S    
C17   C18   A    
O2    V1    S    
O18   V4    S    
C49   H32   S    
C3    C26   S    
C61   N1    T    
C49   H37   S    
C59   C60   T    
C32   H21   S    
C29   C30   A    
C50   C53   S    
C23   C48   S    
C57   C62   S    
O1    C2    A    
C5    C10   S    
C33   H22   S    
C54   H33   S    
C19   C20   A    
C54   H36   S    
C41   C42   A    
C4    C16   S    
O8    C3    A    
O19   V4    S    
C44   H26   S    
H19   C43   S    
C51   H29   S    
C49   C53   S    
C25   C30   A    
C45   C60   S    
C33   C34   A    
O14   C46   A    
C7    H5    S    
O7    V2    S    
O4    V1    S    
C41   H24   S    
O3    V1    S    
V1    O10   S    
C55   C56   S    
C50   C51   S    
C36   C40   A    
C17   C22   A    
C38   C39   A    
C7    H6    S    
H13   C29   S    
C32   C33   A    
C18   H14   S    
C24   C25   A    
O11   V4    S    
C39   C44   A    
C13   H8    S    
C57   H31   S    
O12   V3    S    
C37   C46   S    
O14   V3    S    
C1    C40   S    
C62   N2    T    
C7    C11   S    
