data_mof_unit_53836.cif
_audit_creation_date              2013-03-05T16:41:45-0500
_audit_creation_method            fapswitch 2.2
_symmetry_space_group_name_H-M    P1
_symmetry_Int_Tables_number       1
_space_group_crystal_system       triclinic
_cell_length_a                    10.664102
_cell_length_b                    10.700311
_cell_length_c                    9.887968
_cell_angle_alpha                 89.447299
_cell_angle_beta                  87.872089
_cell_angle_gamma                 89.723749
_cell_volume                      1127.46643596

loop_
_atom_site_label
_atom_site_type_symbol
_atom_site_description
_atom_site_fract_x
_atom_site_fract_y
_atom_site_fract_z
_atom_type_partial_charge
O1    O     O_R   0.500020 0.316790 0.614690 -0.635930
O2    O     O_R   0.500000 0.316760 0.385350 -0.596591
C1    C     C_R   0.506803 0.260362 0.499944 0.980673
O3    O     O_R   0.316770 0.500020 0.614690 -0.592131
O4    O     O_R   0.316760 0.499980 0.385350 -0.584908
C2    C     C_R   0.259809 0.513620 0.503034 0.954082
Zn1   Zn    Zn3+2 0.500010 0.500020 0.653130 1.063496
Zn2   Zn    Zn3+2 0.499990 0.499980 0.346870 1.048260
O5    O     O_R   0.500000 0.683240 0.614650 -0.549721
O6    O     O_R   0.499980 0.683210 0.385310 -0.596536
O7    O     O_R   0.683240 0.500020 0.614650 -0.618924
O8    O     O_R   0.683230 0.499980 0.385310 -0.621833
C3    C     C_R   0.508526 0.739296 0.499121 0.904582
C4    C     C_R   0.739897 0.489541 0.497574 0.890919
C5    C     C_R   0.091204 0.508208 0.762478 0.367491
C6    C     C_R   0.031803 0.437335 0.866543 -0.186881
H1    H     H_    0.060447 0.446744 0.969853 0.196892
C7    C     C_R   0.931057 0.358950 0.838359 0.468301
C8    C     C_R   0.881162 0.364957 0.709956 -0.053419
H2    H     H_    0.796918 0.312484 0.691640 0.165803
C9    C     C_R   0.936751 0.442079 0.607890 -0.007922
C10   C     C_R   0.054426 0.492557 0.627261 -0.032835
C11   C     C_R   0.124938 0.534072 0.511006 -0.170637
C12   C     C_R   0.063601 0.569250 0.392750 0.281341
H3    H     H_    0.886819 0.578075 0.299570 0.201464
C13   C     C_R   0.937259 0.543310 0.385478 -0.229188
C14   C     C_R   0.874036 0.481075 0.492312 -0.067806
C15   C     C_R   0.470514 0.061839 0.607197 -0.109315
C16   C     C_R   0.526165 0.128681 0.500996 -0.235193
C17   C     C_R   0.601461 0.066505 0.401231 0.268280
C18   C     C_R   0.603799 0.935103 0.401616 0.402117
C19   C     C_R   0.528746 0.870595 0.500554 -0.240605
C20   C     C_R   0.474161 0.934651 0.608381 0.007736
C21   C     C_3   0.343717 0.923325 0.667699 0.282471
C22   C     C_3   0.338214 0.064821 0.664003 0.047938
H4    H     H_    0.278770 0.875998 0.599633 0.203406
H5    H     H_    0.329944 0.106122 0.765044 0.154368
C23   C     C_R   0.408295 0.439878 0.075947 0.211859
N1    N     N_R   0.499160 0.499140 0.142800 -0.133646
C24   C     C_R   0.583258 0.569718 0.068634 -0.117349
H6    H     H_    0.651426 0.624458 0.120443 0.187952
C25   C     C_R   0.583018 0.571043 0.924834 0.336261
N2    N     N_R   0.499160 0.499180 0.857150 -0.203753
C26   C     C_R   0.408285 0.439521 0.933989 0.261361
C27   C     C_3   0.375867 0.304299 0.933593 0.145901
C28   C     C_3   0.377387 0.305103 0.087602 -0.528434
H7    H     H_    0.448984 0.244580 0.883341 0.147081
H8    H     H_    0.284280 0.289986 0.139423 0.241517
H9    H     H_    0.455246 0.248407 0.128350 0.231773
N3    N     N_R   0.125200 0.640941 0.285898 0.232413
O9    O     O_R   0.081398 0.641208 0.164860 -0.320083
O10   O     O_R   0.210665 0.722190 0.313998 -0.334962
O11   O     O_3   0.340749 0.873080 0.800085 -0.627017
H10   H     H_    0.407050 0.913353 0.852424 0.362632
N4    N     N_R   0.247787 0.114480 0.568931 0.225196
O12   O     O_R   0.166948 0.198963 0.609031 -0.353144
O13   O     O_R   0.246592 0.075058 0.444773 -0.363851
N5    N     N_R   0.671345 0.648413 0.852173 0.239780
O14   O     O_R   0.638595 0.761875 0.820738 -0.336027
O15   O     O_R   0.790171 0.622033 0.857514 -0.381612
O16   O     O_3   0.255078 0.288115 0.886064 -0.734941
H11   H     H_    0.221864 0.209583 0.927526 0.365551
N6    N     N_R   0.163675 0.615169 0.797098 0.248045
O17   O     O_R   0.153374 0.716724 0.725274 -0.341662
O18   O     O_R   0.213279 0.622469 0.914826 -0.307611
O19   O     O_3   0.872251 0.285483 0.936719 -0.697191
H12   H     H_    0.917887 0.293095 0.021835 0.364072
N7    N     N_R   0.675704 0.135001 0.301662 0.236963
O20   O     O_R   0.747281 0.225693 0.338543 -0.398373
O21   O     O_R   0.680659 0.100121 0.175862 -0.283483
O22   O     O_3   0.679568 0.874481 0.306443 -0.666361
H13   H     H_    0.699029 0.789458 0.340216 0.331894

loop_
_geom_bond_atom_site_label_1
_geom_bond_atom_site_label_2
_geom_bond_distance
_ccdc_geom_bond_type
C5    C6    1.405840 A    
O4    Zn2   1.976768 S    
N3    O10   1.301848 A    
N4    O12   1.300622 A    
N6    O18   1.299581 A    
C23   C26   1.403721 A    
C16   C17   1.417458 A    
C17   N7    1.437752 S    
Zn2   N1    2.018293 S    
Zn1   N2    2.016960 S    
C4    C14   1.431958 S    
C7    O19   1.379085 S    
C7    C8    1.395531 A    
C3    C19   1.422712 S    
C21   H4    1.110718 S    
C18   C19   1.417135 A    
Zn2   O8    2.004518 S    
C20   C21   1.494476 S    
C11   C12   1.408107 A    
C19   C20   1.381866 A    
C25   N5    1.426397 S    
C18   O22   1.381854 S    
O19   H12   0.991921 S    
C9    C14   1.404398 A    
O22   H13   0.989813 S    
C6    C7    1.403866 A    
O1    Zn1   2.000716 S    
C9    C10   1.389097 A    
Zn1   O7    1.976767 S    
C28   H9    1.111323 S    
C15   C16   1.381964 A    
C13   C14   1.397072 A    
O4    C2    1.301610 A    
O3    Zn1   2.004519 S    
C2    C11   1.453139 S    
C27   O16   1.399553 S    
C24   H6    1.082376 S    
C22   H5    1.096752 S    
O11   H10   0.993909 S    
O8    C4    1.287116 A    
C15   C20   1.361265 A    
N3    O9    1.300783 A    
O2    C1    1.282913 A    
N4    O13   1.302484 A    
N2    C26   1.365970 A    
C12   N3    1.440125 S    
C17   C18   1.406115 A    
O7    C4    1.291383 A    
C28   H8    1.112090 S    
C23   C28   1.483318 S    
O3    C2    1.286449 A    
O16   H11   0.992525 S    
C22   N4    1.465863 S    
N6    O17   1.298873 A    
Zn1   O5    1.993485 S    
C23   N1    1.356318 A    
C26   C27   1.489340 S    
C21   O11   1.409655 S    
Zn2   O6    2.000717 S    
C21   C22   1.515056 S    
C25   N2    1.378379 A    
C27   H7    1.111645 S    
N1    C24   1.363617 A    
C1    C16   1.423084 S    
N7    O21   1.301263 A    
O5    C3    1.285531 A    
C10   C11   1.418931 A    
C6    H1    1.082786 S    
C5    N6    1.435303 S    
C8    C9    1.412506 A    
H3    C13   1.084059 S    
C27   C28   1.523632 S    
N5    O14   1.299723 A    
N5    O15   1.299776 A    
N7    O20   1.300770 A    
C5    C10   1.418937 A    
O2    Zn2   1.993485 S    
C8    H2    1.083543 S    
C15   C22   1.499363 S    
C12   C13   1.381551 A    
C24   C25   1.421915 A    
O1    C1    1.289893 A    
O6    C3    1.286887 A    
