data_mof_unit_52238.cif
_audit_creation_date              2012-12-10T17:38:19-0500
_audit_creation_method            fapswitch 2.2
_symmetry_space_group_name_H-M    P1
_symmetry_Int_Tables_number       1
_space_group_crystal_system       triclinic
_cell_length_a                    11.961434
_cell_length_b                    12.855044
_cell_length_c                    18.978235
_cell_angle_alpha                 90.209965
_cell_angle_beta                  86.325442
_cell_angle_gamma                 93.979829
_cell_volume                      2905.16098459

loop_
_atom_site_label
_atom_site_type_symbol
_atom_type_description
_atom_site_fract_x
_atom_site_fract_y
_atom_site_fract_z
_atom_type_partial_charge
C1    C     C_R   0.523004 0.700705 0.499040 0.926322
C2    C     C_R   0.551114 0.133065 0.521739 -0.319210
C3    C     C_R   0.451010 0.973457 0.489319 0.114839
C4    C     C_R   0.547455 0.026486 0.514562 0.125157
C5    C     C_R   0.955787 0.430495 0.418616 0.119189
C6    C     C_R   0.044446 0.573126 0.579997 0.106038
C7    C     C_R   0.838819 0.433465 0.429376 -0.004929
C8    C     C_R   0.161347 0.568600 0.569808 0.000883
C9    C     C_R   0.856734 0.526100 0.536705 -0.085668
C10   C     C_R   0.143254 0.474144 0.463228 -0.084738
C11   C     C_R   0.974967 0.525360 0.529656 0.019151
C12   C     C_R   0.477016 0.299356 0.501248 0.924862
C13   C     C_R   0.025096 0.476039 0.469838 0.021900
C14   C     C_R   0.499940 0.496904 0.634821 0.891984
C15   C     C_R   0.499255 0.497309 0.365134 0.890683
C16   C     C_R   0.406818 0.498965 0.754831 -0.194344
C17   C     C_R   0.593551 0.485203 0.245838 -0.202917
C18   C     C_R   0.402794 0.470764 0.825347 -0.240105
C19   C     C_R   0.589987 0.458025 0.175237 -0.231930
C20   C     C_R   0.490869 0.419277 0.852244 -0.000562
C21   C     C_R   0.487642 0.424490 0.147054 -0.008524
C22   C     C_R   0.584318 0.394982 0.807514 0.512467
C23   C     C_R   0.461215 0.187620 0.502124 -0.170881
C24   C     C_R   0.387491 0.418934 0.191027 0.493597
C25   C     C_R   0.585623 0.422052 0.735893 -0.320277
C26   C     C_R   0.392894 0.443983 0.262451 -0.286719
C27   C     C_R   0.498683 0.475604 0.710055 -0.081324
C28   C     C_R   0.495007 0.478599 0.289663 -0.090267
C29   C     C_R   0.486506 0.404688 0.070891 0.314460
C30   C     C_R   0.488362 0.401289 0.928424 0.324532
C31   C     C_3   0.003851 0.382411 0.351744 -0.955974
C32   C     C_3   0.996864 0.628663 0.644086 -0.960436
C33   C     C_3   0.776223 0.366919 0.808206 0.087536
C34   C     C_R   0.538680 0.812584 0.499501 -0.165577
C35   C     C_3   0.823384 0.282540 0.759770 -0.339396
C36   C     C_3   0.938612 0.317920 0.725519 -0.965029
C37   C     C_3   0.210122 0.456627 0.166047 0.076804
C38   C     C_3   0.099590 0.409889 0.139538 -0.287974
C39   C     C_3   0.011196 0.490102 0.140554 -0.982074
C40   C     C_3   0.186241 0.186780 0.513272 0.104651
C41   C     C_3   0.078738 0.134057 0.486029 -0.351832
C42   C     C_3   0.976892 0.150368 0.536528 -0.972465
C43   C     C_3   0.826816 0.836294 0.503186 0.074752
C44   C     C_3   0.832804 0.776077 0.433306 -0.332560
C45   C     C_R   0.639742 0.972679 0.531232 -0.304244
C46   C     C_3   0.947976 0.794559 0.394270 -0.967536
C47   C     C_R   0.358269 0.027125 0.473252 -0.279865
C48   C     C_R   0.638093 0.864948 0.521531 0.490747
C49   C     C_R   0.361984 0.134836 0.480428 0.475316
C50   C     C_R   0.447888 0.867151 0.481368 -0.326186
H1    H     H_    0.338095 0.538810 0.735315 0.157312
H2    H     H_    0.284086 0.986056 0.453956 0.149202
H3    H     H_    0.184893 0.435530 0.419296 0.166659
H4    H     H_    0.815022 0.564278 0.580807 0.175610
H5    H     H_    0.216057 0.603751 0.607849 0.139552
H6    H     H_    0.784265 0.399754 0.390754 0.145995
H7    H     H_    0.936989 0.351811 0.317642 0.244749
H8    H     H_    0.057882 0.442170 0.321165 0.240560
H9    H     H_    0.054551 0.316874 0.364538 0.253421
H10   H     H_    0.063969 0.660632 0.677540 0.242150
H11   H     H_    0.949569 0.694613 0.627370 0.252992
H12   H     H_    0.673534 0.510472 0.266240 0.162071
H13   H     H_    0.939809 0.573883 0.676881 0.241589
H14   H     H_    0.828493 0.375212 0.854492 0.169689
H15   H     H_    0.784894 0.444735 0.781816 0.119865
H16   H     H_    0.830694 0.210848 0.791238 0.233856
H17   H     H_    0.765416 0.262495 0.717580 0.221124
H18   H     H_    0.931595 0.384917 0.689728 0.267817
H19   H     H_    0.972652 0.253076 0.693914 0.267718
H20   H     H_    0.997863 0.340873 0.766495 0.269041
H21   H     H_    0.243510 0.521709 0.130308 0.144331
H22   H     H_    0.192569 0.488140 0.219997 0.124993
H23   H     H_    0.331464 0.491561 0.859234 0.169532
H24   H     H_    0.114492 0.380908 0.084711 0.235762
H25   H     H_    0.067393 0.342894 0.173690 0.232042
H26   H     H_    0.993074 0.518255 0.195240 0.265301
H27   H     H_    0.932283 0.453724 0.120791 0.270070
H28   H     H_    0.040891 0.557384 0.106089 0.269626
H29   H     H_    0.171376 0.268922 0.527167 0.181401
H30   H     H_    0.205227 0.147588 0.563237 0.111091
H31   H     H_    0.064007 0.166667 0.433631 0.238754
H32   H     H_    0.088310 0.049115 0.479610 0.207039
H33   H     H_    0.987713 0.115014 0.588761 0.263040
H34   H     H_    0.667764 0.464746 0.142563 0.171188
H35   H     H_    0.900317 0.112774 0.514600 0.258200
H36   H     H_    0.965254 0.234929 0.543312 0.274743
H37   H     H_    0.896618 0.814404 0.534737 0.166519
H38   H     H_    0.841857 0.921404 0.492931 0.123964
H39   H     H_    0.816762 0.691374 0.443749 0.253745
H40   H     H_    0.767497 0.801184 0.399188 0.208384
H41   H     H_    0.966356 0.878883 0.382665 0.266076
H42   H     H_    0.949266 0.750864 0.343675 0.268887
H43   H     H_    0.014174 0.766676 0.426594 0.266298
H44   H     H_    0.652692 0.398674 0.699627 0.162062
H45   H     H_    0.317452 0.432960 0.297095 0.163845
H46   H     H_    0.625899 0.173970 0.540589 0.180445
H47   H     H_    0.373044 0.826443 0.462465 0.180798
H48   H     H_    0.711650 0.013989 0.553083 0.142224
N1    N     N_R   0.585459 0.399353 0.961272 -0.125668
N2    N     N_R   0.389174 0.402970 0.037982 -0.133533
N3    N     N_R   0.584521 0.400796 0.031211 -0.189682
N4    N     N_R   0.390004 0.401311 0.968057 -0.194637
N5    N     N_R   0.207800 0.519350 0.512860 -0.126051
N6    N     N_R   0.792200 0.480650 0.487140 -0.130973
O1    O     O_R   0.421690 0.658830 0.503430 -0.627961
O2    O     O_3   0.287214 0.378067 0.166200 -0.632204
O3    O     O_3   0.273659 0.188485 0.459079 -0.637516
O4    O     O_3   0.724973 0.809013 0.543343 -0.636476
O5    O     O_R   0.578310 0.341170 0.496570 -0.626422
O6    O     O_R   0.609320 0.646410 0.495180 -0.585428
O7    O     O_R   0.390680 0.353590 0.504820 -0.591498
O8    O     O_R   0.406160 0.506220 0.605990 -0.632120
O9    O     O_R   0.593840 0.493780 0.394010 -0.634503
O10   O     O_R   0.593780 0.493810 0.597740 -0.621431
O11   O     O_R   0.406220 0.506190 0.402260 -0.622558
O12   O     O_3   0.665107 0.334904 0.833672 -0.640185
Zn1   Zn    Zn3+2 0.374720 0.508290 0.505510 0.943335
Zn2   Zn    Zn3+2 0.625280 0.491710 0.494490 0.941853

loop_
_geom_bond_atom_site_label_1
_geom_bond_atom_site_label_2
_ccdc_geom_bond_type
C6    C32   S    
C41   C42   S    
C35   C36   S    
C16   H1    S    
O6    Zn2   S    
C33   H15   S    
C49   O3    S    
C20   C30   S    
C14   O8    A    
C12   C23   S    
C43   H38   S    
C39   H27   S    
C31   H8    S    
C10   N5    A    
C19   C21   A    
C24   C26   A    
C32   H11   S    
C45   H48   S    
C9    N6    A    
C38   C39   S    
C1    O6    A    
C23   C49   A    
C46   H42   S    
C31   H9    S    
C10   H3    S    
C17   C19   A    
C36   H20   S    
O11   Zn1   S    
C22   C25   A    
O5    Zn2   S    
C40   H30   S    
C42   H36   S    
C14   C27   S    
C5    C13   A    
C4    C45   A    
C16   C27   A    
C22   O12   S    
C25   H44   S    
O1    Zn1   S    
N5    Zn1   S    
C7    H6    S    
C8    H5    S    
C12   O5    A    
C3    C50   A    
C44   C46   S    
C1    C34   S    
N6    Zn2   S    
C38   H25   S    
C34   C50   A    
C39   H28   S    
C47   C49   A    
C6    C11   A    
C5    C7    A    
C6    C8    A    
C46   H41   S    
C35   H16   S    
C14   O10   A    
C21   C29   S    
C30   N1    A    
C2    C4    A    
C43   C44   S    
C37   C38   S    
C17   H12   S    
C35   H17   S    
C41   H31   S    
C30   N4    A    
N2    N4    A    
C40   H29   S    
C29   N3    A    
C42   H35   S    
C39   H26   S    
C9    C11   A    
O10   Zn2   S    
C40   O3    S    
C40   C41   S    
N1    N3    A    
C20   C22   A    
C18   H23   S    
C7    N6    A    
C37   H21   S    
C48   O4    S    
C15   O11   A    
C21   C24   A    
C34   C48   A    
C32   H10   S    
C19   H34   S    
C44   H40   S    
C36   H19   S    
C38   H24   S    
C45   C48   A    
C26   H45   S    
C33   O12   S    
C50   H47   S    
C29   N2    A    
C15   O9    A    
C17   C28   A    
C42   H33   S    
C32   H13   S    
C10   C13   A    
C36   H18   S    
C47   H2    S    
C25   C27   A    
C26   C28   A    
O7    Zn1   S    
C43   H37   S    
C31   H7    S    
C2    H46   S    
C37   O2    S    
C11   C13   A    
C15   C28   S    
O8    Zn1   S    
C46   H43   S    
C33   H14   S    
C41   H32   S    
C3    C47   A    
C33   C35   S    
C18   C20   A    
C43   O4    S    
C8    N5    A    
O9    Zn2   S    
C24   O2    S    
C16   C18   A    
C37   H22   S    
C2    C23   A    
C9    H4    S    
C12   O7    A    
C44   H39   S    
C3    C4    A    
C1    O1    A    
C5    C31   S    
