data_mof_unit_5815.cif
_audit_creation_date              2013-03-05T16:10:19-0500
_audit_creation_method            fapswitch 2.2
_symmetry_space_group_name_H-M    P1
_symmetry_Int_Tables_number       1
_space_group_crystal_system       triclinic
_cell_length_a                    8.643177
_cell_length_b                    15.075318
_cell_length_c                    19.130453
_cell_angle_alpha                 103.142213
_cell_angle_beta                  93.101036
_cell_angle_gamma                 97.866229
_cell_volume                      2395.14439508

loop_
_atom_site_label
_atom_site_type_symbol
_atom_site_description
_atom_site_fract_x
_atom_site_fract_y
_atom_site_fract_z
_atom_type_partial_charge
P1    P     P_3+3 0.039430 0.410940 0.333230 0.531120
O1    O     O_2   0.871960 0.437280 0.322960 -0.356830
O2    O     O_3   0.121410 0.444460 0.412450 -0.347910
O3    O     O_3   0.661450 0.607570 0.372550 -0.319330
O4    O     O_2   0.726679 0.521457 0.246250 -0.379558
O5    O     O_3   0.050390 0.289375 0.312188 -0.583036
O6    O     O_3   0.708433 0.693181 0.258696 -0.471636
H1    H     H_    0.545918 0.760795 0.318684 0.092370
C1    C     C_3   0.680223 0.848811 0.261408 -0.591353
H2    H     H_    0.765136 0.840766 0.219688 0.219498
P2    P     P_3+3 0.676770 0.715000 0.563590 0.526334
P3    P     P_3+3 0.130331 0.777430 0.425516 0.507230
O7    O     O_2   0.852310 0.726980 0.542430 -0.358627
O8    O     O_3   0.084010 0.657370 0.410280 -0.245858
O9    O     O_2   0.999992 0.814817 0.469810 -0.437386
O10   O     O_3   0.726419 0.744071 0.656758 -0.605781
O11   O     O_3   0.090786 0.808885 0.344218 -0.551743
C2    C     C_3   0.176585 0.765084 0.289376 0.300020
H3    H     H_    0.277413 0.737510 0.310529 0.052485
C3    C     C_3   0.241629 0.834418 0.246604 -0.856817
H4    H     H_    0.334809 0.885012 0.281473 0.197193
C4    C     C_3   0.068044 0.754717 0.693347 0.202956
C5    C     C_3   0.027491 0.784776 0.772213 -0.697448
Ba1   Ba    Ba6+2 0.853520 0.540910 0.466490 1.638675
C6    C     C_3   0.930782 0.223118 0.267156 0.129703
C7    C     C_3   0.935774 0.218232 0.183409 -0.636771
H5    H     H_    0.989034 0.285669 0.178776 0.207198
C8    C     C_3   0.598707 0.741281 0.698038 0.273100
C9    C     C_3   0.548921 0.837775 0.719982 -0.679818
H6    H     H_    0.458803 0.836592 0.758688 0.180897
P4    P     P_3+3 0.150290 0.589140 0.666780 0.454887
O12   O     O_2   0.317750 0.562750 0.677090 -0.380083
O13   O     O_3   0.068300 0.555620 0.587560 -0.338721
O14   O     O_3   0.528270 0.392500 0.627460 -0.403292
O15   O     O_3   0.200571 0.710258 0.688798 -0.650805
P5    P     P_3+3 0.055216 0.223078 0.578544 0.454076
O16   O     O_3   0.609290 0.386840 0.459690 -0.366292
O17   O     O_3   0.105700 0.342700 0.589730 -0.427795
O18   O     O_2   0.188148 0.180522 0.538590 -0.349291
O19   O     O_3   0.078196 0.198286 0.664132 -0.547056
Ba2   Ba    Ba6+2 0.336320 0.459170 0.533520 1.629177
P6    P     P_3+3 0.623790 0.591797 0.279925 0.501437
C10   C     C_3   0.598727 0.754346 0.266205 0.131757
H7    H     H_    0.505131 0.729541 0.221362 0.076594
O20   O     O_3   0.580430 0.613240 0.540320 -0.322644
C11   C     C_3   0.435318 0.316930 0.311278 0.221745
C12   C     C_3   0.387710 0.285737 0.228531 -0.613080
H8    H     H_    0.268546 0.301901 0.218388 0.182243
P7    P     P_3+3 0.508137 0.271671 0.431331 0.523533
O21   O     O_2   0.337390 0.273050 0.457610 -0.345828
O22   O     O_3   0.470180 0.242009 0.337765 -0.522932
C13   C     C_3   0.021286 0.263876 0.717918 0.328346
H9    H     H_    0.927240 0.294908 0.694944 -0.007185
C14   C     C_3   0.945444 0.216994 0.774735 -0.637052
H10   H     H_    0.888638 0.267520 0.812431 0.127830
H11   H     H_    0.852995 0.160473 0.746901 0.277902
P8    P     P_3+3 0.567398 0.414079 0.721915 0.407761
C15   C     C_3   0.472621 0.234019 0.695060 0.276878
O23   O     O_2   0.454554 0.480355 0.753971 -0.413273
O24   O     O_3   0.506361 0.313853 0.752181 -0.553297
C16   C     C_3   0.397567 0.152645 0.725924 -0.483049
H12   H     H_    0.286902 0.170770 0.745897 0.194095
C17   C     C_R   0.999026 0.459022 0.045406 0.014564
C18   C     C_R   0.896117 0.433550 0.094619 -0.161971
C19   C     C_R   0.801899 0.405552 0.938533 -0.206444
C20   C     C_R   0.948213 0.454048 0.971528 -0.075295
C21   C     C_R   0.732534 0.432963 0.880465 -0.068284
C22   C     C_R   0.829465 0.469734 0.833013 -0.142727
C23   C     C_R   0.988393 0.506307 0.858012 0.082899
C24   C     C_R   0.044487 0.501578 0.929531 0.109233
C25   C     C_R   0.773876 0.467188 0.760968 0.116111
C26   C     C_R   0.879208 0.497747 0.714673 -0.459047
C27   C     C_R   0.033756 0.543668 0.738722 0.072503
C28   C     C_R   0.087271 0.552655 0.814430 -0.065099
C29   C     C_R   0.155107 0.496071 0.072495 0.068391
C30   C     C_R   0.208765 0.497973 0.145578 0.047001
C31   C     C_R   0.105371 0.463863 0.192753 -0.033995
C32   C     C_R   0.949279 0.433611 0.164910 -0.025050
H13   H     H_    0.866368 0.405630 0.196513 0.163822
C33   C     C_R   0.229660 0.606702 0.851798 -0.023306
C34   C     C_R   0.283455 0.597270 0.919856 -0.133460
C35   C     C_R   0.197518 0.542465 0.958368 0.067598
C36   C     C_R   0.256987 0.533781 0.027439 0.080066
C37   C     C_R   0.415992 0.561938 0.053148 -0.131181
C38   C     C_R   0.365913 0.534622 0.171005 0.019300
C39   C     C_R   0.469060 0.561402 0.122686 -0.138198
C40   C     C_R   0.416168 0.544554 0.244001 0.075268
C41   C     C_R   0.311065 0.515197 0.291033 -0.489878
C42   C     C_R   0.158492 0.468060 0.267048 0.163133
H14   H     H_    0.392014 0.639734 0.944791 0.148895
H15   H     H_    0.503949 0.583373 0.019989 0.111644
C43   C     C_R   0.860613 0.167261 0.528898 0.217237
C44   C     C_R   0.792814 0.074852 0.526987 0.065552
C45   C     C_R   0.648293 0.892022 0.526894 -0.063701
C46   C     C_R   0.798723 0.928551 0.560662 -0.014602
C47   C     C_R   0.868839 0.017849 0.561348 -0.094069
C48   C     C_R   0.574837 0.802218 0.528354 0.103388
H16   H     H_    0.982998 0.041497 0.589954 0.215461
C49   C     C_R   0.412828 0.778631 0.507969 -0.308481
C50   C     C_R   0.620271 0.188810 0.464506 0.242854
C51   C     C_R   0.557565 0.095532 0.458915 -0.009196
C52   C     C_R   0.638360 0.040445 0.494246 0.105210
C53   C     C_R   0.414361 0.055361 0.419670 -0.101231
C54   C     C_R   0.326114 0.981645 0.438582 -0.188636
C55   C     C_R   0.404028 0.920496 0.468624 -0.083416
C56   C     C_R   0.564386 0.950020 0.495520 0.052304
C57   C     C_R   0.328787 0.832086 0.473076 0.083404
C58   C     C_R   0.772076 0.222476 0.498318 -0.421884
H17   H     H_    0.821592 0.293337 0.501832 0.183568
C59   C     C_2   0.145442 0.858801 0.820556 0.901470
H18   H     H_    0.245691 0.892021 0.799703 0.028963
O25   O     O_2   0.125773 0.884566 0.884243 -0.502448
H19   H     H_    0.916974 0.813289 0.771724 0.213243
H20   H     H_    0.007786 0.724278 0.796147 0.183746
C60   C     C_2   0.778505 0.238824 0.294832 0.642622
H21   H     H_    0.670595 0.209141 0.262333 -0.032329
O26   O     O_2   0.777201 0.278490 0.357476 -0.556905
C61   C     C_2   0.953745 0.131014 0.281154 0.528439
H22   H     H_    0.046875 0.127138 0.320036 0.115691
O27   O     O_2   0.867245 0.060485 0.249792 -0.601563
C62   C     C_2   0.777693 0.191034 0.141113 0.458898
H23   H     H_    0.706768 0.126027 0.141746 0.077312
O28   O     O_2   0.731221 0.238938 0.103511 -0.578910
C63   C     C_2   0.034794 0.153425 0.141762 0.657497
H24   H     H_    0.028008 0.082903 0.147024 0.102869
O29   O     O_2   0.114448 0.177286 0.096397 -0.537885
C64   C     C_2   0.647168 0.704179 0.761438 0.427449
H25   H     H_    0.669113 0.633691 0.751800 0.062124
O30   O     O_2   0.664047 0.751290 0.823149 -0.578833
H26   H     H_    0.499090 0.691461 0.668453 0.120206
C65   C     C_2   0.765031 0.899456 0.332493 0.675138
H27   H     H_    0.832029 0.864142 0.363820 0.103871
O31   O     O_2   0.757969 0.980759 0.355983 -0.537144
C66   C     C_2   0.681983 0.913341 0.753341 0.764383
H28   H     H_    0.737017 0.916963 0.806393 0.086200
O32   O     O_2   0.726418 0.972821 0.721935 -0.569377
H29   H     H_    0.494735 0.854783 0.671836 0.155910
H30   H     H_    0.592671 0.889430 0.245116 0.227284
H31   H     H_    0.336582 0.344296 0.338559 0.110671
H32   H     H_    0.537721 0.373111 0.323696 0.077182
C67   C     C_2   0.383584 0.184002 0.197057 0.816052
H33   H     H_    0.449854 0.159759 0.151841 0.030381
O33   O     O_2   0.299435 0.127153 0.219569 -0.627597
C68   C     C_2   0.495045 0.336508 0.187113 0.499946
H34   H     H_    0.616581 0.358011 0.206761 0.047707
O34   O     O_2   0.449532 0.346560 0.128279 -0.498567
H35   H     H_    0.296148 0.798736 0.198969 0.202604
C69   C     C_2   0.151023 0.341976 0.750397 0.472415
H36   H     H_    0.200537 0.384819 0.716644 0.120350
O35   O     O_2   0.200044 0.359590 0.813765 -0.565118
C70   C     C_2   0.053711 0.175780 0.818122 0.698430
H37   H     H_    0.140586 0.219540 0.858908 0.105386
O36   O     O_2   0.042164 0.092252 0.809257 -0.506579
C71   C     C_2   0.617090 0.212810 0.657988 0.360715
H38   H     H_    0.681786 0.263210 0.634189 0.006203
O37   O     O_2   0.660979 0.138463 0.652791 -0.637445
H39   H     H_    0.385236 0.245179 0.654562 0.158120
C72   C     C_2   0.495765 0.140101 0.789427 0.708745
H40   H     H_    0.617193 0.172101 0.800775 0.051287
O38   O     O_2   0.439760 0.092215 0.828174 -0.548024
C73   C     C_2   0.359398 0.062251 0.670181 0.732520
H41   H     H_    0.399905 0.000626 0.679667 0.011446
O39   O     O_2   0.282012 0.056975 0.613901 -0.612366
C74   C     C_2   0.070752 0.686315 0.240405 0.578964
H42   H     H_    0.061070 0.677967 0.182353 -0.020921
O40   O     O_2   0.996343 0.629082 0.266024 -0.487358
C75   C     C_2   0.822314 0.482695 0.639016 0.755886
H43   H     H_    0.842537 0.421944 0.600108 -0.046446
O41   O     O_2   0.751329 0.538640 0.620030 -0.536699
C76   C     C_2   0.576161 0.460784 0.890133 0.762467
H44   H     H_    0.554255 0.524823 0.877866 -0.037766
O42   O     O_2   0.473653 0.415875 0.914605 -0.496657
C77   C     C_2   0.318413 0.685437 0.830928 0.509273
H45   H     H_    0.355358 0.680409 0.778847 0.084995
O43   O     O_2   0.362216 0.757716 0.875777 -0.542632
H46   H     H_    0.592700 0.583979 0.137879 0.174345
C78   C     C_2   0.358324 0.545914 0.367526 0.761529
H47   H     H_    0.386572 0.498838 0.399537 0.015890
O44   O     O_2   0.380274 0.628236 0.393809 -0.613292
C79   C     C_2   0.739476 0.315674 0.954056 0.622006
H48   H     H_    0.814415 0.282607 0.984063 0.072782
O45   O     O_2   0.607255 0.276087 0.932118 -0.486629
H49   H     H_    0.771521 0.414443 0.080090 0.176482
H50   H     H_    0.861379 0.890073 0.590029 0.191425
C80   C     C_2   0.159942 0.989143 0.447610 0.707031
H51   H     H_    0.108744 0.968961 0.492556 0.054821
O46   O     O_2   0.082597 0.023463 0.408669 -0.641514
C81   C     C_2   0.388467 0.060001 0.344363 0.665817
H52   H     H_    0.270672 0.052596 0.319753 0.044941
O47   O     O_2   0.498846 0.063954 0.307333 -0.540501
C82   C     C_2   0.326198 0.714211 0.543326 0.686752
H53   H     H_    0.334991 0.734550 0.599800 -0.072721
O48   O     O_2   0.258250 0.638600 0.512104 -0.469914
C83   C     C_2   0.118019 0.884556 0.222103 0.739176
H54   H     H_    0.056569 0.926975 0.261416 0.066453
O49   O     O_2   0.086691 0.878426 0.158040 -0.550268
C84   C     C_2   0.095883 0.835333 0.658389 0.480595
H55   H     H_    0.128114 0.824096 0.603645 0.012368
O50   O     O_2   0.079301 0.913239 0.689539 -0.586256
H56   H     H_    0.967822 0.707148 0.661923 0.177464

loop_
_geom_bond_atom_site_label_1
_geom_bond_atom_site_label_2
_geom_bond_distance
_ccdc_geom_bond_type
O10   C8    1.393048 S    
C83   O49   1.220484 D    
C40   C41   1.410706 A    
C51   C52   1.413168 A    
C60   O26   1.212974 D    
C27   C28   1.466654 A    
C4    C84   1.512973 S    
C46   C47   1.395520 A    
H1    C10   1.114910 S    
O4    P6    1.529624 D    
C6    C61   1.509247 S    
C80   O46   1.218859 D    
C64   O30   1.221126 D    
C34   C35   1.394689 A    
C41   C78   1.448456 S    
C75   O41   1.215112 D    
C77   H45   1.052197 S    
C79   H48   1.084368 S    
C54   C80   1.472353 S    
C55   C57   1.423696 A    
C31   C42   1.454447 A    
C7    H5    1.081934 S    
C17   C29   1.409579 A    
C16   C73   1.510327 S    
Ba1   O20   3.019939 S    
C4    H56   1.097085 S    
C8    C9    1.546174 S    
C37   C39   1.385648 A    
C33   C77   1.468371 S    
C2    H3    1.110635 S    
C63   O29   1.222839 D    
C6    C60   1.473886 S    
O3    Ba1   2.819662 S    
C46   H50   1.070815 S    
P4    C27   1.941291 S    
O5    C6    1.427674 S    
C76   H44   1.082212 S    
C84   H55   1.080223 S    
C15   O24   1.413865 S    
C60   H21   1.073868 S    
P2    Ba1   3.443799 S    
C58   H17   1.080718 S    
C81   O47   1.221603 D    
P1    O1    1.566360 D    
P2    O10   1.750290 S    
O6    P6    1.744847 S    
O8    Ba1   2.887965 S    
C84   O50   1.221506 D    
C61   H22   1.082814 S    
C43   C44   1.427064 A    
C15   C71   1.505446 S    
C48   C49   1.407427 A    
C59   H18   1.081747 S    
C18   H49   1.079922 S    
C2    C74   1.492835 S    
C43   C58   1.402870 A    
O2    Ba2   2.837629 S    
C36   C37   1.408216 A    
C79   O45   1.218951 D    
C22   C23   1.421729 A    
P7    O22   1.744667 S    
C47   H16   1.075514 S    
P3    O11   1.755786 S    
O14   P8    1.766854 S    
O12   Ba2   2.858964 S    
P4    O13   1.578561 S    
C52   C56   1.430347 A    
C7    C62   1.505269 S    
O6    C10   1.401357 S    
C1    H2    1.110877 S    
C71   O37   1.216457 D    
C8    C64   1.508977 S    
C31   C32   1.398301 A    
C74   O40   1.213566 D    
C41   C42   1.408651 A    
P5    C43   1.874967 S    
C15   C16   1.557965 S    
C38   C40   1.408073 A    
C83   H54   1.083576 S    
C17   C20   1.439316 A    
C13   C69   1.503417 S    
C28   C33   1.433515 A    
C70   O36   1.221071 D    
C72   O38   1.221229 D    
Ba1   Ba2   4.703531 S    
O2    Ba1   3.006833 S    
C23   C24   1.447109 A    
O14   Ba2   2.819126 S    
C7    C63   1.506794 S    
C3    C83   1.503460 S    
C54   C55   1.415117 A    
C73   O39   1.217167 D    
C13   C14   1.552485 S    
C73   H41   1.085080 S    
C61   O27   1.221964 D    
C77   O43   1.222127 D    
C21   C76   1.477752 S    
C23   C28   1.446465 A    
C14   H11   1.099689 S    
C1    C10   1.524623 S    
C50   C58   1.405040 A    
C21   C22   1.420294 A    
C12   H8    1.107429 S    
P5    O19   1.767320 S    
C30   C31   1.431784 A    
O17   Ba2   2.888760 S    
C68   O34   1.220860 D    
C75   H43   1.082243 S    
C32   H13   1.066347 S    
C26   C27   1.418025 A    
P8    O24   1.763299 S    
C66   O32   1.219907 D    
C45   C48   1.421459 A    
C19   C21   1.403114 A    
C6    C7    1.590211 S    
C38   C39   1.404482 A    
C11   O22   1.400045 S    
C35   C36   1.432099 A    
P8    C25   1.891212 S    
C82   H53   1.049332 S    
O7    Ba1   2.852298 S    
C81   H52   1.078803 S    
P1    O2    1.578534 S    
C29   C30   1.441728 A    
C82   O48   1.212508 D    
C45   C56   1.419773 A    
C9    H6    1.104499 S    
C4    O15   1.401162 S    
C5    H19   1.100246 S    
O16   P7    1.782686 S    
C1    H30   1.110332 S    
P4    O12   1.566689 D    
P3    O9    1.537754 D    
C70   H37   1.083862 S    
C39   H46   1.078968 S    
Ba1   O16   2.891106 S    
C71   H38   1.079732 S    
C3    H35   1.111207 S    
C45   C46   1.400869 A    
C11   C12   1.560244 S    
C69   H36   1.077557 S    
C62   H23   1.085402 S    
C14   C70   1.503410 S    
C34   H14   1.079829 S    
C37   H15   1.078379 S    
P3    O8    1.752224 S    
P7    O21   1.585890 D    
C44   C47   1.402507 A    
C10   H7    1.107447 S    
O1    Ba1   2.858367 S    
C72   H40   1.081889 S    
C26   C75   1.459862 S    
P4    O15   1.764492 S    
P2    O20   1.595177 S    
C64   H25   1.081207 S    
Ba2   O21   2.852585 S    
C53   C54   1.388632 A    
C49   C57   1.405354 A    
C13   H9    1.109817 S    
C11   H32   1.112529 S    
C5    C59   1.502410 S    
C14   H10   1.110041 S    
C74   H42   1.086147 S    
P1    C42   1.948755 S    
P4    Ba2   3.458004 S    
C18   C32   1.397080 A    
P5    O18   1.545857 D    
C53   C81   1.464820 S    
C69   O35   1.219361 D    
C33   C34   1.402984 A    
C65   O31   1.216932 D    
C15   H39   1.108946 S    
C44   C52   1.419784 A    
P3    C57   1.884760 S    
C66   H28   1.083859 S    
C19   C79   1.488402 S    
C9    H29   1.107713 S    
C55   C56   1.426075 A    
C12   C67   1.509572 S    
Ba1   O13   2.836958 S    
O11   C2    1.410605 S    
P2    C48   1.901376 S    
C68   H34   1.076329 S    
O13   Ba2   3.007796 S    
C67   O33   1.216568 D    
C25   C26   1.408338 A    
O19   C13   1.415511 S    
C67   H33   1.084910 S    
P7    C50   1.878257 S    
C49   C82   1.454549 S    
P2    O7    1.588438 D    
C8    H26   1.096683 S    
C29   C36   1.417556 A    
C80   H51   1.072837 S    
C20   C24   1.422052 A    
O3    P6    1.739858 S    
C1    C65   1.495445 S    
C22   C25   1.425192 A    
C12   C68   1.495055 S    
P5    O17   1.757055 S    
C50   C51   1.413977 A    
C78   O44   1.212613 D    
C9    C66   1.503021 S    
C2    C3    1.534909 S    
C19   C20   1.408153 A    
O16   Ba2   3.019047 S    
C16   H12   1.095056 S    
C24   C35   1.406055 A    
C59   O25   1.220449 D    
C62   O28   1.218479 D    
P8    O23   1.542208 D    
C17   C18   1.409409 A    
C3    H4    1.103494 S    
P1    Ba1   3.457399 S    
C51   C53   1.396403 A    
C78   H47   1.080364 S    
P1    O5    1.801590 S    
Ba2   O20   2.890465 S    
C4    C5    1.547363 S    
C63   H24   1.084482 S    
P6    C40   1.869223 S    
C76   O42   1.219568 D    
C16   C72   1.506261 S    
C30   C38   1.409829 A    
C65   H27   1.081590 S    
C11   H31   1.103411 S    
C5    H20   1.107350 S    
