data_mof_unit_10217.cif
_audit_creation_date              2012-12-11T14:14:47-0500
_audit_creation_method            fapswitch 2.2
_symmetry_space_group_name_H-M    P1
_symmetry_Int_Tables_number       1
_space_group_crystal_system       triclinic
_cell_length_a                    24.584047
_cell_length_b                    17.280435
_cell_length_c                    15.634101
_cell_angle_alpha                 90.000018
_cell_angle_beta                  129.354502
_cell_angle_gamma                 90.000132
_cell_volume                      5135.63077392

loop_
_atom_site_label
_atom_site_type_symbol
_atom_type_description
_atom_site_fract_x
_atom_site_fract_y
_atom_site_fract_z
_atom_type_partial_charge
C1    C     C_R   0.347746 0.363009 0.236703 0.568307
C2    C     C_R   0.642630 0.682906 0.501066 0.123520
C3    C     C_R   0.857371 0.182907 0.498937 0.123518
C4    C     C_R   0.142626 0.182911 0.501067 0.123507
C5    C     C_R   0.351057 0.622780 0.133966 0.063520
C6    C     C_R   0.648945 0.622779 0.866036 0.063525
C7    C     C_R   0.851056 0.122782 0.133966 0.063526
C8    C     C_R   0.148944 0.122781 0.866035 0.063519
C9    C     C_2   0.650562 0.790307 0.409801 -0.345994
C10   C     C_2   0.349442 0.790309 0.590203 -0.345971
C11   C     C_2   0.150554 0.290318 0.409803 -0.345964
C12   C     C_R   0.652248 0.363002 0.763283 0.568326
C13   C     C_2   0.849437 0.290301 0.590206 -0.345986
C14   C     C_2   0.677563 0.751157 0.502696 -0.185909
C15   C     C_2   0.322443 0.751161 0.497306 -0.185908
C16   C     C_2   0.177556 0.251166 0.502698 -0.185908
C17   C     C_2   0.822439 0.251157 0.497308 -0.185914
C18   C     C_2   0.200012 0.326721 0.398975 0.708869
C19   C     C_2   0.799976 0.326712 0.601021 0.708931
C20   C     C_2   0.700020 0.826720 0.398980 0.708935
C21   C     C_2   0.299983 0.826716 0.601025 0.708901
C22   C     C_2   0.248223 0.375722 0.479848 -0.294632
C23   C     C_R   0.847751 0.863003 0.236715 0.568330
C24   C     C_2   0.751776 0.375720 0.520149 -0.294652
C25   C     C_2   0.748225 0.875723 0.479856 -0.294646
C26   C     C_2   0.251775 0.875716 0.520150 -0.294646
C27   C     C_2   0.648584 0.248491 0.863158 -0.137018
C28   C     C_2   0.351409 0.248495 0.136832 -0.137006
C29   C     C_2   0.148595 0.748500 0.863177 -0.136999
C30   C     C_2   0.851416 0.748491 0.136842 -0.137016
C31   C     C_2   0.692758 0.201575 0.865878 -0.111746
C32   C     C_2   0.307239 0.201577 0.134120 -0.111715
C33   C     C_2   0.192762 0.701581 0.865885 -0.111713
C34   C     C_R   0.152258 0.863014 0.763306 0.568318
C35   C     C_2   0.807243 0.701574 0.134123 -0.111739
C36   C     C_2   0.304155 0.648011 0.018164 -0.150570
C37   C     C_2   0.695848 0.648008 0.981838 -0.150574
C38   C     C_2   0.804153 0.148012 0.018164 -0.150571
C39   C     C_2   0.195845 0.148011 0.981837 -0.150571
C40   C     C_R   0.618911 0.412085 0.411095 0.576718
C41   C     C_R   0.381088 0.412071 0.588902 0.576588
C42   C     C_R   0.118910 0.912070 0.411095 0.576633
C43   C     C_R   0.881089 0.912089 0.588905 0.576748
C44   C     C_2   0.234446 0.648008 0.958452 -0.150605
C45   C     C_R   0.410635 0.641408 0.591613 -0.053472
C46   C     C_2   0.765556 0.648006 0.041549 -0.150595
C47   C     C_2   0.734444 0.148007 0.958452 -0.150592
C48   C     C_2   0.265554 0.148005 0.041551 -0.150609
C49   C     C_R   0.690674 0.410524 0.593812 0.376615
C50   C     C_R   0.309326 0.410513 0.406183 0.376597
C51   C     C_R   0.190674 0.910517 0.593814 0.376605
C52   C     C_R   0.809325 0.910525 0.406188 0.376617
C53   C     C_R   0.563429 0.360993 0.765985 0.190279
C54   C     C_R   0.436572 0.360989 0.234017 0.190383
C55   C     C_R   0.063429 0.860989 0.765984 0.190392
C56   C     C_R   0.589368 0.641407 0.408387 -0.053573
C57   C     C_R   0.936572 0.860993 0.234014 0.190333
C58   C     C_R   0.378327 0.319815 0.202676 -0.142271
C59   C     C_R   0.621666 0.319809 0.797311 -0.142223
C60   C     C_R   0.878334 0.819810 0.202687 -0.142250
C61   C     C_R   0.121678 0.819820 0.797334 -0.142274
C62   C     C_R   0.688165 0.395642 0.505785 -0.144322
C63   C     C_R   0.311837 0.395619 0.494208 -0.144189
C64   C     C_R   0.188163 0.895624 0.505788 -0.144257
C65   C     C_R   0.811835 0.895645 0.494216 -0.144325
C66   C     C_R   0.335220 0.640794 0.407062 -0.107472
C67   C     C_R   0.910633 0.141407 0.591614 -0.053562
C68   C     C_R   0.664783 0.640792 0.592938 -0.107477
C69   C     C_R   0.835219 0.140793 0.407063 -0.107479
C70   C     C_R   0.164780 0.140795 0.592939 -0.107471
C71   C     C_R   0.421344 0.603971 0.194859 0.176446
C72   C     C_R   0.578657 0.603970 0.805142 0.176448
C73   C     C_R   0.921343 0.103973 0.194859 0.176454
C74   C     C_R   0.078656 0.103971 0.805141 0.176440
C75   C     C_R   0.667966 0.604877 0.801865 -0.177166
C76   C     C_R   0.332034 0.604878 0.198135 -0.177176
C77   C     C_R   0.167966 0.104878 0.801865 -0.177173
C78   C     C_R   0.089365 0.141410 0.408388 -0.053536
C79   C     C_R   0.832034 0.104878 0.198136 -0.177167
C80   C     C_3   0.231981 0.376893 0.090485 -0.182460
C81   C     C_3   0.768012 0.376889 0.909502 -0.182474
C82   C     C_3   0.731987 0.876886 0.090497 -0.182472
C83   C     C_3   0.268023 0.876897 0.909521 -0.182482
C84   C     C_3   0.147759 0.265256 0.229553 -0.124371
C85   C     C_3   0.852206 0.265234 0.770429 -0.124389
C86   C     C_3   0.647778 0.765252 0.229562 -0.124393
C87   C     C_3   0.352231 0.765254 0.770447 -0.124372
C88   C     C_3   0.637395 0.429215 0.281663 -0.075596
C89   C     C_R   0.357373 0.682909 0.498935 0.123489
C90   C     C_3   0.362642 0.429116 0.718387 -0.075513
C91   C     C_3   0.137371 0.929131 0.281633 -0.075569
C92   C     C_3   0.862608 0.929231 0.718335 -0.075629
H1    H     H_    0.731653 0.760553 0.576781 0.137636
H2    H     H_    0.789891 0.622042 0.009976 0.143864
H3    H     H_    0.710109 0.122043 0.990025 0.143863
H4    H     H_    0.289890 0.122038 0.009981 0.143864
H5    H     H_    0.707257 0.212119 0.814173 0.191899
H6    H     H_    0.292743 0.212121 0.185829 0.191900
H7    H     H_    0.207258 0.712125 0.814175 0.191896
H8    H     H_    0.792744 0.712118 0.185828 0.191901
H9    H     H_    0.327574 0.675844 0.986002 0.151950
H10   H     H_    0.672430 0.675839 0.014003 0.151945
H11   H     H_    0.827571 0.175844 0.986000 0.151940
H12   H     H_    0.268353 0.760558 0.423220 0.137608
H13   H     H_    0.172427 0.175845 0.013998 0.151954
H14   H     H_    0.635972 0.236858 0.917113 0.172777
H15   H     H_    0.364016 0.236864 0.082871 0.172767
H16   H     H_    0.135989 0.736871 0.917140 0.172767
H17   H     H_    0.864028 0.736858 0.082887 0.172777
H18   H     H_    0.293281 0.655455 0.321569 0.123546
H19   H     H_    0.706722 0.655453 0.678432 0.123558
H20   H     H_    0.793280 0.155454 0.321570 0.123557
H21   H     H_    0.206718 0.155456 0.678432 0.123547
H22   H     H_    0.720671 0.601904 0.828886 0.131565
H23   H     H_    0.231646 0.260562 0.576781 0.137605
H24   H     H_    0.279329 0.601905 0.171114 0.131562
H25   H     H_    0.220671 0.101905 0.828887 0.131563
H26   H     H_    0.779329 0.101905 0.171115 0.131566
H27   H     H_    0.438454 0.657162 0.676492 0.123383
H28   H     H_    0.561549 0.657160 0.323509 0.123400
H29   H     H_    0.938452 0.157159 0.676492 0.123399
H30   H     H_    0.061545 0.157166 0.323511 0.123390
H31   H     H_    0.596802 0.780320 0.335782 0.138897
H32   H     H_    0.403202 0.780322 0.664222 0.138890
H33   H     H_    0.096793 0.280331 0.335786 0.138895
H34   H     H_    0.768351 0.260557 0.423220 0.137630
H35   H     H_    0.903194 0.280311 0.664228 0.138898
H36   H     H_    0.234471 0.340399 0.034562 0.134233
H37   H     H_    0.239642 0.438885 0.080913 0.143632
H38   H     H_    0.178147 0.370634 0.063296 0.180413
H39   H     H_    0.765525 0.340393 0.965427 0.134243
H40   H     H_    0.760347 0.438879 0.919073 0.143636
H41   H     H_    0.821846 0.370636 0.936692 0.180414
H42   H     H_    0.734472 0.840388 0.034572 0.134244
H43   H     H_    0.739652 0.938876 0.080923 0.143632
H44   H     H_    0.678153 0.870636 0.063310 0.180414
H45   H     H_    0.241517 0.394856 0.538347 0.109019
H46   H     H_    0.265539 0.840397 0.965445 0.134234
H47   H     H_    0.260359 0.938886 0.919099 0.143625
H48   H     H_    0.321856 0.870647 0.936705 0.180417
H49   H     H_    0.102988 0.306589 0.189192 0.122612
H50   H     H_    0.134774 0.209198 0.247732 0.145050
H51   H     H_    0.156926 0.253329 0.169854 0.175753
H52   H     H_    0.896987 0.306556 0.810809 0.122621
H53   H     H_    0.865181 0.209175 0.752239 0.145032
H54   H     H_    0.843030 0.253307 0.830117 0.175754
H55   H     H_    0.603000 0.806575 0.189193 0.122616
H56   H     H_    0.758493 0.394845 0.461660 0.108973
H57   H     H_    0.634803 0.709191 0.247748 0.145034
H58   H     H_    0.656949 0.753329 0.169866 0.175755
H59   H     H_    0.397004 0.806584 0.810811 0.122608
H60   H     H_    0.365213 0.709194 0.752269 0.145055
H61   H     H_    0.343062 0.753330 0.830145 0.175753
H62   H     H_    0.650611 0.366441 0.294192 0.111469
H63   H     H_    0.683963 0.467079 0.319455 0.124506
H64   H     H_    0.603334 0.439708 0.191258 0.208673
H65   H     H_    0.349435 0.366337 0.705784 0.111354
H66   H     H_    0.316070 0.466957 0.680728 0.124538
H67   H     H_    0.741514 0.894842 0.538355 0.108964
H68   H     H_    0.396757 0.439541 0.808820 0.208694
H69   H     H_    0.150581 0.866356 0.294210 0.111394
H70   H     H_    0.183941 0.966978 0.319348 0.124521
H71   H     H_    0.103283 0.939582 0.191216 0.208685
H72   H     H_    0.849397 0.866457 0.705820 0.111496
H73   H     H_    0.816036 0.967088 0.680535 0.124507
H74   H     H_    0.896669 0.939735 0.808737 0.208682
H75   H     H_    0.258484 0.894845 0.461653 0.108995
H76   H     H_    0.210110 0.622042 0.990023 0.143865
I1    I     I_    0.778040 0.474392 0.730251 -0.428732
I2    I     I_    0.532482 0.578298 0.879386 -0.402482
I3    I     I_    0.967520 0.078314 0.120614 -0.402504
I4    I     I_    0.032483 0.078300 0.879388 -0.402526
I5    I     I_    0.221961 0.474388 0.269754 -0.428713
I6    I     I_    0.278039 0.974392 0.730244 -0.428724
I7    I     I_    0.721961 0.974394 0.269750 -0.428735
I8    I     I_    0.515122 0.335628 0.836277 -0.379719
I9    I     I_    0.484934 0.335540 0.163850 -0.379598
I10   I     I_    0.015035 0.835506 0.836088 -0.379626
I11   I     I_    0.984865 0.835627 0.163722 -0.379629
I12   I     I_    0.467518 0.578302 0.120613 -0.402505
N1    N     N_R   0.389060 0.424180 0.294540 -0.117456
N2    N     N_R   0.374530 0.423490 0.443400 -0.134045
N3    N     N_R   0.125470 0.923490 0.556600 -0.134043
N4    N     N_R   0.874530 0.923490 0.443400 -0.134043
N5    N     N_R   0.555250 0.423100 0.705420 -0.095085
N6    N     N_R   0.444750 0.423100 0.294580 -0.095089
N7    N     N_R   0.055250 0.923100 0.705420 -0.095090
N8    N     N_R   0.944750 0.923100 0.294580 -0.095087
N9    N     N_R   0.375210 0.577180 0.443400 -0.051582
N10   N     N_R   0.624790 0.577180 0.556600 -0.051594
N11   N     N_R   0.875210 0.077180 0.443400 -0.051594
N12   N     N_R   0.610940 0.424180 0.705460 -0.117449
N13   N     N_R   0.124790 0.077180 0.556600 -0.051585
N14   N     N_R   0.445430 0.577570 0.294580 -0.067073
N15   N     N_R   0.554570 0.577570 0.705420 -0.067078
N16   N     N_R   0.945430 0.077570 0.294580 -0.067075
N17   N     N_R   0.054570 0.077570 0.705420 -0.067072
N18   N     N_R   0.611620 0.576500 0.705460 -0.057357
N19   N     N_R   0.388380 0.576500 0.294540 -0.057358
N20   N     N_R   0.111620 0.076500 0.705460 -0.057357
N21   N     N_R   0.888380 0.076500 0.294540 -0.057357
N22   N     N_R   0.421010 0.576890 0.556640 -0.038749
N23   N     N_R   0.889060 0.924180 0.294540 -0.117452
N24   N     N_R   0.578990 0.576890 0.443360 -0.038772
N25   N     N_R   0.921010 0.076890 0.556640 -0.038768
N26   N     N_R   0.078990 0.076890 0.443360 -0.038762
N27   N     N_R   0.110940 0.924180 0.705460 -0.117456
N28   N     N_R   0.579670 0.423790 0.443360 -0.116545
N29   N     N_R   0.420330 0.423790 0.556640 -0.116543
N30   N     N_R   0.079670 0.923790 0.443360 -0.116547
N31   N     N_R   0.920330 0.923790 0.556640 -0.116539
N32   N     N_R   0.625470 0.423490 0.556600 -0.134044
Ni1   Ni    Ni4+2 0.383200 0.500680 0.370150 0.230017
Ni2   Ni    Ni4+2 0.616800 0.500680 0.629850 0.230007
Ni3   Ni    Ni4+2 0.883200 0.000680 0.370150 0.230011
Ni4   Ni    Ni4+2 0.116800 0.000680 0.629850 0.230017
Ni5   Ni    Ni4+2 0.512440 0.500680 0.370150 0.283156
Ni6   Ni    Ni4+2 0.487560 0.500680 0.629850 0.283166
Ni7   Ni    Ni4+2 0.012440 0.000680 0.370150 0.283167
Ni8   Ni    Ni4+2 0.987560 0.000680 0.629850 0.283157
O1    O     O_3   0.280866 0.353086 0.202104 -0.606865
O2    O     O_3   0.399912 0.451764 0.681834 -0.590058
O3    O     O_3   0.100064 0.951733 0.318132 -0.590057
O4    O     O_3   0.899953 0.951756 0.681880 -0.590085
O5    O     O_3   0.719129 0.353079 0.797884 -0.606863
O6    O     O_3   0.780871 0.853079 0.202115 -0.606861
O7    O     O_3   0.219137 0.853092 0.797901 -0.606858
O8    O     O_3   0.209802 0.297029 0.326278 -0.599037
O9    O     O_3   0.790174 0.297026 0.673708 -0.599036
O10   O     O_3   0.709814 0.797039 0.326283 -0.599030
O11   O     O_3   0.290191 0.797029 0.673721 -0.599036
O12   O     O_3   0.600046 0.451745 0.318113 -0.590067

loop_
_geom_bond_atom_site_label_1
_geom_bond_atom_site_label_2
_ccdc_geom_bond_type
C21   C26   D    
C40   N28   A    
N25   Ni8   S    
C4    C16   S    
N17   N20   A    
C32   C48   S    
N10   N24   A    
C86   H55   S    
C69   N11   A    
C72   N15   A    
C4    C70   A    
C53   C59   A    
C10   H32   S    
C6    C75   A    
C11   C18   S    
N9    Ni1   S    
C83   O7    S    
N3    N30   A    
C6    C72   A    
N31   Ni8   S    
C82   O6    S    
C22   H45   S    
C81   O5    S    
C30   C35   D    
N5    N12   A    
C50   I5    S    
N29   Ni6   S    
C88   H64   S    
N23   Ni3   S    
C3    C69   A    
C85   H53   S    
C90   O2    S    
C77   H25   S    
C10   C15   D    
C86   H58   S    
N11   N25   A    
C37   H10   S    
C69   H20   S    
C17   H34   S    
C81   H39   S    
C20   C25   D    
C28   H15   S    
C21   O11   S    
C66   N9    A    
C29   C33   D    
N3    Ni4   S    
C40   C62   A    
C1    O1    S    
C44   H76   S    
C51   N3    A    
C82   H43   S    
C53   N5    A    
N21   Ni3   S    
C57   N8    A    
C26   C64   S    
N11   Ni3   S    
C80   O1    S    
C12   C59   A    
C92   H73   S    
C28   C32   D    
C45   N22   A    
C79   N21   A    
C30   C60   S    
C25   H67   S    
N2    Ni1   S    
C43   O4    S    
C87   H61   S    
C91   H70   S    
N13   N26   A    
C8    C39   S    
C55   N7    A    
C15   H12   S    
C73   I3    S    
N17   Ni8   S    
C45   C89   A    
C14   H1    S    
C74   I4    S    
C41   O2    S    
C42   N30   A    
C43   C65   A    
N15   N18   A    
C41   N29   A    
C92   H72   S    
C31   H5    S    
C22   C63   S    
C70   H21   S    
C87   H59   S    
C82   H44   S    
C50   C63   A    
C56   H28   S    
C91   H71   S    
C50   N2    A    
C2    C14   S    
C67   H29   S    
C85   H52   S    
N12   Ni2   S    
C83   H48   S    
C66   C89   A    
N7    Ni8   S    
C10   C21   S    
C23   C60   A    
C12   N12   A    
N6    Ni5   S    
C29   C61   S    
C26   H75   S    
C20   O10   S    
N5    Ni6   S    
C13   C19   S    
C30   H17   S    
C27   C31   D    
C86   O10   S    
C88   H63   S    
C92   O4    S    
C80   H38   S    
C85   H54   S    
C7    C73   A    
C24   H56   S    
C86   H57   S    
C57   I11   S    
C1    N1    A    
C83   H46   S    
C81   H40   S    
C79   H26   S    
C80   H36   S    
C27   H14   S    
C34   C61   A    
N30   Ni7   S    
C23   N23   A    
C36   H9    S    
C33   H7    S    
C68   H19   S    
C72   I2    S    
C71   I12   S    
C90   H66   S    
C51   I6    S    
C34   O7    S    
C9    C14   D    
C78   N26   A    
C4    C78   A    
C38   H11   S    
C15   C89   S    
C19   O9    S    
C11   C16   D    
C9    C20   S    
N14   N19   A    
C46   H2    S    
C74   N17   A    
C68   N10   A    
N14   Ni5   S    
N28   N32   A    
C8    C74   A    
C6    C37   S    
C85   O9    S    
C29   H16   S    
C75   H22   S    
C66   H18   S    
N10   Ni2   S    
C52   I7    S    
C38   C47   D    
C18   O8    S    
C2    C56   A    
C9    H31   S    
C23   O6    S    
C88   O12   S    
N32   Ni2   S    
C5    C36   S    
C87   H60   S    
C83   H47   S    
C34   N27   A    
C55   I10   S    
C36   C44   D    
C40   O12   S    
C41   C63   A    
C91   O3    S    
C42   O3    S    
N18   Ni2   S    
C16   H23   S    
C42   C64   A    
N16   Ni7   S    
C43   N31   A    
N26   Ni7   S    
N13   Ni4   S    
C7    C79   A    
C54   C58   A    
N8    Ni7   S    
N28   Ni5   S    
C39   H13   S    
C24   C62   S    
C80   H37   S    
C48   H4    S    
C11   H33   S    
C18   C22   D    
C33   C44   S    
C3    C67   A    
C51   C64   A    
C52   N4    A    
N4    Ni3   S    
C76   N19   A    
C67   N25   A    
N1    Ni1   S    
N1    N6    A    
C81   H41   S    
C56   N24   A    
C28   C58   S    
N9    N22   A    
N8    N23   A    
C2    C68   A    
C84   H51   S    
C54   I9    S    
C13   C17   D    
N24   Ni5   S    
N22   Ni6   S    
C90   H65   S    
N19   Ni1   S    
C19   C24   D    
N16   N21   A    
N4    N31   A    
C5    C71   A    
C27   C59   S    
C1    C58   A    
C49   I1    S    
C45   H27   S    
C12   O5    S    
C8    C77   A    
C84   H49   S    
C5    C76   A    
C70   N13   A    
C87   O11   S    
C55   C61   A    
C49   N32   A    
N27   Ni4   S    
C76   H24   S    
C7    C38   S    
C32   H6    S    
C84   H50   S    
C3    C17   S    
C71   N14   A    
N2    N29   A    
C90   H68   S    
C78   H30   S    
C77   N20   A    
N20   Ni4   S    
C13   H35   S    
C75   N18   A    
C92   H74   S    
C57   C60   A    
C82   H42   S    
C54   N6    A    
C73   N16   A    
N7    N27   A    
C25   C65   S    
C47   H3    S    
C91   H69   S    
C49   C62   A    
C31   C47   S    
C37   C46   D    
C35   C46   S    
N15   Ni6   S    
C52   C65   A    
C35   H8    S    
C53   I8    S    
C88   H62   S    
C39   C48   D    
C84   O8    S    
