data_mof_unit_14878.cif
_audit_creation_date              2012-12-10T19:29:24-0500
_audit_creation_method            fapswitch 2.2
_symmetry_space_group_name_H-M    P1
_symmetry_Int_Tables_number       1
_space_group_crystal_system       triclinic
_cell_length_a                    22.199282
_cell_length_b                    22.361023
_cell_length_c                    14.991873
_cell_angle_alpha                 90.665446
_cell_angle_beta                  89.976796
_cell_angle_gamma                 89.972531
_cell_volume                      7441.44219939

loop_
_atom_site_label
_atom_site_type_symbol
_atom_type_description
_atom_site_fract_x
_atom_site_fract_y
_atom_site_fract_z
_atom_type_partial_charge
C1    C     C_R   0.418928 0.918832 0.499597 0.897429
C2    C     C_R   0.581483 0.080841 0.500384 0.892821
C3    C     C_R   0.581859 0.919570 0.499634 0.896623
C4    C     C_R   0.418693 0.080991 0.500380 0.895435
C5    C     C_R   0.918255 0.419421 0.499706 0.898751
C6    C     C_R   0.081370 0.580922 0.500377 0.894793
C7    C     C_R   0.080922 0.418696 0.499695 0.898895
C8    C     C_R   0.918567 0.580925 0.500330 0.890372
C9    C     C_1   0.335843 0.161800 0.502373 0.110319
C10   C     C_1   0.669442 0.843806 0.497685 0.070473
C11   C     C_1   0.661728 0.164226 0.503467 0.115972
C12   C     C_1   0.337800 0.836527 0.498314 0.063082
C13   C     C_1   0.838759 0.664847 0.500780 0.110887
C14   C     C_1   0.160979 0.335370 0.499496 0.066426
C15   C     C_1   0.164244 0.661665 0.502475 0.110351
C16   C     C_1   0.830749 0.343577 0.502695 0.050100
C17   C     C_1   0.499837 0.999660 0.190191 0.169798
C18   C     C_1   0.499750 0.999860 0.809823 0.158745
C19   C     C_1   0.000656 0.499848 0.190171 0.166260
C20   C     C_1   0.999594 0.499490 0.809818 0.161862
C21   C     C_3   0.483458 0.945495 0.969285 -0.018147
C22   C     C_3   0.515411 0.053174 0.030788 0.004005
C23   C     C_3   0.538522 0.958553 0.028888 -0.023333
C24   C     C_3   0.460449 0.040230 0.971413 -0.009494
C25   C     C_3   0.953590 0.466928 0.970922 -0.024246
C26   C     C_3   0.047215 0.531387 0.028879 -0.009703
C27   C     C_3   0.005373 0.443218 0.028910 -0.020205
C28   C     C_3   0.995506 0.555016 0.971044 0.003885
C29   C     C_3   0.704028 0.736152 0.533527 0.345604
C30   C     C_3   0.303003 0.274370 0.493068 0.375416
C31   C     C_3   0.299944 0.727938 0.459172 0.343705
C32   C     C_3   0.688799 0.277889 0.522502 0.417762
C33   C     C_3   0.194041 0.222374 0.509338 0.346054
C34   C     C_3   0.808104 0.775310 0.462750 0.375321
C35   C     C_3   0.799103 0.232766 0.491929 0.348202
C36   C     C_3   0.201491 0.769951 0.544493 0.386680
C37   C     C_3   0.239333 0.210806 0.433572 -0.072808
C38   C     C_3   0.777010 0.802306 0.546539 -0.164414
C39   C     C_3   0.757907 0.217026 0.570565 -0.072604
C40   C     C_3   0.228829 0.796790 0.458886 -0.169907
C41   C     C_3   0.735012 0.710005 0.450170 -0.078370
C42   C     C_3   0.257664 0.286652 0.569608 -0.166996
C43   C     C_3   0.272440 0.701987 0.544532 -0.078787
C44   C     C_3   0.729788 0.294441 0.443375 -0.131647
C45   C     C_1   0.373815 0.124717 0.501457 -0.165364
C46   C     C_1   0.629381 0.878665 0.498620 -0.170809
C47   C     C_1   0.625296 0.125650 0.501628 -0.164519
C48   C     C_1   0.375037 0.874255 0.498532 -0.184012
C49   C     C_1   0.875018 0.626057 0.500997 -0.168608
C50   C     C_1   0.124197 0.373534 0.499186 -0.179269
C51   C     C_1   0.126316 0.624561 0.501430 -0.166413
C52   C     C_1   0.870847 0.378351 0.499723 -0.177772
C53   C     C_3   0.245035 0.219380 0.579278 0.355275
C54   C     C_3   0.746894 0.772665 0.413750 0.429448
C55   C     C_3   0.745698 0.228524 0.426396 0.350651
C56   C     C_3   0.264921 0.764705 0.585530 0.443422
C57   C     C_3   0.764743 0.739578 0.583329 0.359564
C58   C     C_3   0.251535 0.277898 0.424249 0.432363
C59   C     C_3   0.236750 0.734101 0.417148 0.356647
C60   C     C_3   0.742691 0.283287 0.587695 0.401049
C61   C     C_3   0.290382 0.206911 0.502539 -0.085056
C62   C     C_3   0.715772 0.799514 0.497244 -0.129865
C63   C     C_3   0.704732 0.211710 0.505521 -0.087407
C64   C     C_3   0.292562 0.791283 0.500067 -0.134162
C65   C     C_3   0.795700 0.712319 0.499540 -0.080630
C66   C     C_3   0.206117 0.290050 0.500273 -0.124885
C67   C     C_3   0.209422 0.707041 0.502905 -0.087431
C68   C     C_3   0.784106 0.299688 0.508111 -0.151035
C69   C     C_3   0.444012 0.986078 0.030133 0.447571
C70   C     C_3   0.554865 0.012719 0.970159 0.453528
C71   C     C_3   0.949103 0.523391 0.031332 0.451262
C72   C     C_3   0.051767 0.474930 0.968340 0.446844
C73   C     C_3   0.499476 0.999259 0.090640 -0.091177
C74   C     C_3   0.499565 0.999682 0.909414 -0.098576
C75   C     C_3   0.001086 0.499636 0.090556 -0.098142
C76   C     C_3   0.999540 0.498892 0.909427 -0.083519
N1    N     N_1   0.500020 0.000000 0.268010 -0.094785
N2    N     N_1   0.499980 1.000000 0.731990 -0.092580
N3    N     N_1   0.000020 0.500000 0.268010 -0.094427
N4    N     N_1   0.999980 0.500000 0.731990 -0.098194
O1    O     O_R   0.438390 0.938390 0.574460 -0.617098
O2    O     O_R   0.561610 0.061610 0.425540 -0.610463
O3    O     O_R   0.561610 0.938390 0.425540 -0.614915
O4    O     O_R   0.438390 0.061610 0.574460 -0.609255
O5    O     O_R   0.938390 0.438390 0.574460 -0.616496
O6    O     O_R   0.061610 0.561610 0.425540 -0.607444
O7    O     O_R   0.061610 0.438390 0.425540 -0.616773
O8    O     O_R   0.938390 0.561610 0.574460 -0.613901
O9    O     O_R   0.438400 0.938390 0.425520 -0.602098
O10   O     O_R   0.561600 0.061610 0.574480 -0.601762
O11   O     O_R   0.561600 0.938390 0.574480 -0.605397
O12   O     O_R   0.438400 0.061610 0.425520 -0.601650
O13   O     O_R   0.938400 0.438390 0.425520 -0.607200
O14   O     O_R   0.061600 0.561610 0.574480 -0.600418
O15   O     O_R   0.061600 0.438390 0.574480 -0.602786
O16   O     O_R   0.938400 0.561610 0.425520 -0.596750
Zn1   Zn    Zn3+2 0.500000 1.000000 0.599450 0.994369
Zn2   Zn    Zn3+2 0.500000 1.000000 0.400550 0.999615
Zn3   Zn    Zn3+2 0.000000 0.500000 0.599450 0.989508
Zn4   Zn    Zn3+2 0.000000 0.500000 0.400550 0.998381
O17   O     O_3   0.611246 0.029434 0.934644 -0.633215
C77   C     C_3   0.656581 0.026910 0.000557 0.057407
H1    H     H_    0.679057 0.982588 0.995788 0.150419
H2    H     H_    0.639201 0.033430 0.069796 0.120178
C78   C     C_3   0.703100 0.075702 0.982987 -0.298384
H3    H     H_    0.721688 0.069951 0.914556 0.237284
H4    H     H_    0.680875 0.120196 0.987655 0.221482
C79   C     C_3   0.754636 0.073477 0.050270 -0.984363
H5    H     H_    0.737110 0.078937 0.119307 0.270187
H6    H     H_    0.786887 0.110248 0.036946 0.272963
H7    H     H_    0.778917 0.030160 0.044455 0.270556
O18   O     O_3   0.387284 0.974566 0.068983 -0.637476
C80   C     C_3   0.345381 0.955662 0.003919 0.062265
H8    H     H_    0.351942 0.907292 0.989327 0.148155
H9    H     H_    0.349329 0.981236 0.941034 0.130714
C81   C     C_3   0.281912 0.964574 0.041285 -0.293774
H10   H     H_    0.276786 0.938044 0.103032 0.227068
H11   H     H_    0.275114 0.012547 0.058836 0.226179
C82   C     C_3   0.233811 0.945282 0.974231 -0.989407
H12   H     H_    0.234081 0.975556 0.916087 0.263374
H13   H     H_    0.188742 0.947788 0.006197 0.269217
H14   H     H_    0.241780 0.898568 0.951068 0.268950
O19   O     O_3   0.103813 0.451954 0.925930 -0.637042
C83   C     C_3   0.143248 0.425976 0.987977 0.063956
H15   H     H_    0.125038 0.382419 0.010225 0.140947
H16   H     H_    0.150947 0.455707 0.046815 0.128866
C84   C     C_3   0.203524 0.414299 0.941607 -0.298694
H17   H     H_    0.196653 0.382624 0.884802 0.227040
H18   H     H_    0.221325 0.456943 0.914801 0.230919
C85   C     C_3   0.249751 0.388087 0.005360 -0.980530
H19   H     H_    0.260453 0.421126 0.058855 0.268917
H20   H     H_    0.291813 0.377433 0.968349 0.271493
H21   H     H_    0.232290 0.346369 0.035465 0.267671
O20   O     O_3   0.897597 0.551074 0.068711 -0.632391
C86   C     C_3   0.852223 0.558147 0.003676 0.059600
H22   H     H_    0.821957 0.518597 0.005310 0.151989
H23   H     H_    0.870272 0.562914 0.934713 0.118853
C87   C     C_3   0.815448 0.614080 0.026154 -0.291253
H24   H     H_    0.796599 0.610353 0.094577 0.242998
H25   H     H_    0.845317 0.653943 0.024294 0.219999
C88   C     C_3   0.763873 0.622427 0.960133 -0.984203
H26   H     H_    0.781658 0.626698 0.891233 0.267103
H27   H     H_    0.738476 0.663683 0.977714 0.274122
H28   H     H_    0.732560 0.583749 0.962594 0.266249
N5    N     N_3   0.232307 0.169906 0.357985 -0.403294
H29   H     H_    0.191891 0.180736 0.326363 0.212265
H30   H     H_    0.227880 0.126686 0.382788 0.173007
N6    N     N_3   0.797355 0.853970 0.598431 -0.473171
H31   H     H_    0.834207 0.840278 0.636386 0.199031
H32   H     H_    0.763149 0.865610 0.643221 0.200142
N7    N     N_3   0.770354 0.174550 0.641141 -0.403783
H33   H     H_    0.811301 0.186837 0.670335 0.209496
H34   H     H_    0.776094 0.132362 0.611784 0.172451
N8    N     N_3   0.207419 0.849697 0.412674 -0.474226
H35   H     H_    0.167462 0.838017 0.380126 0.197352
H36   H     H_    0.238834 0.860154 0.363396 0.200920
N9    N     N_3   0.715094 0.659869 0.394728 -0.405851
H37   H     H_    0.671395 0.669358 0.373332 0.213124
H38   H     H_    0.713023 0.621886 0.434433 0.171993
N10   N     N_3   0.264996 0.329501 0.642849 -0.471739
H39   H     H_    0.296363 0.311627 0.687058 0.196455
H40   H     H_    0.224063 0.332659 0.676931 0.201836
N11   N     N_3   0.293936 0.650528 0.594024 -0.402317
H41   H     H_    0.339652 0.657384 0.607070 0.211932
H42   H     H_    0.290542 0.612828 0.552586 0.170296
N12   N     N_3   0.714337 0.338656 0.376588 -0.452160
H43   H     H_    0.679116 0.320969 0.338376 0.213531
H44   H     H_    0.751352 0.343436 0.334272 0.193698
O21   O     O_3   0.646912 0.721942 0.568809 -0.637332
C89   C     C_3   0.644090 0.661625 0.595289 0.101165
H45   H     H_    0.635671 0.660871 0.668272 0.149447
H46   H     H_    0.686123 0.635450 0.582970 0.128593
C90   C     C_3   0.590912 0.631555 0.548098 -0.319717
H47   H     H_    0.548682 0.655778 0.565503 0.236646
H48   H     H_    0.597102 0.633678 0.474752 0.215866
C91   C     C_3   0.584641 0.566398 0.574884 -1.006315
H49   H     H_    0.625699 0.540832 0.555859 0.266938
H50   H     H_    0.545307 0.546371 0.540027 0.269815
H51   H     H_    0.577421 0.563245 0.648001 0.277319
O22   O     O_3   0.362244 0.294751 0.476912 -0.631748
C92   C     C_3   0.373658 0.348070 0.524768 0.096574
H52   H     H_    0.380965 0.337653 0.596286 0.168021
H53   H     H_    0.336031 0.380706 0.517891 0.136426
C93   C     C_3   0.430877 0.376747 0.488502 -0.327238
H54   H     H_    0.469201 0.345084 0.495165 0.242392
H55   H     H_    0.424777 0.386831 0.416637 0.222183
C94   C     C_3   0.445569 0.434492 0.538929 -1.006566
H56   H     H_    0.408112 0.467092 0.532515 0.275887
H57   H     H_    0.487061 0.454383 0.510652 0.262019
H58   H     H_    0.453036 0.425215 0.610690 0.276549
O23   O     O_3   0.354413 0.710331 0.417886 -0.635157
C95   C     C_3   0.350207 0.651651 0.382236 0.105036
H59   H     H_    0.352106 0.654441 0.308455 0.149579
H60   H     H_    0.307869 0.627552 0.399589 0.133002
C96   C     C_3   0.404404 0.615209 0.413382 -0.330888
H61   H     H_    0.446632 0.637955 0.392840 0.236853
H62   H     H_    0.404114 0.612348 0.487298 0.215367
C97   C     C_3   0.403599 0.552121 0.373536 -0.992941
H63   H     H_    0.363620 0.527278 0.397820 0.265922
H64   H     H_    0.444908 0.527898 0.393940 0.275933
H65   H     H_    0.402469 0.553783 0.299533 0.270595
O24   O     O_3   0.627497 0.293359 0.533514 -0.629299
C98   C     C_3   0.620203 0.354586 0.554446 0.124783
H66   H     H_    0.586591 0.373292 0.507497 0.159032
H67   H     H_    0.661665 0.381804 0.546055 0.118690
C99   C     C_3   0.595270 0.360705 0.649294 -0.323601
H68   H     H_    0.549718 0.340149 0.651952 0.230118
H69   H     H_    0.624656 0.336259 0.696369 0.254507
C100  C     C_3   0.590856 0.425951 0.679128 -1.017421
H70   H     H_    0.635591 0.447995 0.676038 0.260893
H71   H     H_    0.574047 0.428491 0.748820 0.275873
H72   H     H_    0.559034 0.450176 0.635719 0.285223
O25   O     O_3   0.134633 0.200254 0.515068 -0.635560
C101  C     C_3   0.134251 0.137603 0.526835 0.096622
H73   H     H_    0.114090 0.128400 0.593048 0.150100
H74   H     H_    0.179689 0.116216 0.525517 0.133262
C102  C     C_3   0.094596 0.108592 0.455035 -0.328719
H75   H     H_    0.049308 0.129734 0.456135 0.238960
H76   H     H_    0.114679 0.115858 0.388249 0.211877
C103  C     C_3   0.087689 0.041592 0.469850 -0.992487
H77   H     H_    0.132388 0.019234 0.468791 0.269516
H78   H     H_    0.059318 0.021807 0.416182 0.273870
H79   H     H_    0.065497 0.033677 0.534964 0.272943
O26   O     O_3   0.863954 0.786860 0.421091 -0.633307
C104  C     C_3   0.883530 0.845594 0.439479 0.094327
H80   H     H_    0.901502 0.848390 0.508609 0.165841
H81   H     H_    0.846494 0.878718 0.431345 0.134119
C105  C     C_3   0.934354 0.860793 0.374812 -0.319183
H82   H     H_    0.973584 0.831167 0.387556 0.231297
H83   H     H_    0.918939 0.852907 0.305121 0.225230
C106  C     C_3   0.953917 0.925837 0.384951 -1.008948
H84   H     H_    0.916095 0.956006 0.367339 0.271294
H85   H     H_    0.992275 0.934763 0.339474 0.268878
H86   H     H_    0.968373 0.935323 0.454528 0.274405
O27   O     O_3   0.859309 0.214302 0.478696 -0.635535
C107  C     C_3   0.863071 0.152036 0.462471 0.098713
H87   H     H_    0.880922 0.145083 0.393944 0.151251
H88   H     H_    0.819204 0.127848 0.466260 0.131065
C108  C     C_3   0.907490 0.124769 0.528543 -0.329529
H89   H     H_    0.950714 0.149745 0.526359 0.239482
H90   H     H_    0.889205 0.128637 0.597249 0.210877
C109  C     C_3   0.919582 0.059077 0.506911 -0.994947
H91   H     H_    0.876909 0.033151 0.507524 0.268896
H92   H     H_    0.950520 0.040222 0.557515 0.273832
H93   H     H_    0.941072 0.054753 0.440257 0.276143
O28   O     O_3   0.149453 0.783266 0.595304 -0.626726
C110  C     C_3   0.129653 0.842106 0.580408 0.102732
H94   H     H_    0.106212 0.844112 0.514965 0.162879
H95   H     H_    0.167560 0.874646 0.581865 0.135368
C111  C     C_3   0.085076 0.859514 0.653897 -0.312897
H96   H     H_    0.046084 0.828334 0.652142 0.233702
H97   H     H_    0.107460 0.855795 0.719935 0.224434
C112  C     C_3   0.062340 0.923330 0.642710 -1.008591
H98   H     H_    0.100482 0.955389 0.646737 0.268252
H99   H     H_    0.029696 0.934357 0.696570 0.270759
H100  H     H_    0.039365 0.927871 0.577426 0.269840
O29   O     O_3   0.732706 0.787136 0.324740 -0.615340
C113  C     C_3   0.754639 0.844557 0.304404 0.104974
H101  H     H_    0.803516 0.841551 0.289108 0.170091
H102  H     H_    0.747191 0.877286 0.359974 0.121466
C114  C     C_3   0.721987 0.867582 0.221976 -0.316163
H103  H     H_    0.729548 0.836176 0.165026 0.231258
H104  H     H_    0.672803 0.869862 0.235636 0.234983
C115  C     C_3   0.744449 0.929618 0.196667 -1.005443
H105  H     H_    0.735539 0.962230 0.251568 0.273316
H106  H     H_    0.720558 0.944723 0.136049 0.258417
H107  H     H_    0.793544 0.928425 0.182385 0.269698
O30   O     O_3   0.246494 0.186665 0.659269 -0.640874
C116  C     C_3   0.197886 0.202931 0.715681 0.109327
H108  H     H_    0.167063 0.164031 0.720489 0.142934
H109  H     H_    0.170635 0.241496 0.691730 0.148329
C117  C     C_3   0.221926 0.217451 0.809059 -0.338149
H110  H     H_    0.244966 0.177434 0.836189 0.232663
H111  H     H_    0.255291 0.254292 0.805428 0.220247
C118  C     C_3   0.171298 0.236273 0.872351 -0.971334
H112  H     H_    0.148369 0.276939 0.847332 0.267132
H113  H     H_    0.190280 0.246536 0.939313 0.271843
H114  H     H_    0.137862 0.199631 0.878738 0.266865
O31   O     O_3   0.282052 0.778011 0.674349 -0.612190
C119  C     C_3   0.274199 0.839552 0.694357 0.117599
H115  H     H_    0.235497 0.844621 0.740874 0.157600
H116  H     H_    0.264452 0.867646 0.635244 0.115865
C120  C     C_3   0.331163 0.863535 0.739709 -0.336618
H117  H     H_    0.335294 0.843939 0.807239 0.212482
H118  H     H_    0.371357 0.850069 0.700048 0.247015
C121  C     C_3   0.330017 0.931639 0.747824 -0.961024
H119  H     H_    0.328624 0.952020 0.680633 0.277806
H120  H     H_    0.371257 0.947543 0.782481 0.254551
H121  H     H_    0.289986 0.946486 0.786380 0.257647
O32   O     O_3   0.742230 0.197160 0.344324 -0.642218
C122  C     C_3   0.787138 0.216780 0.284515 0.108721
H122  H     H_    0.820020 0.179867 0.274713 0.147310
H123  H     H_    0.812789 0.256921 0.307879 0.146814
C123  C     C_3   0.757957 0.230379 0.194664 -0.346250
H124  H     H_    0.733483 0.190151 0.169890 0.237880
H125  H     H_    0.724876 0.267291 0.203202 0.218451
C124  C     C_3   0.804865 0.248431 0.125597 -0.957400
H126  H     H_    0.828940 0.289472 0.148015 0.269784
H127  H     H_    0.782218 0.257655 0.061176 0.271004
H128  H     H_    0.837959 0.211752 0.114985 0.264792
O33   O     O_3   0.250566 0.305418 0.340032 -0.617087
C125  C     C_3   0.270558 0.365148 0.347181 0.112889
H129  H     H_    0.320604 0.365894 0.346220 0.174662
H130  H     H_    0.254124 0.388043 0.408960 0.116458
C126  C     C_3   0.247070 0.399707 0.267155 -0.331271
H131  H     H_    0.262651 0.377231 0.204882 0.236330
H132  H     H_    0.196983 0.399473 0.267813 0.229063
C127  C     C_3   0.269272 0.464285 0.268403 -0.995146
H133  H     H_    0.254371 0.487609 0.330429 0.268450
H134  H     H_    0.250493 0.488272 0.210228 0.267121
H135  H     H_    0.319207 0.465443 0.264290 0.271757
O34   O     O_3   0.778633 0.719524 0.669874 -0.643247
C128  C     C_3   0.739761 0.745872 0.734003 0.113521
H136  H     H_    0.709051 0.710678 0.759061 0.149086
H137  H     H_    0.711233 0.782916 0.708060 0.151301
C129  C     C_3   0.777176 0.769794 0.812210 -0.346031
H138  H     H_    0.803810 0.732723 0.841283 0.235358
H139  H     H_    0.809082 0.804246 0.788011 0.218421
C130  C     C_3   0.737239 0.797497 0.884605 -0.967679
H140  H     H_    0.711911 0.836180 0.857746 0.268291
H141  H     H_    0.765654 0.813419 0.940998 0.268015
H142  H     H_    0.704842 0.763894 0.909979 0.266873
O35   O     O_3   0.741159 0.305557 0.676487 -0.624275
C131  C     C_3   0.753399 0.367546 0.681272 0.067739
H143  H     H_    0.719616 0.388439 0.726403 0.164622
H144  H     H_    0.749543 0.390879 0.616442 0.118923
C132  C     C_3   0.815619 0.378386 0.722116 -0.319854
H145  H     H_    0.816087 0.362356 0.792021 0.226047
H146  H     H_    0.850235 0.352800 0.684287 0.239460
C133  C     C_3   0.831582 0.444809 0.721276 -0.928442
H147  H     H_    0.827654 0.462891 0.652836 0.266503
H148  H     H_    0.878729 0.451010 0.743908 0.276009
H149  H     H_    0.801086 0.470327 0.766508 0.244211
O36   O     O_3   0.217149 0.715476 0.331643 -0.638540
C134  C     C_3   0.252433 0.741779 0.264002 0.111673
H150  H     H_    0.279018 0.705892 0.230749 0.147215
H151  H     H_    0.284816 0.776457 0.288382 0.147312
C135  C     C_3   0.210921 0.769575 0.194490 -0.337865
H152  H     H_    0.179649 0.734883 0.167917 0.242314
H153  H     H_    0.183675 0.805654 0.226164 0.214696
C136  C     C_3   0.246842 0.795704 0.117364 -0.967632
H154  H     H_    0.278570 0.830404 0.142410 0.266057
H155  H     H_    0.215540 0.816531 0.069043 0.274111
H156  H     H_    0.272691 0.759934 0.082371 0.269233
N13   N     N_3   0.579143 0.912044 0.059967 -0.434630
H157  H     H_    0.605200 0.897953 0.005600 0.203263
H158  H     H_    0.608218 0.931329 0.106839 0.166058
N14   N     N_3   0.419352 0.086564 0.941102 -0.426608
H159  H     H_    0.390512 0.097098 0.994104 0.214904
H160  H     H_    0.392942 0.068384 0.889947 0.172464
N15   N     N_3   0.468781 0.885877 0.935782 -0.433217
H161  H     H_    0.452869 0.861072 0.989510 0.204966
H162  H     H_    0.433506 0.890007 0.890249 0.165450
N16   N     N_3   0.531440 0.112685 0.063398 -0.422183
H163  H     H_    0.547086 0.136911 0.008899 0.215394
H164  H     H_    0.567595 0.108203 0.107357 0.175199
N17   N     N_3   0.007909 0.382032 0.060940 -0.437107
H165  H     H_    0.018823 0.354334 0.006693 0.204945
H166  H     H_    0.043053 0.379453 0.107041 0.166518
N18   N     N_3   0.991703 0.616474 0.940338 -0.423202
H167  H     H_    0.980851 0.643355 0.995519 0.214159
H168  H     H_    0.955662 0.619134 0.895824 0.173853
N19   N     N_3   0.904063 0.429243 0.940458 -0.440263
H169  H     H_    0.879312 0.417053 0.996682 0.205250
H170  H     H_    0.875894 0.455347 0.901213 0.163736
N20   N     N_3   0.097034 0.568580 0.059808 -0.427498
H171  H     H_    0.127117 0.572987 0.006668 0.213939
H172  H     H_    0.119456 0.545574 0.110128 0.169553

loop_
_geom_bond_atom_site_label_1
_geom_bond_atom_site_label_2
_ccdc_geom_bond_type
C17   C73   S    
N9    H37   S    
C122  H122  S    
N5    H29   S    
O33   C125  S    
C98   H67   S    
N17   H165  S    
N11   H42   S    
O15   Zn3   S    
C111  H97   S    
C104  C105  S    
C79   H5    S    
C31   C59   S    
C2    O10   A    
N18   H167  S    
C91   H51   S    
C118  H112  S    
C131  H143  S    
C6    O14   A    
C70   C74   S    
C109  H92   S    
C15   C51   T    
C127  H135  S    
C96   C97   S    
C111  C112  S    
C90   H48   S    
O2    Zn2   S    
C27   C75   S    
C105  H82   S    
C92   H53   S    
C117  H111  S    
C109  H93   S    
O24   C98   S    
C20   N4    T    
O35   C131  S    
C95   C96   S    
C88   H28   S    
C134  H151  S    
C33   O25   S    
C99   H68   S    
C92   H52   S    
C129  H138  S    
C38   C57   S    
C4    O4    A    
C18   N2    T    
C23   N13   S    
O13   Zn4   S    
C38   N6    S    
N8    H35   S    
C87   H25   S    
C83   C84   S    
C34   C54   S    
C116  H109  S    
C3    O3    A    
C28   C71   S    
C114  H104  S    
C110  C111  S    
C86   H23   S    
C121  H121  S    
C87   C88   S    
C1    C48   S    
C2    C47   S    
C26   N20   S    
C3    C46   S    
C79   H7    S    
C25   C76   S    
C85   H19   S    
C121  H120  S    
C44   C55   S    
C14   C50   T    
C131  C132  S    
C39   C60   S    
N14   H159  S    
C81   H11   S    
C106  H86   S    
N7    H34   S    
C58   O33   S    
C134  H150  S    
C132  H145  S    
C30   C61   S    
C30   O22   S    
C97   H64   S    
C29   O21   S    
C27   N17   S    
C107  C108  S    
C95   H60   S    
C80   H9    S    
C130  H141  S    
N15   H161  S    
C70   O17   S    
O19   C83   S    
C78   H4    S    
C31   C43   S    
C129  C130  S    
C9    C61   S    
C129  H139  S    
C122  H123  S    
N6    H32   S    
C11   C63   S    
C117  C118  S    
C42   C53   S    
C114  H103  S    
C12   C64   S    
C101  H74   S    
C128  H137  S    
C89   H45   S    
C39   N7    S    
C107  H87   S    
O29   C113  S    
C59   C67   S    
C53   C61   S    
C93   H55   S    
C115  H105  S    
C126  H132  S    
O3    Zn2   S    
C55   C63   S    
C56   C64   S    
C25   C71   S    
C5    O5    A    
C91   H50   S    
C120  C121  S    
N12   H44   S    
C124  H127  S    
C23   C70   S    
C103  H77   S    
C127  H134  S    
C33   C66   S    
C100  H70   S    
C4    C45   S    
C136  H155  S    
C14   C66   S    
C125  H130  S    
O8    Zn3   S    
C118  H114  S    
C119  H115  S    
C132  H146  S    
O36   C134  S    
C117  H110  S    
C102  H75   S    
C96   H61   S    
C21   C69   S    
C8    O8    A    
N10   H40   S    
C84   H18   S    
O5    Zn3   S    
N7    H33   S    
C15   C67   S    
N2    Zn1   S    
C26   C75   S    
C108  H90   S    
C135  H153  S    
N4    Zn3   S    
C35   O27   S    
C83   H16   S    
O7    Zn4   S    
O28   C110  S    
C29   C41   S    
C42   N10   S    
C7    C50   S    
C114  C115  S    
O20   C86   S    
C135  C136  S    
C6    O6    A    
C93   C94   S    
O9    Zn2   S    
C113  H101  S    
C115  H107  S    
O16   Zn4   S    
C104  H81   S    
C79   H6    S    
C105  C106  S    
C32   O24   S    
C77   H1    S    
N9    H38   S    
N16   H163  S    
C120  H117  S    
C38   C62   S    
C22   C70   S    
C103  H79   S    
C96   H62   S    
C9    C45   T    
O17   C77   S    
C26   C72   S    
C28   N18   S    
C11   C47   T    
C108  H89   S    
C119  C120  S    
C12   C48   T    
O26   C104  S    
C71   O20   S    
C105  H83   S    
O27   C107  S    
C86   H22   S    
O25   C101  S    
C102  C103  S    
C133  H148  S    
O4    Zn1   S    
C88   H27   S    
C123  H124  S    
C69   O18   S    
C99   H69   S    
C82   H14   S    
C1    O1    A    
C31   O23   S    
C100  H72   S    
C25   N19   S    
C77   C78   S    
C3    O11   A    
O32   C122  S    
C124  H126  S    
N20   H171  S    
C94   H58   S    
C125  H129  S    
C7    O7    A    
C133  H149  S    
N19   H169  S    
C69   C73   S    
N13   H158  S    
O6    Zn4   S    
O10   Zn1   S    
N8    H36   S    
N17   H166  S    
C116  H108  S    
C56   O31   S    
C10   C62   S    
N18   H168  S    
N5    H30   S    
C110  H95   S    
C98   C99   S    
N3    Zn4   S    
C123  C124  S    
C133  H147  S    
C54   C62   S    
C111  H96   S    
C90   H47   S    
C33   C37   S    
O23   C95   S    
C136  H156  S    
C35   C39   S    
C36   C56   S    
C112  H100  S    
C5    O13   A    
C17   N1    T    
C109  H91   S    
C106  H85   S    
O11   Zn1   S    
C19   N3    T    
C41   N9    S    
C29   C57   S    
C21   C23   S    
C72   O19   S    
C22   C24   S    
C2    O2    A    
C85   H21   S    
C102  H76   S    
C32   C60   S    
C84   H17   S    
C28   C76   S    
C7    O15   A    
O22   C92   S    
C80   H8    S    
C92   C93   S    
C16   C52   T    
C60   O35   S    
C57   C65   S    
C134  C135  S    
C82   H12   S    
N15   H162  S    
C131  H144  S    
C78   H3    S    
O31   C119  S    
C94   H56   S    
N10   H39   S    
C128  H136  S    
C112  H98   S    
C89   H46   S    
C24   N14   S    
C59   O36   S    
C107  H88   S    
C87   H24   S    
C130  H140  S    
O30   C116  S    
C60   C68   S    
C115  H106  S    
C126  H131  S    
C116  C117  S    
C54   O29   S    
C30   C42   S    
C8    C49   S    
C27   C72   S    
C55   O32   S    
C4    O12   A    
C89   C90   S    
C43   N11   S    
C86   C87   S    
C123  H125  S    
C98   H66   S    
C120  H118  S    
C36   O28   S    
O21   C89   S    
C85   H20   S    
N11   H41   S    
C8    O16   A    
C72   C76   S    
C103  H78   S    
C36   C67   S    
O12   Zn2   S    
C13   C65   S    
C136  H154  S    
C93   H54   S    
C125  C126  S    
C35   C68   S    
C118  H113  S    
C119  H116  S    
C121  H119  S    
C81   H10   S    
C20   C76   S    
C58   C66   S    
C10   C46   T    
C5    C52   S    
C97   H63   S    
C16   C68   S    
C6    C51   S    
C37   C58   S    
C80   C81   S    
C130  H142  S    
C18   C74   S    
C40   C59   S    
N19   H170  S    
C40   N8    S    
C23   C73   S    
C34   C65   S    
N14   H160  S    
O18   C80   S    
C34   O26   S    
C24   C69   S    
C33   C53   S    
C78   C79   S    
C35   C55   S    
C36   C40   S    
C122  C123  S    
N6    H31   S    
C112  H99   S    
C101  H73   S    
C128  C129  S    
C41   C65   S    
C21   C74   S    
C113  H102  S    
C22   N16   S    
O34   C128  S    
C126  C127  S    
C97   H65   S    
C104  H80   S    
C32   C44   S    
N1    Zn2   S    
C44   N12   S    
C77   H2    S    
C82   H13   S    
C13   C49   T    
C43   C67   S    
C91   H49   S    
N16   H164  S    
N12   H43   S    
C124  H128  S    
C44   C68   S    
C113  C114  S    
C127  H133  S    
C90   C91   S    
C29   C62   S    
C1    O9    A    
C34   C38   S    
C31   C64   S    
C57   O34   S    
C32   C63   S    
C101  C102  S    
C132  C133  S    
C37   C61   S    
C110  H94   S    
C25   C27   S    
C53   O30   S    
C39   C63   S    
C26   C28   S    
C40   C64   S    
C81   C82   S    
C95   H59   S    
C19   C75   S    
C84   C85   S    
C88   H26   S    
C71   C75   S    
C99   C100  S    
C24   C74   S    
O1    Zn1   S    
O14   Zn3   S    
C30   C58   S    
C100  H71   S    
C108  C109  S    
N20   H172  S    
C41   C54   S    
C94   H57   S    
C43   C56   S    
C135  H152  S    
C106  H84   S    
C42   C66   S    
C21   N15   S    
C22   C73   S    
C37   N5    S    
N13   H157  S    
C83   H15   S    
