data_mof_unit_56886.cif
_audit_creation_date              2012-12-10T17:36:50-0500
_audit_creation_method            fapswitch 2.2
_symmetry_space_group_name_H-M    P1
_symmetry_Int_Tables_number       1
_space_group_crystal_system       triclinic
_cell_length_a                    10.577773
_cell_length_b                    12.510469
_cell_length_c                    13.274316
_cell_angle_alpha                 117.956721
_cell_angle_beta                  74.276714
_cell_angle_gamma                 101.120052
_cell_volume                      1489.09167352

loop_
_atom_site_label
_atom_site_type_symbol
_atom_type_description
_atom_site_fract_x
_atom_site_fract_y
_atom_site_fract_z
_atom_type_partial_charge
C1    C     C_R   0.508128 0.855728 0.287083 0.788642
C2    C     C_3   0.039555 0.886643 0.428688 -0.173563
C3    C     C_3   0.986489 0.965446 0.390082 -0.181790
C4    C     C_3   0.877079 0.999744 0.499998 0.019674
C5    C     C_R   0.307269 0.288865 0.029364 -0.196335
C6    C     C_R   0.447968 0.231096 0.837699 -0.052159
C7    C     C_R   0.589895 0.812169 0.079891 -0.196627
C8    C     C_R   0.615250 0.730877 0.962659 -0.152236
C9    C     C_R   0.567134 0.610039 0.927087 -0.188552
C10   C     C_R   0.485945 0.569267 0.008395 0.080472
C11   C     C_R   0.445303 0.656436 0.125074 0.076316
C12   C     C_R   0.739923 0.000355 0.500305 0.773478
C13   C     C_R   0.444261 0.444899 0.977969 0.067583
C14   C     C_R   0.349773 0.411544 0.059220 0.163592
C15   C     C_R   0.297802 0.501070 0.168670 -0.257989
C16   C     C_R   0.344587 0.621912 0.201245 -0.213972
C17   C     C_R   0.495997 0.352263 0.869781 -0.235517
C18   C     C_R   0.355171 0.199048 0.918585 -0.206360
C19   C     C_R   0.509089 0.775195 0.162767 -0.113487
C20   C     C_R   0.736429 0.352372 0.350028 -0.294843
C21   C     C_R   0.305091 0.752048 0.629534 0.079801
C22   C     C_R   0.249760 0.646401 0.638152 -0.274017
C23   C     C_R   0.479509 0.145407 0.713989 0.770831
C24   C     C_R   0.322398 0.545381 0.582899 -0.175271
C25   C     C_R   0.455718 0.550412 0.528005 -0.043841
C26   C     C_R   0.504201 0.654904 0.507198 0.247366
C27   C     C_R   0.535949 0.449353 0.480926 -0.105629
C28   C     C_R   0.662170 0.453794 0.411953 0.108560
C29   C     C_R   0.713170 0.558017 0.400899 -0.319411
C30   C     C_R   0.632028 0.647814 0.429534 0.234842
C31   C     C_R   0.502459 0.347340 0.506198 0.405788
C32   C     C_R   0.686779 0.246430 0.359455 0.018405
C33   C     C_R   0.260101 0.999298 0.499200 0.742409
C34   C     C_3   0.960661 0.111571 0.569217 -0.161875
C35   C     C_3   0.072410 0.077412 0.459138 -0.137357
C36   C     C_3   0.123080 0.998636 0.498037 0.040717
C37   C     C_3   0.013474 0.032668 0.607867 -0.176250
C38   C     C_3   0.927594 0.920643 0.538632 -0.147171
Cu1   Cu    Cu3+1 0.529830 0.098270 0.475420 0.940663
Cu2   Cu    Cu3+1 0.470170 0.901730 0.524580 0.938761
H1    H     H_    0.133340 0.140339 0.424395 0.127044
H2    H     H_    0.573334 0.372008 0.807501 0.149441
H3    H     H_    0.637647 0.903120 0.106047 0.151306
H4    H     H_    0.593065 0.551518 0.835091 0.121122
H5    H     H_    0.677332 0.760482 0.899413 0.136803
H6    H     H_    0.300303 0.687975 0.286520 0.168967
H7    H     H_    0.742647 0.167047 0.311534 0.129330
H8    H     H_    0.812242 0.560439 0.349889 0.149155
H9    H     H_    0.831218 0.354468 0.293031 0.136682
H10   H     H_    0.247179 0.829639 0.669605 0.122460
H11   H     H_    0.925442 0.203556 0.626598 0.127291
H12   H     H_    0.269112 0.461725 0.575598 0.160891
H13   H     H_    0.148332 0.640822 0.682776 0.138772
H14   H     H_    0.027919 0.060075 0.696818 0.118579
H15   H     H_    0.865513 0.856308 0.571144 0.136484
H16   H     H_    0.074725 0.794653 0.371267 0.122203
H17   H     H_    0.971939 0.937921 0.301162 0.122483
H18   H     H_    0.315825 0.105761 0.894716 0.146680
H19   H     H_    0.222396 0.477383 0.230258 0.144175
H20   H     H_    0.234435 0.262818 0.090698 0.128318
N1    N     N_R   0.575030 0.246270 0.438190 -0.185759
N2    N     N_R   0.425760 0.754330 0.561190 -0.199558
O1    O     O_R   0.537510 0.972500 0.318130 -0.585298
O2    O     O_R   0.487140 0.806530 0.359650 -0.535241
O3    O     O_R   0.708330 0.082950 0.479220 -0.582535
O4    O     O_R   0.657960 0.916980 0.520740 -0.574386
O5    O     O_R   0.512860 0.193470 0.640350 -0.545910
O6    O     O_R   0.462490 0.027500 0.681870 -0.584841
O7    O     O_R   0.342040 0.083020 0.479260 -0.577021
O8    O     O_R   0.291670 0.917050 0.520780 -0.600849
N3    N     N_2   0.433180 0.367266 0.621827 -0.400401
H21   H     H_    0.454690 0.451341 0.686690 0.229657
C39   C     C_3   0.297166 0.320473 0.644284 -0.610239
H22   H     H_    0.288797 0.255096 0.680449 0.237536
H23   H     H_    0.255822 0.277755 0.564651 0.210324
H24   H     H_    0.235837 0.395303 0.712127 0.180427
N4    N     N_2   0.673201 0.707094 0.356083 -0.349889
H25   H     H_    0.765705 0.751250 0.363218 0.238236
C40   C     C_3   0.676335 0.626598 0.233246 -0.663773
H26   H     H_    0.701246 0.680536 0.183061 0.215293
H27   H     H_    0.579963 0.573879 0.221417 0.254866
H28   H     H_    0.753947 0.561980 0.196071 0.197524

loop_
_geom_bond_atom_site_label_1
_geom_bond_atom_site_label_2
_ccdc_geom_bond_type
C24   H12   S    
C34   C37   S    
C39   H23   S    
C39   H22   S    
C31   N1    A    
C35   C36   S    
C7    C8    A    
N4    H25   S    
C11   C19   A    
C34   H11   S    
C29   C30   A    
Cu2   O8    S    
C36   C37   S    
C37   C38   S    
C32   N1    A    
C15   C16   A    
C33   C36   S    
Cu2   N2    S    
C34   C35   S    
C23   O5    A    
C8    H5    S    
C17   H2    S    
C30   N4    S    
C18   H18   S    
C38   H15   S    
C8    C9    A    
C7    H3    S    
C4    C12   S    
C9    C10   A    
C33   O7    A    
C31   N3    S    
Cu2   O4    S    
C21   C22   A    
Cu1   O3    S    
Cu1   O5    S    
Cu1   N1    S    
C1    O1    A    
C21   H10   S    
C22   H13   S    
N4    C40   S    
C6    C18   A    
C4    C34   S    
C1    C19   S    
C29   H8    S    
C27   C31   A    
C24   C25   A    
C16   H6    S    
Cu1   Cu2   S    
N3    C39   S    
C5    C18   A    
C20   C28   A    
C25   C26   A    
C12   O4    A    
C23   O6    A    
C20   H9    S    
C11   C16   A    
C2    C38   S    
C3    C35   S    
Cu1   O7    S    
C5    C14   A    
C33   O8    A    
C37   H14   S    
C3    H17   S    
C4    C38   S    
C26   C30   A    
C7    C19   A    
C32   H7    S    
C22   C24   A    
C3    C4    S    
C1    O2    A    
C40   H27   S    
C20   C32   A    
C2    C36   S    
C6    C17   A    
C28   C29   A    
C9    H4    S    
C5    H20   S    
C15   H19   S    
C10   C13   A    
C40   H28   S    
C25   C27   A    
Cu1   O1    S    
C12   O3    A    
Cu2   O2    S    
C13   C17   A    
C2    C3    S    
C26   N2    A    
N3    H21   S    
C2    H16   S    
C6    C23   S    
C39   H24   S    
C35   H1    S    
C10   C11   A    
C40   H26   S    
Cu2   O6    S    
C27   C28   A    
C14   C15   A    
C21   N2    A    
C13   C14   A    
