data_mof_unit_66180.cif
_audit_creation_date              2012-12-11T15:41:27-0500
_audit_creation_method            fapswitch 2.2
_symmetry_space_group_name_H-M    P1
_symmetry_Int_Tables_number       1
_space_group_crystal_system       triclinic
_cell_length_a                    19.049814
_cell_length_b                    10.964331
_cell_length_c                    18.765608
_cell_angle_alpha                 90.028021
_cell_angle_beta                  90.601067
_cell_angle_gamma                 89.985026
_cell_volume                      3919.3274865

loop_
_atom_site_label
_atom_site_type_symbol
_atom_type_description
_atom_site_fract_x
_atom_site_fract_y
_atom_site_fract_z
_atom_type_partial_charge
C1    C     C_R   0.708357 0.003666 0.860797 0.557720
C2    C     C_R   0.291727 0.003852 0.139262 0.559042
C3    C     C_R   0.208359 0.503665 0.860797 0.556499
C4    C     C_R   0.791723 0.503845 0.139260 0.559380
C5    C     C_R   0.721388 0.531377 0.026364 0.089488
C6    C     C_R   0.281726 0.522524 0.971824 0.088194
C7    C     C_R   0.221389 0.031363 0.026371 0.089428
C8    C     C_R   0.781713 0.022534 0.971832 0.088119
C9    C     C_R   0.709281 0.501972 0.955410 -0.020067
C10   C     C_R   0.294114 0.492986 0.042646 -0.024876
C11   C     C_R   0.209276 0.001946 0.955419 -0.019795
C12   C     C_R   0.794101 0.992995 0.042654 -0.025032
C13   C     C_R   0.825187 0.417124 0.948374 -0.090567
C14   C     C_R   0.174871 0.425424 0.053193 -0.088002
C15   C     C_R   0.325191 0.917132 0.948374 -0.090768
C16   C     C_R   0.674861 0.925436 0.053200 -0.087877
C17   C     C_R   0.836822 0.443925 0.020405 -0.141417
C18   C     C_R   0.162914 0.451190 0.980978 -0.138521
C19   C     C_R   0.336831 0.943953 0.020403 -0.141259
C20   C     C_R   0.662905 0.951193 0.980982 -0.138488
C21   C     C_3   0.645706 0.516084 0.044503 0.149083
C22   C     C_3   0.355376 0.492993 0.951631 0.149455
C23   C     C_3   0.145714 0.016035 0.044524 0.149025
C24   C     C_3   0.855362 0.993005 0.951643 0.149496
C25   C     C_3   0.632761 0.483603 0.966323 -0.238016
C26   C     C_3   0.368644 0.459805 0.029383 -0.218350
C27   C     C_3   0.132763 0.983537 0.966349 -0.237822
C28   C     C_3   0.868628 0.959806 0.029393 -0.218389
C29   C     C_R   0.758118 0.434330 0.917001 -0.001173
C30   C     C_R   0.243038 0.434491 0.082925 -0.002173
C31   C     C_R   0.258117 0.934319 0.917007 -0.001294
C32   C     C_R   0.743027 0.934504 0.082934 -0.002236
C33   C     C_R   0.502550 0.161399 0.423470 -0.002332
C34   C     C_R   0.511252 0.173462 0.570907 0.019530
C35   C     C_R   0.977425 0.669207 0.433590 0.010833
C36   C     C_R   0.987114 0.672822 0.581088 0.003589
C37   C     C_R   0.537730 0.258390 0.455672 0.007567
C38   C     C_R   0.540702 0.264148 0.528380 0.053005
C39   C     C_R   0.974696 0.778537 0.470555 0.029477
C40   C     C_R   0.978190 0.781489 0.542874 0.016081
C41   C     C_R   0.483298 0.069465 0.539322 -0.105122
C42   C     C_R   0.480286 0.062224 0.465545 -0.133224
C43   C     C_R   0.972587 0.562259 0.546600 -0.122624
C44   C     C_R   0.968898 0.559796 0.472043 -0.134405
C45   C     C_R   0.522329 0.177075 0.842481 0.520574
C46   C     C_R   0.477771 0.177122 0.157629 0.525234
C47   C     C_R   0.022296 0.677075 0.842440 0.518724
C48   C     C_R   0.977739 0.677124 0.157587 0.527496
C49   C     C_3   0.527080 0.393657 0.449634 -0.269724
C50   C     C_3   0.526923 0.398017 0.529854 -0.261921
C51   C     C_3   0.016414 0.891674 0.460507 -0.280704
C52   C     C_3   0.021052 0.896558 0.540553 -0.266305
C53   C     C_R   0.762177 0.436308 0.428910 -0.015388
C54   C     C_R   0.240578 0.425373 0.573521 -0.016339
C55   C     C_R   0.260622 0.931470 0.427925 -0.015610
C56   C     C_R   0.740310 0.923403 0.573792 -0.019084
C57   C     C_R   0.813961 0.372402 0.465889 0.076369
C58   C     C_R   0.181459 0.408838 0.530245 0.100691
C59   C     C_R   0.316061 0.881162 0.466959 0.069740
C60   C     C_R   0.681036 0.914055 0.529688 0.093680
C61   C     C_R   0.809889 0.358231 0.538237 -0.017275
C62   C     C_R   0.185012 0.407133 0.457026 -0.038756
C63   C     C_R   0.312675 0.871390 0.539722 -0.027061
C64   C     C_R   0.685229 0.914572 0.456426 -0.048352
C65   C     C_R   0.710224 0.492265 0.542373 -0.166611
C66   C     C_R   0.310202 0.439673 0.467150 -0.166215
C67   C     C_R   0.203119 0.980754 0.539471 -0.175012
C68   C     C_R   0.811405 0.931039 0.468310 -0.158928
C69   C     C_R   0.712794 0.503522 0.468104 -0.164835
C70   C     C_R   0.305248 0.445828 0.541336 -0.191723
C71   C     C_R   0.205356 0.986934 0.464982 -0.173200
C72   C     C_R   0.805976 0.936879 0.542461 -0.186674
C73   C     C_3   0.838243 0.244953 0.453270 0.148520
C74   C     C_3   0.130679 0.306162 0.532611 0.164155
C75   C     C_3   0.349018 0.758545 0.457864 0.149330
C76   C     C_3   0.626437 0.816734 0.529593 0.175813
C77   C     C_3   0.830061 0.226765 0.532655 -0.198644
C78   C     C_3   0.128476 0.311964 0.452157 -0.225844
C79   C     C_3   0.343816 0.746112 0.537808 -0.205986
C80   C     C_3   0.624165 0.828678 0.449383 -0.210982
C81   C     C_R   0.755549 0.411572 0.577096 0.005131
C82   C     C_R   0.250631 0.413069 0.424407 -0.003686
C83   C     C_R   0.254193 0.913924 0.576898 0.002327
C84   C     C_R   0.751349 0.912682 0.424651 -0.008919
C85   C     C_R   0.739262 0.365794 0.852317 0.534482
C86   C     C_R   0.260855 0.365766 0.147707 0.535239
C87   C     C_R   0.239261 0.865788 0.852320 0.535085
C88   C     C_R   0.760851 0.865775 0.147712 0.535276
C89   C     C_R   0.727523 0.954654 0.647535 0.542658
C90   C     C_R   0.273208 0.957575 0.353526 0.542035
C91   C     C_R   0.227491 0.455226 0.647371 0.543032
C92   C     C_R   0.773882 0.459522 0.354164 0.542856
C93   C     C_R   0.529861 0.176941 0.644657 0.533980
C94   C     C_R   0.470833 0.175539 0.354602 0.541313
C95   C     C_R   0.027156 0.676828 0.646654 0.542442
C96   C     C_R   0.966012 0.676250 0.357967 0.538935
C97   C     C_R   0.739917 0.362268 0.646694 0.544932
C98   C     C_R   0.260926 0.362062 0.353849 0.548905
C99   C     C_R   0.239728 0.862605 0.646568 0.544203
C100  C     C_R   0.760942 0.862216 0.353825 0.546413
C101  C     C_2   0.480299 0.165701 0.906036 0.256414
C102  C     C_2   0.520561 0.166576 0.094512 0.255148
C103  C     C_2   0.980229 0.665700 0.905968 0.256721
C104  C     C_2   0.020491 0.666584 0.094439 0.254604
C105  C     C_2   0.484077 0.149252 0.034569 -0.103458
C106  C     C_2   0.517623 0.153790 0.965907 -0.100947
C107  C     C_2   0.983981 0.649245 0.034513 -0.103811
C108  C     C_2   0.017528 0.653728 0.965849 -0.100623
C109  C     C_R   0.782333 0.491495 0.061940 -0.021279
C110  C     C_R   0.218375 0.490827 0.938002 -0.020814
C111  C     C_R   0.282341 0.991509 0.061941 -0.021252
C112  C     C_R   0.718366 0.990831 0.938005 -0.020664
Cr1   Cr    Cr6+3 0.769260 0.163750 0.750730 1.004259
Cr2   Cr    Cr6+3 0.230740 0.163750 0.249270 1.018226
Cr3   Cr    Cr6+3 0.269260 0.663750 0.750730 1.001732
Cr4   Cr    Cr6+3 0.730740 0.663750 0.249270 1.016099
Cr5   Cr    Cr6+3 0.612640 0.009910 0.748780 1.004897
Cr6   Cr    Cr6+3 0.387360 0.009910 0.251220 0.988433
Cr7   Cr    Cr6+3 0.112640 0.509910 0.748780 1.019313
Cr8   Cr    Cr6+3 0.887360 0.509910 0.251220 0.988272
Cr9   Cr    Cr6+3 0.614190 0.322400 0.747710 0.979869
Cr10  Cr    Cr6+3 0.385810 0.322400 0.252290 0.976444
Cr11  Cr    Cr6+3 0.114190 0.822400 0.747710 0.979186
Cr12  Cr    Cr6+3 0.885810 0.822400 0.252290 0.975898
H1    H     H_    0.427313 0.139041 0.036427 0.134384
H2    H     H_    0.574727 0.152921 0.963941 0.134851
H3    H     H_    0.927217 0.639054 0.036383 0.134150
H4    H     H_    0.074631 0.652791 0.963892 0.134856
H5    H     H_    0.985378 0.967635 0.437343 0.141713
H6    H     H_    0.075421 0.882387 0.559683 0.178254
H7    H     H_    0.476035 0.421754 0.426923 0.155814
H8    H     H_    0.570600 0.450377 0.553339 0.144047
H9    H     H_    0.572925 0.439754 0.425641 0.129265
H10   H     H_    0.474685 0.420406 0.552212 0.122933
H11   H     H_    0.067548 0.873782 0.434488 0.135528
H12   H     H_    0.992799 0.975102 0.564213 0.113794
H13   H     H_    0.670483 0.538821 0.572351 0.101870
H14   H     H_    0.361470 0.446033 0.444025 0.133053
H15   H     H_    0.158902 0.019099 0.567125 0.108122
H16   H     H_    0.863154 0.931280 0.445850 0.150134
H17   H     H_    0.675332 0.561134 0.441305 0.121037
H18   H     H_    0.351470 0.465733 0.573307 0.117360
H19   H     H_    0.163000 0.030677 0.436304 0.119970
H20   H     H_    0.852544 0.951421 0.574958 0.126620
H21   H     H_    0.800725 0.189747 0.420351 0.093755
H22   H     H_    0.156527 0.223602 0.555173 0.093210
H23   H     H_    0.314801 0.693333 0.427676 0.094914
H24   H     H_    0.649235 0.728868 0.547837 0.076490
H25   H     H_    0.784679 0.168129 0.545884 0.129537
H26   H     H_    0.145025 0.225574 0.427540 0.124975
H27   H     H_    0.304874 0.677086 0.554056 0.135350
H28   H     H_    0.635132 0.741950 0.422079 0.117504
H29   H     H_    0.879431 0.204567 0.561506 0.142579
H30   H     H_    0.078659 0.349753 0.429985 0.161973
H31   H     H_    0.395063 0.740818 0.566012 0.150889
H32   H     H_    0.576556 0.875828 0.428611 0.170174
H33   H     H_    0.866748 0.371853 0.919677 0.167161
H34   H     H_    0.132343 0.387549 0.083693 0.165460
H35   H     H_    0.366753 0.871869 0.919674 0.167110
H36   H     H_    0.632334 0.887569 0.083703 0.165426
H37   H     H_    0.886909 0.420060 0.044452 0.131828
H38   H     H_    0.111569 0.432987 0.958008 0.130161
H39   H     H_    0.386923 0.920107 0.044446 0.131859
H40   H     H_    0.611561 0.932988 0.958011 0.130239
H41   H     H_    0.637004 0.440233 0.082985 0.143301
H42   H     H_    0.357740 0.414162 0.914038 0.134884
H43   H     H_    0.137033 0.940185 0.083011 0.143235
H44   H     H_    0.857728 0.914193 0.914038 0.134978
H45   H     H_    0.616068 0.387347 0.958432 0.131611
H46   H     H_    0.379255 0.361077 0.037525 0.132127
H47   H     H_    0.116084 0.887272 0.958464 0.131619
H48   H     H_    0.879234 0.861076 0.037530 0.132075
H49   H     H_    0.601583 0.552404 0.936405 0.146423
H50   H     H_    0.404529 0.522296 0.058338 0.142882
H51   H     H_    0.101571 0.052320 0.936436 0.146528
H52   H     H_    0.904512 0.022290 0.058353 0.142779
H53   H     H_    0.461734 0.996876 0.571440 0.163578
H54   H     H_    0.453376 0.985448 0.442062 0.207635
H55   H     H_    0.969631 0.478641 0.576539 0.183141
H56   H     H_    0.961571 0.473512 0.444995 0.191383
O1    O     O_R   0.784290 0.290360 0.830540 -0.509953
O2    O     O_R   0.215710 0.290360 0.169460 -0.498230
O3    O     O_R   0.284290 0.790360 0.830540 -0.510233
O4    O     O_R   0.715710 0.790360 0.169460 -0.498141
O5    O     O_R   0.554690 0.080440 0.673480 -0.476629
O6    O     O_R   0.445310 0.080440 0.326520 -0.507928
O7    O     O_R   0.054690 0.580440 0.673480 -0.476161
O8    O     O_R   0.945310 0.580440 0.326520 -0.506861
O9    O     O_R   0.543980 0.282110 0.666770 -0.531853
O10   O     O_R   0.456020 0.282110 0.333230 -0.532453
O11   O     O_R   0.043980 0.782110 0.666770 -0.536346
O12   O     O_R   0.956020 0.782110 0.333230 -0.528189
O13   O     O_R   0.679070 0.374030 0.674430 -0.502681
O14   O     O_R   0.320930 0.374030 0.325570 -0.512394
O15   O     O_R   0.179070 0.874030 0.674430 -0.506705
O16   O     O_R   0.820930 0.874030 0.325570 -0.516017
O17   O     O_3   0.665360 0.165350 0.749070 -0.258652
O18   O     O_3   0.334640 0.165350 0.250930 -0.257659
O19   O     O_3   0.165360 0.665350 0.749070 -0.259644
O20   O     O_3   0.834640 0.665350 0.250930 -0.259087
O21   O     O_R   0.762610 0.041070 0.825230 -0.491745
O22   O     O_R   0.237390 0.041070 0.174770 -0.485283
O23   O     O_R   0.262610 0.541070 0.825230 -0.492319
O24   O     O_R   0.737390 0.541070 0.174770 -0.484608
O25   O     O_R   0.667390 0.924160 0.829970 -0.525277
O26   O     O_R   0.332610 0.924160 0.170030 -0.529402
O27   O     O_R   0.167390 0.424160 0.829970 -0.523131
O28   O     O_R   0.832610 0.424160 0.170030 -0.530144
O29   O     O_R   0.553980 0.081420 0.821780 -0.539803
O30   O     O_R   0.446020 0.081420 0.178220 -0.541459
O31   O     O_R   0.053980 0.581420 0.821780 -0.539980
O32   O     O_R   0.946020 0.581420 0.178220 -0.540270
O33   O     O_R   0.543210 0.283170 0.826740 -0.543136
O34   O     O_R   0.456790 0.283170 0.173260 -0.533319
O35   O     O_R   0.043210 0.783170 0.826740 -0.543306
O36   O     O_R   0.956790 0.783170 0.173260 -0.532812
O37   O     O_R   0.678350 0.375000 0.822720 -0.503098
O38   O     O_R   0.321650 0.375000 0.177280 -0.505723
O39   O     O_R   0.178350 0.875000 0.822720 -0.501722
O40   O     O_R   0.821650 0.875000 0.177280 -0.506115
O41   O     O_R   0.785060 0.289300 0.670580 -0.530126
O42   O     O_R   0.214940 0.289300 0.329420 -0.527194
O43   O     O_R   0.285060 0.789300 0.670580 -0.531470
O44   O     O_R   0.714940 0.789300 0.329420 -0.528612
O45   O     O_R   0.763330 0.040090 0.676940 -0.510824
O46   O     O_R   0.236670 0.040090 0.323060 -0.505377
O47   O     O_R   0.263330 0.540090 0.676940 -0.513385
O48   O     O_R   0.736670 0.540090 0.323060 -0.507160
O49   O     O_R   0.668160 0.923110 0.670000 -0.488286
O50   O     O_R   0.331840 0.923110 0.330000 -0.508195
O51   O     O_R   0.168160 0.423110 0.670000 -0.472456
O52   O     O_R   0.831840 0.423110 0.330000 -0.510117
O53   O     O_3   0.909918 0.243107 0.433974 -0.577468
C113  C     C_3   0.918846 0.179382 0.369433 -0.125407
H57   H     H_    0.891987 0.225933 0.324380 0.154861
H58   H     H_    0.899590 0.084299 0.373172 0.110820
H59   H     H_    0.975709 0.175842 0.357429 0.116345
O54   O     O_3   0.067609 0.341900 0.564731 -0.543746
C114  C     C_3   0.029732 0.237198 0.584453 -0.128318
H60   H     H_    0.060655 0.177609 0.621144 0.099840
H61   H     H_    0.012394 0.185664 0.536375 0.148508
H62   H     H_    0.982679 0.266438 0.614128 0.125360
O55   O     O_3   0.419888 0.768914 0.436766 -0.565844
C115  C     C_3   0.432391 0.696582 0.376165 -0.112156
H63   H     H_    0.399632 0.726066 0.330021 0.145535
H64   H     H_    0.422760 0.598985 0.387452 0.097503
H65   H     H_    0.488281 0.706514 0.361208 0.119906
O56   O     O_3   0.564152 0.855529 0.562438 -0.534632
C116  C     C_3   0.538603 0.762460 0.607040 -0.099986
H66   H     H_    0.578291 0.735080 0.647948 0.117855
H67   H     H_    0.521890 0.681942 0.575006 0.109461
H68   H     H_    0.492495 0.797710 0.636143 0.117611
O57   O     O_3   0.592467 0.191552 0.092465 -0.610321
C117  C     C_3   0.624024 0.187478 0.160742 -0.130367
H69   H     H_    0.614031 0.098598 0.187440 0.110650
H70   H     H_    0.605940 0.264891 0.194174 0.127580
H71   H     H_    0.681652 0.196757 0.154680 0.152337
O58   O     O_3   0.407174 0.175968 0.907889 -0.611826
C118  C     C_3   0.376439 0.174986 0.839189 -0.133021
H72   H     H_    0.389912 0.089928 0.809964 0.115698
H73   H     H_    0.391966 0.257200 0.808439 0.116247
H74   H     H_    0.318534 0.177436 0.844788 0.152028
O59   O     O_3   0.092388 0.691608 0.092339 -0.610555
C119  C     C_3   0.124007 0.687480 0.160582 -0.130081
H75   H     H_    0.114048 0.598570 0.187259 0.111738
H76   H     H_    0.105949 0.764862 0.194052 0.127713
H77   H     H_    0.181628 0.696778 0.154466 0.152325
O60   O     O_3   0.907106 0.676042 0.907785 -0.611740
C120  C     C_3   0.876412 0.675182 0.839063 -0.133086
H78   H     H_    0.889870 0.590148 0.809807 0.116085
H79   H     H_    0.891990 0.757413 0.808354 0.116392
H80   H     H_    0.818504 0.677692 0.844625 0.151625
O61   O     O_3   0.116079 0.129283 0.063912 -0.539136
C121  C     C_3   0.044766 0.111754 0.080557 -0.016738
H81   H     H_    0.039369 0.050508 0.127531 0.133469
H82   H     H_    0.016068 0.072229 0.034181 0.142469
C122  C     C_3   0.011146 0.233848 0.098223 -0.362964
H83   H     H_    0.015042 0.296656 0.052008 0.144889
H84   H     H_    0.954831 0.220455 0.110750 0.113864
H85   H     H_    0.037791 0.275306 0.145247 0.148310
O62   O     O_3   0.891163 0.100330 0.931584 -0.550363
C123  C     C_3   0.945252 0.070738 0.883874 -0.006767
H86   H     H_    0.922776 0.034897 0.832991 0.140924
H87   H     H_    0.981315 0.001372 0.907486 0.131484
C124  C     C_3   0.987131 0.185234 0.867303 -0.368044
H88   H     H_    0.009314 0.224640 0.917207 0.155760
H89   H     H_    0.030818 0.162444 0.830905 0.098037
H90   H     H_    0.952710 0.253974 0.841085 0.153573
O63   O     O_3   0.616082 0.629341 0.063889 -0.539143
C125  C     C_3   0.544755 0.611850 0.080487 -0.016760
H91   H     H_    0.539317 0.550591 0.127451 0.133485
H92   H     H_    0.516073 0.572362 0.034089 0.142536
C126  C     C_3   0.511147 0.733958 0.098146 -0.363012
H93   H     H_    0.515082 0.796775 0.051939 0.144890
H94   H     H_    0.454822 0.720593 0.110634 0.114308
H95   H     H_    0.537770 0.775385 0.145193 0.147748
O64   O     O_3   0.391184 0.600312 0.931559 -0.550207
C127  C     C_3   0.445189 0.570731 0.883745 -0.005964
H96   H     H_    0.422629 0.534823 0.832915 0.140228
H97   H     H_    0.481315 0.501421 0.907311 0.131586
C128  C     C_3   0.487005 0.685247 0.867044 -0.369649
H98   H     H_    0.509273 0.724727 0.916889 0.156715
H99   H     H_    0.530626 0.662457 0.830561 0.092686
H100  H     H_    0.452517 0.753927 0.840862 0.151817

loop_
_geom_bond_atom_site_label_1
_geom_bond_atom_site_label_2
_ccdc_geom_bond_type
Cr12  O40   S    
C55   C59   A    
C125  C126  S    
C2    O22   A    
C53   C69   A    
Cr6   O6    S    
C128  H98   S    
C49   H7    S    
C123  H86   S    
C14   H34   S    
Cr6   O26   S    
C92   O52   A    
C99   O15   A    
C115  H63   S    
C121  H81   S    
C97   O13   A    
C64   C84   A    
C117  H70   S    
C48   O32   A    
C56   C72   A    
Cr3   O23   S    
C45   O33   A    
Cr1   O21   S    
Cr7   O51   S    
C65   H13   S    
C82   C98   S    
C76   O56   S    
C113  H58   S    
Cr10  O14   S    
Cr8   O8    S    
Cr4   O24   S    
C4    O28   A    
C100  O16   A    
C2    C111  S    
C31   C87   S    
C95   O7    A    
C51   C52   S    
Cr8   O28   S    
C50   H10   S    
C46   O30   A    
C60   C76   S    
C113  H59   S    
Cr9   O33   S    
C43   C44   A    
C94   O10   A    
Cr3   O47   S    
C37   C38   A    
C66   C82   A    
C10   C30   A    
Cr1   O45   S    
C54   C70   A    
C11   C27   S    
C68   C72   A    
Cr1   O41   S    
C23   H43   S    
Cr4   O48   S    
C116  H67   S    
C120  H79   S    
C68   H16   S    
C22   O64   S    
C127  H96   S    
C71   H19   S    
C128  H100  S    
C13   C29   A    
C72   H20   S    
C49   H9    S    
C90   O46   A    
C118  H73   S    
C17   C109  A    
C57   C61   A    
C19   C111  A    
C59   C63   A    
C115  H65   S    
C105  H1    S    
C60   C64   A    
C102  O57   S    
C3    O27   A    
C107  H3    S    
C124  H89   S    
C23   O61   S    
C66   C70   A    
C42   H54   S    
C79   H31   S    
C22   H42   S    
C25   H49   S    
C5    C21   S    
C24   O62   S    
C26   H46   S    
C73   H21   S    
C73   C77   S    
C75   C79   S    
C104  C107  D    
C55   C71   A    
C6    C22   S    
Cr8   O32   S    
C39   C51   S    
C4    C109  S    
C67   C83   A    
C47   O31   A    
C16   H36   S    
C33   C94   S    
Cr8   O52   S    
C51   H5    S    
C35   C96   S    
C116  H66   S    
C33   C42   A    
C41   H53   S    
C55   C90   S    
C1    C112  S    
Cr9   O9    S    
O57   C117  S    
C88   O4    A    
C3    C110  S    
C32   C88   S    
C86   O38   A    
C57   C73   S    
C77   H29   S    
C28   H48   S    
Cr1   O1    S    
C61   C77   S    
C119  H75   S    
C107  C108  S    
C2    O26   A    
C67   H15   S    
O53   C113  S    
C29   C85   S    
C122  H83   S    
C13   H33   S    
C99   O43   A    
C39   C40   A    
C117  H71   S    
Cr3   O19   S    
C45   O29   A    
C91   O51   A    
C74   O54   S    
C5    C9    A    
C126  H93   S    
C66   H14   S    
C8    C12   A    
Cr12  O16   S    
O63   C125  S    
C114  H61   S    
C19   H39   S    
Cr10  O18   S    
C76   H24   S    
C17   H37   S    
C56   C89   S    
C74   C78   S    
C52   H12   S    
Cr6   O18   S    
C58   C74   S    
C101  C106  D    
C21   C25   S    
C116  H68   S    
C85   O1    A    
Cr9   O37   S    
C62   C78   S    
C24   C28   S    
C15   C31   A    
C93   O9    A    
C16   C32   A    
Cr7   O31   S    
C13   C17   A    
C96   O12   A    
Cr5   O29   S    
O58   C118  S    
C61   C81   A    
C9    C29   A    
C36   C95   S    
C119  H77   S    
C7    C23   S    
Cr4   O4    S    
Cr5   O49   S    
C8    C24   S    
C115  H64   S    
C121  H82   S    
Cr7   O7    S    
C56   C60   A    
C123  C124  S    
C49   C50   S    
Cr2   O18   S    
C122  H85   S    
C90   O50   A    
C58   C62   A    
Cr11  O35   S    
C121  C122  S    
C3    O23   A    
C41   C42   A    
C114  H60   S    
C1    O21   A    
C44   H56   S    
C9    C25   S    
O59   C119  S    
C15   C19   A    
C43   H55   S    
C12   C28   S    
Cr7   O19   S    
Cr3   O43   S    
C126  H95   S    
Cr5   O25   S    
C8    C112  A    
C54   C58   A    
C26   H50   S    
C69   H17   S    
O55   C115  S    
C20   H40   S    
C21   H41   S    
C98   O14   A    
C102  C105  D    
C125  H91   S    
C14   C18   A    
Cr11  O39   S    
C20   C112  A    
C47   O35   A    
Cr2   O22   S    
C73   O53   S    
C62   C82   A    
C83   C99   S    
C120  H78   S    
C64   C80   S    
Cr11  O15   S    
C34   C41   A    
C127  H97   S    
Cr9   O13   S    
Cr10  O10   S    
C128  H99   S    
C47   C103  S    
C68   C84   A    
C94   O6    A    
C77   H25   S    
C53   C57   A    
C28   H52   S    
C75   H23   S    
Cr2   O2    S    
C33   C37   A    
Cr10  O34   S    
C63   C83   A    
C127  C128  S    
C84   C100  S    
Cr4   O44   S    
C35   C39   A    
C15   H35   S    
C124  H88   S    
Cr2   O46   S    
C37   C49   S    
C65   C81   A    
C101  O58   S    
C103  O60   S    
Cr2   O42   S    
C50   H8    S    
C21   O63   S    
C113  H57   S    
C27   H51   S    
Cr12  O12   S    
O56   C116  S    
Cr11  O19   S    
O54   C114  S    
C91   O47   A    
C123  H87   S    
C74   H22   S    
C78   H30   S    
C18   C110  A    
C89   O45   A    
C6    C10   A    
Cr3   O3    S    
C105  C106  S    
Cr12  O20   S    
C54   C91   S    
Cr5   O5    S    
C87   O3    A    
C18   H38   S    
C5    C109  A    
C65   C69   A    
Cr8   O20   S    
C7    C111  A    
C67   C71   A    
C88   O40   A    
O60   C120  S    
C92   O48   A    
C119  H76   S    
C22   C26   S    
C120  H80   S    
C86   O2    A    
C36   C43   A    
C93   O5    A    
C48   O36   A    
O64   C127  S    
C96   O8    A    
C34   C93   S    
C118  H74   S    
C63   C79   S    
C7    C11   A    
C46   C102  S    
C117  H69   S    
C24   H44   S    
C124  H90   S    
Cr4   O20   S    
C4    O24   A    
C100  O44   A    
C48   C104  S    
C98   O42   A    
C85   O37   A    
C51   H11   S    
C46   O34   A    
C103  C108  D    
C104  O59   S    
C87   O39   A    
C30   C86   S    
C1    O25   A    
C16   C20   A    
C10   C26   S    
C11   C31   A    
C12   C32   A    
C6    C110  A    
C14   C30   A    
C80   H32   S    
C70   H18   S    
C36   C40   A    
O62   C123  S    
C40   C52   S    
C53   C92   S    
O61   C121  S    
C35   C44   A    
Cr9   O17   S    
C106  H2    S    
C45   C101  S    
C23   C27   S    
C122  H84   S    
Cr7   O27   S    
C118  H72   S    
C59   C75   S    
Cr5   O17   S    
C78   H26   S    
C79   H27   S    
Cr12  O36   S    
C25   H45   S    
C80   H28   S    
Cr10  O38   S    
C34   C38   A    
C76   C80   S    
C38   C50   S    
C95   O11   A    
Cr6   O30   S    
C52   H6    S    
C126  H94   S    
C81   C97   S    
Cr6   O50   S    
C97   O41   A    
C114  H62   S    
C125  H92   S    
C75   O55   S    
Cr1   O17   S    
C108  H4    S    
C89   O49   A    
C27   H47   S    
Cr11  O11   S    
