data_mof_unit_22074.cif
_audit_creation_date              2012-12-10T17:18:38-0500
_audit_creation_method            fapswitch 2.2
_symmetry_space_group_name_H-M    P1
_symmetry_Int_Tables_number       1
_space_group_crystal_system       triclinic
_cell_length_a                    25.792171
_cell_length_b                    25.872417
_cell_length_c                    25.719345
_cell_angle_alpha                 90.118824
_cell_angle_beta                  89.997201
_cell_angle_gamma                 89.766808
_cell_volume                      17162.4890972

loop_
_atom_site_label
_atom_site_type_symbol
_atom_type_description
_atom_site_fract_x
_atom_site_fract_y
_atom_site_fract_z
_atom_type_partial_charge
C1    C     C_R   0.749107 0.609499 0.752479 0.589227
C2    C     C_R   0.390060 0.751130 0.749296 0.659840
C3    C     C_R   0.311705 0.053447 0.675362 0.403772
C4    C     C_R   0.775406 0.355180 0.054108 0.403461
C5    C     C_R   0.224574 0.645016 0.945409 0.412877
C6    C     C_R   0.689181 0.054005 0.674536 0.426394
C7    C     C_R   0.312775 0.945916 0.323634 0.380619
C8    C     C_R   0.186194 0.054285 0.822813 0.396408
C9    C     C_R   0.814863 0.945617 0.177985 0.397666
C10   C     C_R   0.054116 0.723424 0.855116 0.406248
C11   C     C_R   0.946272 0.178895 0.184346 0.377798
C12   C     C_R   0.813615 0.946025 0.822982 0.396717
C13   C     C_R   0.610089 0.750043 0.249860 0.691990
C14   C     C_R   0.187319 0.053825 0.176051 0.381173
C15   C     C_R   0.945881 0.277183 0.854978 0.404173
C16   C     C_R   0.054155 0.724465 0.144446 0.401498
C17   C     C_R   0.813291 0.053425 0.176565 0.381790
C18   C     C_R   0.185974 0.946428 0.822578 0.395248
C19   C     C_R   0.946294 0.724049 0.144479 0.401043
C20   C     C_R   0.053667 0.277614 0.854932 0.408097
C21   C     C_R   0.184944 0.946060 0.178184 0.396938
C22   C     C_R   0.814143 0.053878 0.822471 0.394913
C23   C     C_R   0.054373 0.179197 0.184146 0.377867
C24   C     C_R   0.390158 0.247966 0.746825 0.624741
C25   C     C_R   0.946307 0.723004 0.855073 0.410338
C26   C     C_R   0.554458 0.182602 0.318884 0.380191
C27   C     C_R   0.444718 0.851209 0.737640 0.396230
C28   C     C_R   0.174266 0.310207 0.446145 0.394820
C29   C     C_R   0.823977 0.687467 0.554194 0.365760
C30   C     C_R   0.447183 0.147620 0.737617 0.403007
C31   C     C_R   0.553444 0.821228 0.315200 0.394957
C32   C     C_R   0.796309 0.162034 0.545399 0.409861
C33   C     C_R   0.163773 0.799973 0.454729 0.407372
C34   C     C_R   0.552827 0.852347 0.737849 0.403127
C35   C     C_R   0.609816 0.752023 0.746835 0.625274
C36   C     C_R   0.446576 0.178823 0.314970 0.395349
C37   C     C_R   0.206470 0.839366 0.546010 0.409715
C38   C     C_R   0.837777 0.202898 0.454354 0.406752
C39   C     C_R   0.445531 0.817788 0.318782 0.380393
C40   C     C_R   0.555298 0.148773 0.737379 0.396379
C41   C     C_R   0.825429 0.689181 0.445787 0.383767
C42   C     C_R   0.175173 0.311431 0.554506 0.365766
C43   C     C_R   0.150328 0.551341 0.757016 0.399785
C44   C     C_R   0.812000 0.446050 0.324374 0.408995
C45   C     C_R   0.189137 0.446659 0.325181 0.392292
C46   C     C_R   0.389937 0.249943 0.249866 0.690820
C47   C     C_R   0.836085 0.544690 0.803904 0.404457
C48   C     C_R   0.849723 0.448634 0.756949 0.399638
C49   C     C_R   0.187939 0.554425 0.324247 0.397802
C50   C     C_R   0.814706 0.553774 0.321913 0.377417
C51   C     C_R   0.164072 0.455554 0.804112 0.404509
C52   C     C_R   0.518158 0.622013 0.693396 -0.123335
C53   C     C_R   0.472746 0.350867 0.148355 -0.120196
C54   C     C_R   0.639288 0.840879 0.473407 -0.125673
C55   C     C_R   0.362135 0.160661 0.526863 -0.121235
C56   C     C_R   0.473607 0.648460 0.148574 -0.120081
C57   C     C_R   0.609966 0.248873 0.749296 0.659655
C58   C     C_R   0.525050 0.384586 0.724941 -0.118527
C59   C     C_R   0.358269 0.656703 0.521799 -0.102766
C60   C     C_R   0.661650 0.362252 0.478409 -0.126423
C61   C     C_R   0.526383 0.350922 0.148367 -0.120148
C62   C     C_R   0.474985 0.615323 0.724878 -0.118184
C63   C     C_R   0.639331 0.340414 0.522325 -0.103268
C64   C     C_R   0.335315 0.635535 0.477794 -0.126212
C65   C     C_R   0.481898 0.377780 0.693430 -0.123965
C66   C     C_R   0.527242 0.648637 0.148433 -0.120348
C67   C     C_R   0.361560 0.160008 0.473099 -0.125860
C68   C     C_R   0.389866 0.749828 0.249942 0.687607
C69   C     C_R   0.638482 0.839978 0.527161 -0.121305
C70   C     C_R   0.656261 0.526816 0.141394 -0.123145
C71   C     C_R   0.385861 0.478014 0.715802 -0.123676
C72   C     C_R   0.624467 0.478461 0.685460 -0.132463
C73   C     C_R   0.342299 0.526172 0.140105 -0.122264
C74   C     C_R   0.342224 0.472713 0.140048 -0.122501
C75   C     C_R   0.614210 0.521798 0.715676 -0.123618
C76   C     C_R   0.375635 0.521229 0.685580 -0.132541
C77   C     C_R   0.655955 0.473360 0.141695 -0.121309
C78   C     C_R   0.027590 0.104448 0.702916 -0.136272
C79   C     C_R   0.245747 0.745933 0.390196 0.605025
C80   C     C_R   0.972414 0.894700 0.299237 -0.133859
C81   C     C_R   0.604290 0.202497 0.972933 -0.128078
C82   C     C_R   0.395899 0.796798 0.027134 -0.134656
C83   C     C_R   0.972524 0.354963 0.347507 -0.119198
C84   C     C_R   0.026042 0.895385 0.702850 -0.136500
C85   C     C_R   0.395373 0.200337 0.027225 -0.134887
C86   C     C_R   0.604591 0.799932 0.973856 -0.128194
C87   C     C_R   0.026028 0.894652 0.299514 -0.129490
C88   C     C_R   0.973967 0.104483 0.702664 -0.136409
C89   C     C_R   0.604532 0.799283 0.027619 -0.134724
C90   C     C_R   0.745769 0.245794 0.609804 0.587641
C91   C     C_R   0.395340 0.199886 0.973458 -0.128350
C92   C     C_R   0.972419 0.895420 0.703097 -0.136098
C93   C     C_R   0.026064 0.357023 0.345279 -0.127366
C94   C     C_R   0.395888 0.796985 0.973357 -0.127820
C95   C     C_R   0.604307 0.202411 0.026708 -0.134962
C96   C     C_R   0.202815 0.395502 0.972007 -0.112274
C97   C     C_R   0.799682 0.605044 0.025036 -0.149475
C98   C     C_R   0.343547 0.026516 0.358544 -0.125080
C99   C     C_R   0.658371 0.973411 0.639641 -0.132829
C100  C     C_R   0.198381 0.606255 0.026014 -0.139015
C101  C     C_R   0.750114 0.749968 0.389863 0.682290
C102  C     C_R   0.799921 0.394383 0.973121 -0.129036
C103  C     C_R   0.341257 0.972687 0.639266 -0.121075
C104  C     C_R   0.656131 0.027427 0.358298 -0.128419
C105  C     C_R   0.797730 0.604782 0.971287 -0.114089
C106  C     C_R   0.201071 0.395286 0.025763 -0.150614
C107  C     C_R   0.656070 0.973971 0.358229 -0.124324
C108  C     C_R   0.341627 0.026136 0.639619 -0.133024
C109  C     C_R   0.800154 0.394359 0.026878 -0.140124
C110  C     C_R   0.198990 0.606151 0.972266 -0.131349
C111  C     C_R   0.658896 0.026855 0.639153 -0.121341
C112  C     C_R   0.250036 0.389961 0.249955 0.691584
C113  C     C_R   0.250013 0.250003 0.610205 0.673986
C114  C     C_R   0.343454 0.973060 0.358689 -0.128076
C115  C     C_R   0.155366 0.027271 0.857714 -0.117391
C116  C     C_R   0.845582 0.972603 0.142958 -0.119138
C117  C     C_R   0.027204 0.697673 0.894012 -0.137383
C118  C     C_R   0.973688 0.144437 0.153064 -0.121112
C119  C     C_R   0.844498 0.973185 0.857830 -0.116656
C120  C     C_R   0.155834 0.026712 0.141715 -0.125456
C121  C     C_R   0.972773 0.303329 0.893717 -0.137236
C122  C     C_R   0.027223 0.699381 0.105014 -0.131135
C123  C     C_R   0.844694 0.026054 0.142153 -0.125568
C124  C     C_R   0.754227 0.254219 0.390191 0.621551
C125  C     C_R   0.155252 0.973810 0.857594 -0.116844
C126  C     C_R   0.973610 0.699151 0.105046 -0.130543
C127  C     C_R   0.026377 0.303572 0.893675 -0.130879
C128  C     C_R   0.154525 0.973286 0.142892 -0.119969
C129  C     C_R   0.844767 0.026643 0.857570 -0.117583
C130  C     C_R   0.027320 0.144568 0.152986 -0.121235
C131  C     C_R   0.973600 0.697436 0.893972 -0.131023
C132  C     C_R   0.527424 0.148301 0.350292 -0.124182
C133  C     C_R   0.471352 0.897877 0.737022 -0.132533
C134  C     C_R   0.138246 0.339759 0.473447 -0.117561
C135  C     C_R   0.254341 0.754149 0.609837 0.587108
C136  C     C_R   0.860111 0.658099 0.526803 -0.121655
C137  C     C_R   0.475037 0.101503 0.737398 -0.135753
C138  C     C_R   0.526121 0.854055 0.348273 -0.123797
C139  C     C_R   0.838837 0.138269 0.521746 -0.137292
C140  C     C_R   0.141806 0.843341 0.478471 -0.132983
C141  C     C_R   0.524982 0.898467 0.737737 -0.135666
C142  C     C_R   0.473891 0.146181 0.348094 -0.123822
C143  C     C_R   0.164765 0.864530 0.522461 -0.137298
C144  C     C_R   0.861141 0.160250 0.477892 -0.137486
C145  C     C_R   0.472574 0.852129 0.350279 -0.124009
C146  C     C_R   0.250000 0.250012 0.389878 0.686704
C147  C     C_R   0.528669 0.102100 0.736666 -0.132597
C148  C     C_R   0.860897 0.659028 0.473041 -0.116814
C149  C     C_R   0.138758 0.340439 0.527215 -0.124990
C150  C     C_R   0.108935 0.527727 0.781914 -0.128138
C151  C     C_R   0.843062 0.473188 0.359082 -0.111925
C152  C     C_R   0.159229 0.473965 0.360938 -0.121469
C153  C     C_R   0.883674 0.519083 0.807089 -0.148716
C154  C     C_R   0.891164 0.472374 0.781729 -0.127895
C155  C     C_R   0.158564 0.527417 0.360411 -0.111212
C156  C     C_R   0.844539 0.526607 0.357748 -0.123610
C157  C     C_R   0.749970 0.749915 0.610190 0.674216
C158  C     C_R   0.116481 0.481164 0.807345 -0.148768
C159  C     C_R   0.474371 0.707908 0.741737 -0.042459
C160  C     C_R   0.527321 0.284005 0.215743 -0.057156
C161  C     C_R   0.712271 0.779866 0.527656 -0.055946
C162  C     C_R   0.287639 0.219931 0.472646 -0.062837
C163  C     C_R   0.527533 0.715979 0.215661 -0.057852
C164  C     C_R   0.474523 0.288988 0.724279 -0.038633
C165  C     C_R   0.274473 0.707985 0.474828 -0.050441
C166  C     C_R   0.708861 0.276162 0.525143 -0.048648
C167  C     C_R   0.472462 0.283855 0.215636 -0.057961
C168  C     C_R   0.250001 0.110048 0.749995 0.697573
C169  C     C_R   0.525480 0.710934 0.724252 -0.038814
C170  C     C_R   0.724480 0.291509 0.474999 -0.051784
C171  C     C_R   0.290543 0.722846 0.525034 -0.048802
C172  C     C_R   0.525630 0.292068 0.741779 -0.042457
C173  C     C_R   0.472669 0.715773 0.215832 -0.056989
C174  C     C_R   0.287931 0.220262 0.527586 -0.055336
C175  C     C_R   0.712749 0.780394 0.472722 -0.062771
C176  C     C_R   0.718381 0.472650 0.213607 -0.058979
C177  C     C_R   0.288197 0.525012 0.721504 -0.043402
C178  C     C_R   0.705251 0.525486 0.740249 -0.043050
C179  C     C_R   0.750052 0.889948 0.249954 0.688243
C180  C     C_R   0.280939 0.472471 0.212948 -0.058916
C181  C     C_R   0.280994 0.527223 0.212990 -0.058672
C182  C     C_R   0.711885 0.474857 0.721436 -0.043133
C183  C     C_R   0.294812 0.474465 0.740360 -0.042920
C184  C     C_R   0.718663 0.527398 0.213328 -0.057838
C185  C     C_R   0.972548 0.189187 0.745303 -0.047320
C186  C     C_R   0.027452 0.810684 0.255426 -0.038667
C187  C     C_R   0.688752 0.245317 0.027767 -0.043492
C188  C     C_R   0.311255 0.754482 0.972234 -0.045553
C189  C     C_R   0.027108 0.286237 0.281728 -0.062807
C190  C     C_R   0.750060 0.110067 0.749852 0.697590
C191  C     C_R   0.971965 0.810780 0.745510 -0.044106
C192  C     C_R   0.311225 0.244095 0.972318 -0.043312
C193  C     C_R   0.688820 0.755385 0.028003 -0.044908
C194  C     C_R   0.971971 0.810671 0.255272 -0.042612
C195  C     C_R   0.028035 0.189204 0.745449 -0.044406
C196  C     C_R   0.688777 0.755864 0.972402 -0.043382
C197  C     C_R   0.311198 0.244452 0.027923 -0.043203
C198  C     C_R   0.027456 0.810796 0.745368 -0.046880
C199  C     C_R   0.972298 0.285079 0.282946 -0.055215
C200  C     C_R   0.311229 0.754338 0.027843 -0.045333
C201  C     C_R   0.249866 0.889916 0.250054 0.683813
C202  C     C_R   0.688752 0.245338 0.972155 -0.045492
C203  C     C_R   0.244666 0.310959 0.027663 -0.043670
C204  C     C_R   0.754748 0.689190 0.971838 -0.049864
C205  C     C_R   0.281100 0.972473 0.286691 -0.058549
C206  C     C_R   0.719762 0.027463 0.712406 -0.057532
C207  C     C_R   0.244254 0.689157 0.971932 -0.036967
C208  C     C_R   0.755537 0.310955 0.027849 -0.042667
C209  C     C_R   0.280569 0.027136 0.712712 -0.064865
C210  C     C_R   0.718648 0.972920 0.286434 -0.063903
C211  C     C_R   0.755604 0.689116 0.027389 -0.037882
C212  C     C_R   0.750099 0.110063 0.249930 0.679524
C213  C     C_R   0.245401 0.310896 0.972104 -0.050587
C214  C     C_R   0.718701 0.027652 0.286480 -0.056994
C215  C     C_R   0.280342 0.972385 0.712485 -0.057844
C216  C     C_R   0.755443 0.310955 0.972240 -0.037705
C217  C     C_R   0.243953 0.689156 0.027534 -0.036721
C218  C     C_R   0.719387 0.972716 0.712762 -0.064654
C219  C     C_R   0.281276 0.027205 0.286487 -0.062294
C220  C     C_R   0.218182 0.972776 0.786139 -0.051991
C221  C     C_R   0.781674 0.027146 0.213532 -0.058056
C222  C     C_R   0.972335 0.743412 0.810824 -0.047358
C223  C     C_R   0.750052 0.610052 0.249869 0.685365
C224  C     C_R   0.249988 0.889933 0.749894 0.697987
C225  C     C_R   0.027565 0.214714 0.217253 -0.057015
C226  C     C_R   0.781875 0.027378 0.786091 -0.051738
C227  C     C_R   0.217827 0.972553 0.214013 -0.048112
C228  C     C_R   0.027651 0.256877 0.810750 -0.047351
C229  C     C_R   0.972343 0.743961 0.189011 -0.044448
C230  C     C_R   0.782110 0.972384 0.213934 -0.048560
C231  C     C_R   0.218276 0.027552 0.786243 -0.050605
C232  C     C_R   0.027823 0.744104 0.189027 -0.044891
C233  C     C_R   0.972186 0.256734 0.810736 -0.041849
C234  C     C_R   0.218610 0.027302 0.213301 -0.058670
C235  C     C_R   0.249986 0.110028 0.249838 0.683958
C236  C     C_R   0.781633 0.972604 0.786327 -0.050751
C237  C     C_R   0.972706 0.214524 0.217393 -0.057222
C238  C     C_R   0.027812 0.743552 0.810810 -0.041937
C239  C     C_R   0.472900 0.214961 0.282642 -0.062897
C240  C     C_R   0.526921 0.803984 0.741062 -0.039112
C241  C     C_R   0.212564 0.280365 0.527711 -0.048075
C242  C     C_R   0.787542 0.719618 0.472550 -0.054750
C243  C     C_R   0.528218 0.196741 0.742478 -0.045343
C244  C     C_R   0.472302 0.784021 0.283815 -0.058659
C245  C     C_R   0.791218 0.224045 0.474862 -0.048916
C246  C     C_R   0.749956 0.889954 0.750042 0.697701
C247  C     C_R   0.225791 0.792238 0.525242 -0.049311
C248  C     C_R   0.471792 0.803243 0.742606 -0.045546
C249  C     C_R   0.527693 0.216142 0.283835 -0.058712
C250  C     C_R   0.209711 0.777379 0.475041 -0.047443
C251  C     C_R   0.775590 0.208643 0.524979 -0.050381
C252  C     C_R   0.527107 0.785101 0.282716 -0.062844
C253  C     C_R   0.473082 0.195991 0.740941 -0.039077
C254  C     C_R   0.787067 0.719066 0.527520 -0.047561
C255  C     C_R   0.212303 0.280016 0.472758 -0.060394
C256  C     C_R   0.205100 0.475515 0.772798 -0.040667
C257  C     C_R   0.110059 0.244460 0.755748 0.589826
C258  C     C_R   0.781883 0.527313 0.286044 -0.058470
C259  C     C_R   0.219382 0.527681 0.287107 -0.051650
C260  C     C_R   0.800236 0.472761 0.755818 -0.039552
C261  C     C_R   0.794989 0.524585 0.772671 -0.040373
C262  C     C_R   0.219704 0.472934 0.287361 -0.063609
C263  C     C_R   0.780999 0.472578 0.286855 -0.057347
C264  C     C_R   0.199830 0.527240 0.755861 -0.039348
C265  C     C_R   0.446231 0.754390 0.747140 0.034697
C266  C     C_R   0.554141 0.250346 0.250057 0.022087
C267  C     C_R   0.749758 0.749590 0.554216 0.026252
C268  C     C_R   0.889942 0.755574 0.244271 0.602419
C269  C     C_R   0.249960 0.249954 0.445990 0.013987
C270  C     C_R   0.554021 0.750365 0.249416 0.018694
C271  C     C_R   0.446180 0.243665 0.736716 0.039294
C272  C     C_R   0.239641 0.740375 0.447327 0.047097
C273  C     C_R   0.739816 0.239994 0.552654 0.048280
C274  C     C_R   0.445988 0.249605 0.249395 0.018722
C275  C     C_R   0.553812 0.756297 0.736742 0.039154
C276  C     C_R   0.760202 0.260106 0.447327 0.051123
C277  C     C_R   0.260590 0.759828 0.552739 0.047960
C278  C     C_R   0.553781 0.245604 0.747118 0.034946
C279  C     C_R   0.110091 0.250157 0.249989 0.680588
C280  C     C_R   0.445845 0.749653 0.250066 0.022091
C281  C     C_R   0.250142 0.250182 0.554261 0.026764
C282  C     C_R   0.750239 0.750125 0.445945 0.017249
C283  C     C_R   0.749633 0.445944 0.250297 0.020532
C284  C     C_R   0.243723 0.553512 0.737444 0.043122
C285  C     C_R   0.748724 0.552581 0.758722 0.049506
C286  C     C_R   0.250147 0.446008 0.250019 0.017473
C287  C     C_R   0.250108 0.554103 0.249979 0.024850
C288  C     C_R   0.756336 0.446419 0.737468 0.043147
C289  C     C_R   0.251332 0.447453 0.758861 0.049503
C290  C     C_R   0.889919 0.755550 0.755752 0.588837
C291  C     C_R   0.750332 0.554032 0.249626 0.022301
C292  C     C_R   0.945422 0.230894 0.769658 0.028998
C293  C     C_R   0.054578 0.769306 0.230499 0.028685
C294  C     C_R   0.730339 0.269823 0.054750 0.031935
C295  C     C_R   0.269611 0.730205 0.945201 0.026925
C296  C     C_R   0.054032 0.250438 0.249584 0.017615
C297  C     C_R   0.945265 0.769057 0.769808 0.026882
C298  C     C_R   0.269884 0.269211 0.945359 0.023190
C299  C     C_R   0.730474 0.730360 0.054674 0.034331
C300  C     C_R   0.945277 0.769187 0.230378 0.027695
C301  C     C_R   0.110016 0.755648 0.244346 0.597922
C302  C     C_R   0.054726 0.231011 0.769777 0.026682
C303  C     C_R   0.730125 0.730832 0.945294 0.024324
C304  C     C_R   0.269646 0.269585 0.054744 0.033509
C305  C     C_R   0.054582 0.769171 0.769693 0.029238
C306  C     C_R   0.945856 0.249690 0.250268 0.022860
C307  C     C_R   0.269465 0.730057 0.054668 0.032572
C308  C     C_R   0.730348 0.269799 0.945284 0.025819
C309  C     C_R   0.249539 0.945872 0.250302 0.025425
C310  C     C_R   0.750481 0.054080 0.749523 0.026001
C311  C     C_R   0.249854 0.054021 0.749853 0.023026
C312  C     C_R   0.889984 0.244387 0.755674 0.594074
C313  C     C_R   0.750195 0.945972 0.250045 0.021392
C314  C     C_R   0.750113 0.054065 0.249930 0.020175
C315  C     C_R   0.249657 0.945921 0.749638 0.025609
C316  C     C_R   0.750017 0.945984 0.749974 0.022895
C317  C     C_R   0.250151 0.053959 0.249706 0.016021
C318  C     C_R   0.110036 0.755621 0.755680 0.593530
C319  C     C_R   0.250892 0.390511 0.752541 0.588859
C320  C     C_R   0.889870 0.249897 0.250037 0.679507
C321  C     C_R   0.255726 0.255583 0.889968 0.596439
C322  C     C_R   0.744283 0.744218 0.110073 0.620462
C323  C     C_R   0.255739 0.744283 0.889865 0.600469
C324  C     C_R   0.744209 0.255784 0.110136 0.616195
C325  C     C_R   0.744254 0.744457 0.889950 0.597481
C326  C     C_R   0.255782 0.255764 0.110098 0.615725
C327  C     C_R   0.744279 0.255749 0.889890 0.599444
C328  C     C_R   0.255712 0.744187 0.110107 0.621393
C329  C     C_R   0.544393 0.669005 0.693704 0.436937
C330  C     C_R   0.250066 0.610076 0.249968 0.685350
C331  C     C_R   0.445670 0.317973 0.181213 0.409530
C332  C     C_R   0.675568 0.811613 0.446123 0.395291
C333  C     C_R   0.326194 0.190265 0.554243 0.401521
C334  C     C_R   0.446210 0.681364 0.181515 0.410705
C335  C     C_R   0.547704 0.341829 0.748747 0.413907
C336  C     C_R   0.336404 0.700173 0.545433 0.426792
C337  C     C_R   0.703936 0.338203 0.454602 0.406493
C338  C     C_R   0.553777 0.318142 0.181296 0.411063
C339  C     C_R   0.452294 0.658170 0.748665 0.414061
C340  C     C_R   0.662441 0.297566 0.545735 0.426221
C341  C     C_R   0.752377 0.390137 0.746360 0.598473
C342  C     C_R   0.293722 0.660794 0.454134 0.405124
C343  C     C_R   0.455645 0.330797 0.693723 0.436790
C344  C     C_R   0.554319 0.681745 0.181207 0.409764
C345  C     C_R   0.325160 0.189111 0.445926 0.394286
C346  C     C_R   0.674093 0.809984 0.554421 0.401843
C347  C     C_R   0.686873 0.553943 0.176508 0.412510
C348  C     C_R   0.345437 0.452987 0.741162 0.421129
C349  C     C_R   0.673191 0.455219 0.687464 0.422984
C350  C     C_R   0.312477 0.553528 0.175911 0.413852
C351  C     C_R   0.312342 0.445754 0.175809 0.413554
C352  C     C_R   0.247655 0.609842 0.746328 0.598652
C353  C     C_R   0.654618 0.546953 0.741034 0.421008
C354  C     C_R   0.326926 0.544511 0.687573 0.422709
C355  C     C_R   0.686264 0.446176 0.177105 0.413861
C356  C     C_R   0.054491 0.144437 0.726834 0.403290
C357  C     C_R   0.945537 0.855196 0.274509 0.400583
C358  C     C_R   0.644097 0.226487 0.945793 0.402211
C359  C     C_R   0.355956 0.772987 0.054233 0.403499
C360  C     C_R   0.945507 0.319694 0.317044 0.403839
C361  C     C_R   0.053436 0.855474 0.726542 0.403424
C362  C     C_R   0.355756 0.225121 0.054303 0.403501
C363  C     C_R   0.749922 0.389940 0.250096 0.690699
C364  C     C_R   0.644249 0.775687 0.946332 0.400447
C365  C     C_R   0.053411 0.855148 0.274983 0.412907
C366  C     C_R   0.946567 0.144468 0.726395 0.403339
C367  C     C_R   0.644206 0.774513 0.054518 0.403145
C368  C     C_R   0.355740 0.224305 0.946113 0.400693
C369  C     C_R   0.945515 0.855506 0.726972 0.403582
C370  C     C_R   0.053423 0.323387 0.313062 0.394805
C371  C     C_R   0.355960 0.773309 0.946013 0.401906
C372  C     C_R   0.644122 0.226320 0.054005 0.404111
C373  C     C_R   0.227599 0.355616 0.945456 0.440072
C374  C     C_R   0.610107 0.250176 0.249939 0.686262
C375  C     C_R   0.776002 0.644693 0.053058 0.414347
C376  C     C_R   0.313019 0.053644 0.323285 0.394895
C377  C     C_R   0.688198 0.946252 0.675465 0.403894
C378  C     C_R   0.223477 0.645134 0.053515 0.415576
C379  C     C_R   0.774956 0.355206 0.945962 0.413243
C380  C     C_R   0.311028 0.945684 0.674701 0.427779
C381  C     C_R   0.686890 0.054395 0.323285 0.381081
C382  C     C_R   0.772609 0.644510 0.944981 0.439943
C383  C     C_R   0.224557 0.355482 0.053559 0.402599
C384  C     C_R   0.686764 0.946667 0.323136 0.394066
F1    F     F_    0.581990 0.675312 0.657398 -0.576749
F2    F     F_    0.409276 0.650758 0.778143 -0.603779
F3    F     F_    0.636939 0.274737 0.585723 -0.585091
F4    F     F_    0.269918 0.636829 0.413671 -0.577943
F5    F     F_    0.418078 0.324348 0.657387 -0.577088
F6    F     F_    0.606773 0.679693 0.178131 -0.558382
F7    F     F_    0.327379 0.186255 0.393411 -0.552029
F8    F     F_    0.669978 0.810870 0.606992 -0.567776
F9    F     F_    0.684544 0.606222 0.173596 -0.554446
F10   F     F_    0.356720 0.410103 0.769430 -0.600133
F11   F     F_    0.683788 0.418099 0.651587 -0.593124
F12   F     F_    0.393214 0.320117 0.178251 -0.558770
F13   F     F_    0.315476 0.605786 0.173586 -0.553828
F14   F     F_    0.315248 0.393466 0.173417 -0.554159
F15   F     F_    0.643306 0.589951 0.769295 -0.600199
F16   F     F_    0.316380 0.581519 0.651723 -0.593394
F17   F     F_    0.683130 0.393916 0.174969 -0.553836
F18   F     F_    0.104543 0.134169 0.739284 -0.579452
F19   F     F_    0.895610 0.865872 0.261899 -0.580999
F20   F     F_    0.633628 0.238770 0.895654 -0.594702
F21   F     F_    0.366285 0.760782 0.104398 -0.573412
F22   F     F_    0.893159 0.319887 0.322173 -0.570243
F23   F     F_    0.673575 0.814712 0.393624 -0.550799
F24   F     F_    0.103484 0.865823 0.738627 -0.575673
F25   F     F_    0.366360 0.237554 0.104385 -0.573768
F26   F     F_    0.633586 0.764091 0.896054 -0.603319
F27   F     F_    0.103358 0.865842 0.262838 -0.577357
F28   F     F_    0.896496 0.134184 0.738400 -0.575339
F29   F     F_    0.633650 0.761908 0.104516 -0.573660
F30   F     F_    0.366448 0.236098 0.895935 -0.603044
F31   F     F_    0.895481 0.865838 0.739494 -0.579404
F32   F     F_    0.105657 0.328530 0.312723 -0.552662
F33   F     F_    0.366335 0.761302 0.895740 -0.594974
F34   F     F_    0.329995 0.189029 0.606827 -0.568152
F35   F     F_    0.633679 0.238294 0.104249 -0.572930
F36   F     F_    0.242175 0.365790 0.895907 -0.549944
F37   F     F_    0.765556 0.634031 0.103494 -0.568090
F38   F     F_    0.315226 0.105854 0.326080 -0.551536
F39   F     F_    0.686084 0.894002 0.672455 -0.552500
F40   F     F_    0.235125 0.633997 0.103610 -0.568506
F41   F     F_    0.762346 0.366075 0.895984 -0.598452
F42   F     F_    0.312116 0.893401 0.670652 -0.558496
F43   F     F_    0.684832 0.106702 0.326424 -0.599445
F44   F     F_    0.757772 0.634200 0.895495 -0.550092
F45   F     F_    0.393770 0.678751 0.178932 -0.557778
F46   F     F_    0.235045 0.365996 0.104054 -0.570437
F47   F     F_    0.684649 0.894472 0.326053 -0.552292
F48   F     F_    0.313655 0.105686 0.672206 -0.552828
F49   F     F_    0.763509 0.366052 0.104256 -0.571121
F50   F     F_    0.237577 0.633902 0.895534 -0.598551
F51   F     F_    0.688277 0.106264 0.670331 -0.560210
F52   F     F_    0.314685 0.893627 0.326944 -0.599760
F53   F     F_    0.183591 0.106629 0.825570 -0.608265
F54   F     F_    0.818198 0.893280 0.175949 -0.607884
F55   F     F_    0.103779 0.736126 0.866524 -0.594312
F56   F     F_    0.590699 0.349344 0.778260 -0.603820
F57   F     F_    0.893838 0.176728 0.181248 -0.599055
F58   F     F_    0.816048 0.893694 0.825893 -0.607724
F59   F     F_    0.186650 0.106052 0.171679 -0.598333
F60   F     F_    0.896259 0.264467 0.866509 -0.595940
F61   F     F_    0.103956 0.736977 0.133487 -0.598222
F62   F     F_    0.814407 0.105669 0.172588 -0.596843
F63   F     F_    0.183084 0.894117 0.825039 -0.607851
F64   F     F_    0.896296 0.736135 0.133514 -0.598549
F65   F     F_    0.103494 0.265340 0.866465 -0.589155
F66   F     F_    0.181123 0.893769 0.176589 -0.606887
F67   F     F_    0.362726 0.722374 0.585333 -0.584014
F68   F     F_    0.817207 0.106195 0.824773 -0.608451
F69   F     F_    0.106817 0.177473 0.180679 -0.599576
F70   F     F_    0.896439 0.735276 0.866484 -0.587514
F71   F     F_    0.606808 0.182456 0.323939 -0.601134
F72   F     F_    0.393080 0.854244 0.728738 -0.585949
F73   F     F_    0.170977 0.311833 0.393622 -0.553917
F74   F     F_    0.825738 0.683791 0.606807 -0.656385
F75   F     F_    0.395560 0.143899 0.728870 -0.568438
F76   F     F_    0.605677 0.826178 0.315128 -0.552271
F77   F     F_    0.773096 0.137076 0.585496 -0.571342
F78   F     F_    0.727163 0.363003 0.414414 -0.571690
F79   F     F_    0.137422 0.777732 0.414876 -0.597430
F80   F     F_    0.604451 0.856046 0.729126 -0.568172
F81   F     F_    0.394372 0.173625 0.314619 -0.552182
F82   F     F_    0.230231 0.863303 0.586511 -0.571171
F83   F     F_    0.863154 0.225832 0.414343 -0.578164
F84   F     F_    0.393164 0.818128 0.323670 -0.600272
F85   F     F_    0.606931 0.145736 0.728414 -0.585973
F86   F     F_    0.829239 0.687947 0.393198 -0.598586
F87   F     F_    0.173164 0.314890 0.607139 -0.656128
F88   F     F_    0.140980 0.596280 0.731386 -0.629410
F89   F     F_    0.606211 0.320558 0.178533 -0.556586
F90   F     F_    0.812842 0.393802 0.328624 -0.563974
F91   F     F_    0.187590 0.394451 0.328630 -0.555033
F92   F     F_    0.829104 0.583650 0.838386 -0.562755
F93   F     F_    0.859018 0.403544 0.731381 -0.629414
F94   F     F_    0.184571 0.606758 0.326358 -0.614121
F95   F     F_    0.819220 0.605980 0.322801 -0.600520
F96   F     F_    0.171150 0.416741 0.838586 -0.562290
H1    H     H_    0.545202 0.934966 0.734944 0.143612
H2    H     H_    0.450155 0.933942 0.733645 0.144751
H3    H     H_    0.855142 0.103262 0.538070 0.153940
H4    H     H_    0.107341 0.861031 0.462214 0.152829
H5    H     H_    0.454824 0.064996 0.734523 0.143552
H6    H     H_    0.546756 0.881268 0.372629 0.143045
H7    H     H_    0.109699 0.362488 0.452617 0.147614
H8    H     H_    0.887821 0.634308 0.547558 0.157209
H9    H     H_    0.869140 0.547275 0.384769 0.153768
H10   H     H_    0.085481 0.465159 0.830617 0.142344
H11   H     H_    0.928691 0.453512 0.782998 0.147124
H12   H     H_    0.453266 0.118954 0.372330 0.142958
H13   H     H_    0.134977 0.548236 0.388356 0.164412
H14   H     H_    0.136246 0.453372 0.389341 0.149334
H15   H     H_    0.914713 0.535203 0.830290 0.142129
H16   H     H_    0.071402 0.546580 0.783210 0.146992
H17   H     H_    0.866392 0.452488 0.387247 0.159436
H18   H     H_    0.046861 0.319530 0.926732 0.155767
H19   H     H_    0.953123 0.683944 0.071629 0.148870
H20   H     H_    0.814829 0.427596 0.952468 0.151936
H21   H     H_    0.182785 0.573243 0.046474 0.147605
H22   H     H_    0.953054 0.117516 0.128378 0.154027
H23   H     H_    0.889289 0.636055 0.452173 0.155289
H24   H     H_    0.047908 0.682215 0.927190 0.147213
H25   H     H_    0.185918 0.428775 0.046118 0.149311
H26   H     H_    0.811461 0.571162 0.950162 0.179592
H27   H     H_    0.047934 0.684358 0.071574 0.147801
H28   H     H_    0.952058 0.319089 0.926808 0.151253
H29   H     H_    0.815085 0.571645 0.045212 0.148346
H30   H     H_    0.189167 0.429172 0.951050 0.179353
H31   H     H_    0.953115 0.681785 0.927118 0.151705
H32   H     H_    0.048234 0.117771 0.128213 0.153814
H33   H     H_    0.183894 0.573061 0.951413 0.151781
H34   H     H_    0.110657 0.363788 0.548049 0.156252
H35   H     H_    0.815261 0.427555 0.047545 0.148606
H36   H     H_    0.428803 0.184846 0.952879 0.152516
H37   H     H_    0.571013 0.813832 0.048459 0.149995
H38   H     H_    0.132179 0.047429 0.113837 0.153269
H39   H     H_    0.868605 0.952474 0.885320 0.163795
H40   H     H_    0.429530 0.810954 0.047871 0.150153
H41   H     H_    0.570716 0.188158 0.952231 0.153006
H42   H     H_    0.130968 0.953275 0.884913 0.163866
H43   H     H_    0.868601 0.046587 0.114496 0.153476
H44   H     H_    0.571108 0.814986 0.953384 0.152471
H45   H     H_    0.451709 0.877643 0.376425 0.151903
H46   H     H_    0.428853 0.185641 0.047960 0.150148
H47   H     H_    0.870272 0.951765 0.116001 0.162307
H48   H     H_    0.131180 0.048097 0.885136 0.162333
H49   H     H_    0.570749 0.187998 0.047328 0.150258
H50   H     H_    0.429513 0.811287 0.952769 0.153023
H51   H     H_    0.869100 0.047291 0.884843 0.162414
H52   H     H_    0.129737 0.952654 0.116024 0.162113
H53   H     H_    0.365091 0.046725 0.611616 0.153918
H54   H     H_    0.632062 0.953379 0.385763 0.145502
H55   H     H_    0.046460 0.928977 0.688556 0.151215
H56   H     H_    0.549870 0.066032 0.733192 0.144736
H57   H     H_    0.951645 0.381082 0.373030 0.155642
H58   H     H_    0.634863 0.952704 0.611681 0.153442
H59   H     H_    0.367475 0.047246 0.386128 0.145518
H60   H     H_    0.953550 0.070857 0.688312 0.151539
H61   H     H_    0.046445 0.928027 0.314442 0.153928
H62   H     H_    0.632143 0.048278 0.385879 0.151150
H63   H     H_    0.364414 0.951867 0.610963 0.164816
H64   H     H_    0.951628 0.928115 0.313939 0.154970
H65   H     H_    0.048375 0.070793 0.688770 0.151236
H66   H     H_    0.367321 0.952349 0.386393 0.151387
H67   H     H_    0.149522 0.899961 0.539032 0.153446
H68   H     H_    0.635818 0.047553 0.610784 0.164630
H69   H     H_    0.046675 0.384944 0.368835 0.146411
H70   H     H_    0.951638 0.929041 0.689004 0.151363
H71   H     H_    0.547041 0.376625 0.122519 0.159810
H72   H     H_    0.457385 0.577683 0.728371 0.136264
H73   H     H_    0.389682 0.136760 0.452179 0.144116
H74   H     H_    0.609891 0.862720 0.548012 0.156838
H75   H     H_    0.468924 0.408737 0.668392 0.131827
H76   H     H_    0.548148 0.622901 0.122542 0.159324
H77   H     H_    0.604534 0.357267 0.538840 0.163737
H78   H     H_    0.896113 0.143640 0.461509 0.154251
H79   H     H_    0.350459 0.600020 0.461318 0.158099
H80   H     H_    0.531163 0.590957 0.668368 0.132011
H81   H     H_    0.451839 0.376513 0.122483 0.159761
H82   H     H_    0.392628 0.638905 0.538165 0.164428
H83   H     H_    0.645537 0.397379 0.462158 0.158042
H84   H     H_    0.452950 0.622558 0.122821 0.159959
H85   H     H_    0.542668 0.422233 0.728436 0.136327
H86   H     H_    0.611419 0.864422 0.452578 0.144409
H87   H     H_    0.390785 0.138002 0.547629 0.157157
H88   H     H_    0.405638 0.537088 0.660960 0.136260
H89   H     H_    0.548283 0.122948 0.376490 0.151768
H90   H     H_    0.631812 0.452673 0.114275 0.161523
H91   H     H_    0.365814 0.451845 0.112135 0.161571
H92   H     H_    0.575247 0.536599 0.718310 0.129753
H93   H     H_    0.594480 0.462481 0.660837 0.136197
H94   H     H_    0.365943 0.546728 0.112234 0.161981
H95   H     H_    0.632388 0.547551 0.113714 0.160831
H96   H     H_    0.424816 0.463206 0.718447 0.129869
O1    O     O_3   0.750000 0.750000 0.750000 -0.520545
O2    O     O_R   0.280360 0.365810 0.280360 -0.496293
O3    O     O_R   0.780360 0.780360 0.634190 -0.497813
O4    O     O_R   0.219640 0.780360 0.365810 -0.482817
O5    O     O_R   0.780360 0.219640 0.634190 -0.497342
O6    O     O_R   0.780360 0.780360 0.365810 -0.487529
O7    O     O_R   0.219640 0.219640 0.634190 -0.496694
O8    O     O_R   0.719640 0.634190 0.280360 -0.501066
O9    O     O_R   0.280360 0.365810 0.719640 -0.502748
O10   O     O_R   0.280360 0.634190 0.280360 -0.469544
O11   O     O_R   0.719640 0.365810 0.719640 -0.471545
O12   O     O_R   0.280360 0.634190 0.719640 -0.471392
O13   O     O_R   0.719640 0.365810 0.280360 -0.466182
O14   O     O_R   0.634190 0.280360 0.280360 -0.502032
O15   O     O_R   0.365810 0.719640 0.719640 -0.468730
O16   O     O_R   0.634190 0.719640 0.280360 -0.500135
O17   O     O_3   0.250000 0.250000 0.250000 -0.499536
O18   O     O_R   0.365810 0.280360 0.719640 -0.449014
O19   O     O_R   0.634190 0.719640 0.719640 -0.449159
O20   O     O_R   0.365810 0.280360 0.280360 -0.502365
O21   O     O_R   0.634190 0.280360 0.719640 -0.468851
O22   O     O_R   0.365810 0.719640 0.280360 -0.499945
O23   O     O_R   0.280360 0.719640 0.365810 -0.483386
O24   O     O_R   0.719640 0.280360 0.634190 -0.476451
O25   O     O_R   0.719640 0.719640 0.365810 -0.490079
O26   O     O_R   0.280360 0.280360 0.634190 -0.469232
O27   O     O_R   0.719640 0.280360 0.365810 -0.481999
O28   O     O_3   0.750000 0.750000 0.250000 -0.507508
O29   O     O_R   0.280360 0.719640 0.634190 -0.476352
O30   O     O_R   0.280360 0.280360 0.365810 -0.486396
O31   O     O_R   0.719640 0.719640 0.634190 -0.468079
O32   O     O_R   0.219640 0.134190 0.719640 -0.449349
O33   O     O_R   0.780360 0.865810 0.280360 -0.448644
O34   O     O_R   0.719640 0.134190 0.780360 -0.482981
O35   O     O_R   0.280360 0.865810 0.219640 -0.505633
O36   O     O_R   0.780360 0.134190 0.280360 -0.493667
O37   O     O_R   0.219640 0.865810 0.719640 -0.418957
O38   O     O_R   0.280360 0.134190 0.219640 -0.489258
O39   O     O_3   0.250000 0.250000 0.750000 -0.520402
O40   O     O_R   0.719640 0.865810 0.780360 -0.474796
O41   O     O_R   0.219640 0.865810 0.280360 -0.449578
O42   O     O_R   0.780360 0.134190 0.719640 -0.418426
O43   O     O_R   0.719640 0.865810 0.219640 -0.502094
O44   O     O_R   0.280360 0.134190 0.780360 -0.475297
O45   O     O_R   0.780360 0.865810 0.719640 -0.449570
O46   O     O_R   0.219640 0.134190 0.280360 -0.492277
O47   O     O_R   0.280360 0.865810 0.780360 -0.482400
O48   O     O_R   0.719640 0.134190 0.219640 -0.493639
O49   O     O_R   0.134190 0.280360 0.780360 -0.478073
O50   O     O_3   0.250000 0.750000 0.250000 -0.514334
O51   O     O_R   0.865810 0.719640 0.219640 -0.479650
O52   O     O_R   0.134190 0.219640 0.280360 -0.492437
O53   O     O_R   0.865810 0.780360 0.719640 -0.480447
O54   O     O_R   0.134190 0.719640 0.219640 -0.487445
O55   O     O_R   0.865810 0.280360 0.780360 -0.459666
O56   O     O_R   0.134190 0.780360 0.719640 -0.494416
O57   O     O_R   0.865810 0.219640 0.280360 -0.459614
O58   O     O_R   0.865810 0.719640 0.780360 -0.478306
O59   O     O_R   0.134190 0.280360 0.219640 -0.492420
O60   O     O_R   0.865810 0.780360 0.280360 -0.474083
O61   O     O_3   0.750000 0.250000 0.750000 -0.524786
O62   O     O_R   0.134190 0.219640 0.719640 -0.479839
O63   O     O_R   0.865810 0.280360 0.219640 -0.507526
O64   O     O_R   0.134190 0.719640 0.780360 -0.459922
O65   O     O_R   0.865810 0.219640 0.719640 -0.494167
O66   O     O_R   0.134190 0.780360 0.280360 -0.452776
O67   O     O_R   0.280360 0.219640 0.865810 -0.485566
O68   O     O_R   0.719640 0.780360 0.134190 -0.485472
O69   O     O_R   0.219640 0.719640 0.865810 -0.436812
O70   O     O_R   0.780360 0.280360 0.134190 -0.476297
O71   O     O_R   0.719640 0.780360 0.865810 -0.485339
O72   O     O_3   0.250000 0.750000 0.750000 -0.524771
O73   O     O_R   0.280360 0.219640 0.134190 -0.476830
O74   O     O_R   0.780360 0.280360 0.865810 -0.436805
O75   O     O_R   0.219640 0.719640 0.134190 -0.431942
O76   O     O_R   0.719640 0.219640 0.134190 -0.473934
O77   O     O_R   0.280360 0.780360 0.865810 -0.483910
O78   O     O_R   0.780360 0.719640 0.134190 -0.433477
O79   O     O_R   0.219640 0.280360 0.865810 -0.426507
O80   O     O_R   0.280360 0.780360 0.134190 -0.482438
O81   O     O_R   0.719640 0.219640 0.865810 -0.484236
O82   O     O_R   0.219640 0.280360 0.134190 -0.476436
O83   O     O_3   0.750000 0.250000 0.250000 -0.506365
O84   O     O_R   0.780360 0.719640 0.865810 -0.426220
O85   O     O_R   0.219640 0.634190 0.219640 -0.460645
O86   O     O_R   0.780360 0.365810 0.780360 -0.457765
O87   O     O_R   0.219640 0.634190 0.780360 -0.457335
O88   O     O_R   0.780360 0.365810 0.219640 -0.457983
O89   O     O_R   0.780360 0.634190 0.780360 -0.441389
O90   O     O_R   0.219640 0.365810 0.219640 -0.446979
O91   O     O_R   0.780360 0.634190 0.219640 -0.450948
O92   O     O_R   0.219640 0.365810 0.780360 -0.441803
O93   O     O_R   0.634190 0.780360 0.780360 -0.447240
O94   O     O_R   0.719640 0.634190 0.719640 -0.502409
O95   O     O_R   0.365810 0.219640 0.219640 -0.444797
O96   O     O_R   0.634190 0.219640 0.780360 -0.442172
O97   O     O_R   0.365810 0.780360 0.219640 -0.451612
O98   O     O_R   0.634190 0.219640 0.219640 -0.452785
O99   O     O_R   0.365810 0.780360 0.780360 -0.442262
O100  O     O_R   0.634190 0.780360 0.219640 -0.443794
O101  O     O_R   0.365810 0.219640 0.780360 -0.446976
O102  O     O_R   0.780360 0.219640 0.365810 -0.481076
O103  O     O_R   0.219640 0.780360 0.634190 -0.498606
O104  O     O_R   0.219640 0.219640 0.365810 -0.487407
Zn1   Zn    Zn3+2 0.706630 0.793370 0.793370 1.144902
Zn2   Zn    Zn3+2 0.293370 0.793370 0.793370 1.139877
Zn3   Zn    Zn3+2 0.793370 0.206630 0.706630 1.123683
Zn4   Zn    Zn3+2 0.206630 0.793370 0.293370 1.146233
Zn5   Zn    Zn3+2 0.293370 0.206630 0.793370 1.144302
Zn6   Zn    Zn3+2 0.706630 0.793370 0.206630 1.158212
Zn7   Zn    Zn3+2 0.206630 0.206630 0.293370 1.147912
Zn8   Zn    Zn3+2 0.793370 0.793370 0.706630 1.130184
Zn9   Zn    Zn3+2 0.793370 0.706630 0.206630 1.167426
Zn10  Zn    Zn3+2 0.206630 0.293370 0.793370 1.141046
Zn11  Zn    Zn3+2 0.793370 0.293370 0.793370 1.125769
Zn12  Zn    Zn3+2 0.293370 0.206630 0.206630 1.167175
Zn13  Zn    Zn3+2 0.206630 0.706630 0.206630 1.154134
Zn14  Zn    Zn3+2 0.206630 0.293370 0.206630 1.164804
Zn15  Zn    Zn3+2 0.793370 0.706630 0.793370 1.140869
Zn16  Zn    Zn3+2 0.206630 0.706630 0.793370 1.125648
Zn17  Zn    Zn3+2 0.793370 0.293370 0.206630 1.150433
Zn18  Zn    Zn3+2 0.706630 0.293370 0.293370 1.154326
Zn19  Zn    Zn3+2 0.293370 0.706630 0.706630 1.126584
Zn20  Zn    Zn3+2 0.293370 0.293370 0.293370 1.156367
Zn21  Zn    Zn3+2 0.706630 0.706630 0.706630 1.139016
Zn22  Zn    Zn3+2 0.293370 0.293370 0.706630 1.138258
Zn23  Zn    Zn3+2 0.793370 0.793370 0.293370 1.154010
Zn24  Zn    Zn3+2 0.706630 0.706630 0.293370 1.142010
Zn25  Zn    Zn3+2 0.706630 0.293370 0.706630 1.126046
Zn26  Zn    Zn3+2 0.293370 0.706630 0.293370 1.137321
Zn27  Zn    Zn3+2 0.206630 0.206630 0.706630 1.130960
Zn28  Zn    Zn3+2 0.293370 0.793370 0.206630 1.142780
Zn29  Zn    Zn3+2 0.706630 0.206630 0.793370 1.139163
Zn30  Zn    Zn3+2 0.206630 0.793370 0.706630 1.122099
Zn31  Zn    Zn3+2 0.793370 0.206630 0.293370 1.147912
Zn32  Zn    Zn3+2 0.706630 0.206630 0.206630 1.151085

loop_
_geom_bond_atom_site_label_1
_geom_bond_atom_site_label_2
_ccdc_geom_bond_type
C85   H46   S    
C91   C368  A    
C174  C333  A    
O10   Zn26  S    
C97   C375  A    
C82   C94   A    
C200  C359  A    
C71   H96   S    
C239  C249  A    
C225  C237  A    
C343  F5    S    
O83   Zn31  S    
C268  O60   A    
C51   F96   S    
C197  C362  A    
C348  F10   S    
C179  C313  S    
O87   Zn16  S    
C161  C346  A    
C47   C261  A    
C103  H63   S    
C31   F76   S    
C46   C274  S    
C218  C316  A    
C101  C282  S    
C361  F24   S    
C363  O88   A    
C246  O45   A    
C143  H67   S    
C176  C283  A    
C120  H38   S    
C69   H74   S    
C18   C125  A    
C78   C356  A    
C43   C264  A    
C81   C95   A    
C312  O55   A    
C98   C114  A    
O78   Zn9   S    
C151  H17   S    
C138  C145  A    
C108  H53   S    
C191  C369  A    
O98   Zn32  S    
C20   F65   S    
C201  C309  S    
C97   H29   S    
C16   C122  A    
C219  C376  A    
C353  F15   S    
C330  O10   A    
O93   Zn1   S    
C347  F9    S    
O41   Zn4   S    
O62   Zn27  S    
C236  C316  A    
C223  O8    A    
C249  C266  A    
C298  C321  S    
O56   Zn30  S    
C191  C198  A    
C198  C305  A    
C200  C307  A    
O14   Zn18  S    
C159  C169  A    
C47   F92   S    
C201  O41   A    
C171  C277  A    
C97   C105  A    
C90   O24   A    
C244  C280  A    
C112  O90   A    
O85   Zn13  S    
C290  C297  S    
O55   Zn11  S    
C185  C195  A    
C377  F39   S    
C51   C256  A    
C208  C294  A    
C23   C225  A    
C203  C213  A    
O6    Zn23  S    
C4    C208  A    
C261  C285  A    
C146  C269  S    
C373  F36   S    
C21   C227  A    
C5    F50   S    
C192  C368  A    
C217  C378  A    
C163  C270  A    
C60   C337  A    
C155  H13   S    
C32   C139  A    
C211  C375  A    
C126  H19   S    
C246  C316  S    
C47   C153  A    
C38   C245  A    
C23   C130  A    
C292  C312  S    
C26   C249  A    
C123  H43   S    
C125  H42   S    
C5    C207  A    
C346  F8    S    
C52   H80   S    
C283  C363  S    
O3    Zn8   S    
O44   Zn5   S    
O72   Zn16  S    
C233  C292  A    
C159  C339  A    
O39   Zn22  S    
C30   F75   S    
C19   C229  A    
O51   Zn9   S    
C187  C294  A    
C20   C127  A    
C124  O102  A    
O1    Zn21  S    
C70   H95   S    
C256  C264  A    
C244  C252  A    
C321  O79   A    
C28   C134  A    
C363  O13   A    
C307  C328  S    
C165  C342  A    
C67   C345  A    
C45   C152  A    
C7    C114  A    
C247  C250  A    
C14   F59   S    
C176  C184  A    
C174  C281  A    
C48   C260  A    
C91   H36   S    
C42   C241  A    
C40   C147  A    
C9    C116  A    
C295  C323  S    
C49   C155  A    
C104  C381  A    
C185  C366  A    
O17   Zn12  S    
C61   H71   S    
C243  C253  A    
C154  H11   S    
C179  O33   A    
C62   H72   S    
C330  O85   A    
C63   H77   S    
O96   Zn29  S    
C68   C280  S    
C178  C182  A    
O54   Zn13  S    
C75   H92   S    
C37   C247  A    
C284  C352  S    
C19   F64   S    
C268  O51   A    
C88   C366  A    
C168  C311  S    
C367  F29   S    
C325  O71   A    
C308  C327  S    
C210  C214  A    
O4    Zn4   S    
C257  O49   A    
C73   C350  A    
C56   C66   A    
C64   C342  A    
C8    C231  A    
O103  Zn30  S    
C16   C232  A    
C141  H1    S    
C33   C250  A    
C365  F27   S    
C230  C313  A    
C366  F28   S    
C359  F21   S    
C17   C221  A    
C380  F42   S    
C137  H5    S    
C52   C329  A    
C235  O38   A    
O46   Zn7   S    
C98   H59   S    
C102  C109  A    
C319  O9    A    
C166  C340  A    
C181  C350  A    
C157  O3    A    
C242  C282  A    
C104  C107  A    
C83   C93   A    
C165  C171  A    
C4    C109  A    
C54   H86   S    
C34   C141  A    
C160  C266  A    
C165  C272  A    
C306  C320  S    
C6    C111  A    
C140  C143  A    
C156  H9    S    
C12   F58   S    
C44   C263  A    
C79   O23   A    
O45   Zn8   S    
C137  C147  A    
C68   O97   A    
O83   Zn17  S    
O50   Zn4   S    
C26   F71   S    
O73   Zn12  S    
C187  C202  A    
C209  C215  A    
C368  F30   S    
C78   H65   S    
C266  C374  S    
C72   C349  A    
C195  C356  A    
O30   Zn20  S    
C214  C314  A    
O59   Zn14  S    
C150  H16   S    
C299  C322  S    
C45   F91   S    
C89   H37   S    
C5    C110  A    
C188  C200  A    
O101  Zn5   S    
C69   C346  A    
C323  O77   A    
C226  C236  A    
C335  F56   S    
O1    Zn15  S    
C139  C144  A    
C144  H78   S    
C189  C370  A    
C186  C293  A    
C101  O6    A    
C36   C142  A    
C2    O15   A    
C358  F20   S    
C232  C293  A    
C11   F57   S    
C53   C61   A    
O57   Zn31  S    
C27   F72   S    
C87   H61   S    
C356  F18   S    
C221  C230  A    
C87   C365  A    
C196  C364  A    
C213  C298  A    
O28   Zn23  S    
C173  C280  A    
C57   C278  S    
C189  C199  A    
C36   C239  A    
C324  O70   A    
O61   Zn29  S    
O18   Zn22  S    
C70   C77   A    
C41   F86   S    
O70   Zn17  S    
C112  O2    A    
O17   Zn14  S    
C160  C167  A    
C72   C75   A    
O61   Zn3   S    
C237  C306  A    
C66   H76   S    
C256  C289  A    
C147  H56   S    
C100  C378  A    
C192  C298  A    
C149  H34   S    
C227  C309  A    
C140  H4    S    
C99   H58   S    
C72   H93   S    
C152  H14   S    
C183  C289  A    
C180  C351  A    
O94   Zn21  S    
C89   C367  A    
C182  C349  A    
C215  C315  A    
C248  C265  A    
C50   C258  A    
O28   Zn6   S    
C32   F77   S    
C134  C149  A    
O67   Zn5   S    
C59   H82   S    
C9    C230  A    
C130  H32   S    
C35   O93   A    
O81   Zn29  S    
C190  O42   A    
C79   C272  S    
C167  C331  A    
C334  F45   S    
C12   C119  A    
C58   C65   A    
C86   H44   S    
C362  F25   S    
C99   C111  A    
C25   C222  A    
O68   Zn6   S    
C21   C128  A    
C136  H8    S    
C194  C357  A    
C228  C233  A    
C136  C148  A    
C170  C337  A    
C105  C382  A    
C351  F14   S    
C241  C255  A    
O11   Zn25  S    
C106  H25   S    
O58   Zn15  S    
C262  C286  A    
C164  C271  A    
C107  C384  A    
C74   H91   S    
C61   C338  A    
O72   Zn19  S    
C55   C333  A    
C131  H31   S    
C164  C172  A    
C48   F93   S    
C293  C301  S    
C163  C173  A    
C84   H55   S    
C92   H70   S    
C34   C240  A    
C179  O43   A    
C15   F60   S    
C48   C154  A    
C205  C219  A    
C51   C158  A    
C9    F54   S    
C220  C231  A    
C354  F16   S    
C122  H27   S    
C76   H88   S    
C350  F13   S    
O24   Zn25  S    
C57   O96   A    
C204  C303  A    
C37   C143  A    
O23   Zn26  S    
C304  C326  S    
O88   Zn17  S    
C121  H28   S    
O75   Zn13  S    
C40   F85   S    
C82   C359  A    
C166  C170  A    
O80   Zn28  S    
C197  C304  A    
C38   F83   S    
C116  H47   S    
C340  F3    S    
C20   C228  A    
C240  C275  A    
O39   Zn10  S    
C207  C295  A    
C290  O53   A    
C142  H12   S    
C24   O101  A    
C268  C300  S    
C10   C117  A    
C52   C62   A    
C67   H73   S    
C64   H79   S    
C49   C259  A    
C210  C384  A    
C53   C331  A    
C127  H18   S    
C161  C267  A    
O84   Zn15  S    
C46   O95   A    
O90   Zn14  S    
C24   O18   A    
C119  C129  A    
C216  C308  A    
C81   C358  A    
O60   Zn23  S    
C245  C251  A    
C117  C131  A    
C218  C377  A    
C80   H64   S    
C83   C360  A    
O31   Zn21  S    
O36   Zn31  S    
O28   Zn24  S    
O33   Zn23  S    
C44   F90   S    
C257  O62   A    
C56   H84   S    
C113  C281  S    
C90   O5    A    
C115  H48   S    
C337  F78   S    
C35   C275  S    
C18   F63   S    
C84   C92   A    
C11   C118  A    
C76   C354  A    
O8    Zn24  S    
C53   H81   S    
C132  H89   S    
C109  H35   S    
O104  Zn7   S    
C318  O64   A    
C3    C209  A    
C162  C269  A    
C100  C110  A    
C83   H57   S    
O2    Zn20  S    
C68   O22   A    
C73   C74   A    
C222  C297  A    
C28   C255  A    
C14   C234  A    
C7    C205  A    
C320  O63   A    
C235  C317  S    
C1    C285  S    
C84   C361  A    
C162  C345  A    
C376  F38   S    
C134  H7    S    
C318  O56   A    
C32   C251  A    
O50   Zn28  S    
C58   C335  A    
C245  C276  A    
C54   C332  A    
O17   Zn7   S    
C199  C306  A    
C145  H45   S    
C327  O81   A    
C121  C127  A    
C203  C383  A    
C331  F12   S    
C82   H40   S    
C71   C76   A    
C113  O7    A    
C224  O47   A    
C257  C302  S    
C102  H20   S    
C195  C302  A    
C169  C329  A    
C102  C379  A    
C229  C300  A    
O5    Zn3   S    
O79   Zn10  S    
C157  O31   A    
C42   C149  A    
O102  Zn31  S    
C303  C325  S    
C96   C106  A    
C226  C310  A    
O92   Zn10  S    
C74   C351  A    
C86   C364  A    
O66   Zn4   S    
C129  H51   S    
O64   Zn16  S    
C59   C336  A    
O61   Zn11  S    
C94   C371  A    
C118  H22   S    
C258  C291  A    
O100  Zn6   S    
C305  C318  S    
C175  C282  A    
C204  C382  A    
C23   F69   S    
O17   Zn20  S    
O72   Zn30  S    
O34   Zn29  S    
C80   C357  A    
C221  C314  A    
O49   Zn10  S    
C171  C336  A    
C18   C220  A    
C178  C285  A    
C30   C137  A    
C160  C338  A    
O16   Zn24  S    
O83   Zn32  S    
C223  O91   A    
O39   Zn27  S    
C146  O30   A    
C167  C274  A    
C186  C194  A    
C203  C304  A    
C93   C370  A    
C37   F82   S    
C254  C267  A    
C220  C315  A    
C207  C217  A    
C16   F61   S    
O82   Zn14  S    
C27   C133  A    
C3    F48   S    
C252  C270  A    
C201  O35   A    
C260  C261  A    
C287  C330  S    
C332  F23   S    
C177  C183  A    
C107  H54   S    
O35   Zn28  S    
C184  C347  A    
O97   Zn28  S    
O1    Zn1   S    
C187  C372  A    
C301  O54   A    
C2    O99   A    
C116  C123  A    
C62   C339  A    
C322  O78   A    
C118  C130  A    
C6    F51   S    
C190  C310  S    
O69   Zn16  S    
C55   C67   A    
C70   C347  A    
C152  C155  A    
O61   Zn25  S    
C4    F49   S    
C202  C358  A    
C124  O27   A    
C29   C254  A    
C369  F31   S    
C31   C138  A    
C259  C287  A    
C184  C291  A    
C370  F32   S    
O12   Zn19  S    
C193  C299  A    
C216  C379  A    
C22   C226  A    
C28   F73   S    
C194  C300  A    
O27   Zn18  S    
O26   Zn22  S    
C352  O12   A    
C14   C120  A    
O1    Zn8   S    
C228  C302  A    
C3    C108  A    
C11   C237  A    
C341  O11   A    
C320  O57   A    
C225  C296  A    
C180  C181  A    
C78   C88   A    
C333  F34   S    
C227  C234  A    
C55   H87   S    
C341  O86   A    
C128  H52   S    
C384  F47   S    
C42   F87   S    
C150  C158  A    
C279  O52   A    
C135  C277  S    
C38   C144  A    
O19   Zn21  S    
C328  O75   A    
C119  H39   S    
C246  O40   A    
C86   C89   A    
C224  C315  S    
C205  C309  A    
C120  C128  A    
C21   F66   S    
C229  C232  A    
O50   Zn13  S    
C163  C344  A    
C36   F81   S    
C19   C126  A    
C133  C141  A    
C312  O65   A    
C49   F94   S    
C99   C377  A    
O47   Zn2   S    
O76   Zn32  S    
C344  F6    S    
C301  O66   A    
C27   C248  A    
C193  C196  A    
C342  F4    S    
C212  O48   A    
C338  F89   S    
C253  C271  A    
C58   H85   S    
C161  C175  A    
C43   F88   S    
C204  C211  A    
O77   Zn2   S    
O63   Zn17  S    
C31   C252  A    
C65   C343  A    
C327  O74   A    
O71   Zn1   S    
C26   C132  A    
C180  C286  A    
C381  F43   S    
C181  C287  A    
C40   C243  A    
C324  O76   A    
C153  H15   S    
C182  C288  A    
C138  H6    S    
C29   C136  A    
C364  F26   S    
C260  C288  A    
C110  H33   S    
C290  O58   A    
C22   C129  A    
C240  C248  A    
C176  C355  A    
C135  O103  A    
C106  C383  A    
O48   Zn32  S    
C148  H23   S    
C172  C278  A    
O91   Zn9   S    
C43   C150  A    
O86   Zn11  S    
C206  C310  A    
C8    F53   S    
C213  C373  A    
C371  F33   S    
C345  F7    S    
C223  C291  S    
O38   Zn12  S    
O42   Zn3   S    
C7    F52   S    
C372  F35   S    
C212  C314  S    
C258  C263  A    
C169  C275  A    
C250  C272  A    
O95   Zn12  S    
C168  O44   A    
C259  C262  A    
C170  C276  A    
C85   C91   A    
C93   H69   S    
C224  O37   A    
C206  C218  A    
C41   C148  A    
C59   C64   A    
O15   Zn19  S    
C168  O32   A    
C60   C63   A    
C349  F11   S    
C1    O94   A    
C80   C87   A    
C135  O29   A    
C175  C332  A    
C191  C297  A    
C103  C380  A    
C33   C140  A    
C360  F22   S    
C279  C296  S    
C212  O36   A    
O39   Zn5   S    
C263  C283  A    
O72   Zn2   S    
C117  H24   S    
C328  O80   A    
O99   Zn2   S    
C374  O98   A    
C188  C371  A    
C29   F74   S    
C177  C284  A    
C8    C115  A    
C321  O67   A    
C17   C123  A    
C382  F44   S    
C33   F79   S    
O89   Zn15  S    
C50   C156  A    
C199  C360  A    
C98   C376  A    
C103  C108  A    
C355  F17   S    
C17   F62   S    
C186  C365  A    
C54   C69   A    
C85   C362  A    
C375  F37   S    
C101  O25   A    
O9    Zn22  S    
C63   C340  A    
C189  C296  A    
C383  F46   S    
C13   O16   A    
C96   H30   S    
C208  C216  A    
C158  H10   S    
O13   Zn18  S    
C39   C145  A    
C185  C292  A    
C112  C286  S    
C65   H75   S    
O74   Zn11  S    
C243  C278  A    
C374  O14   A    
C196  C303  A    
C77   C355  A    
O32   Zn27  S    
O83   Zn18  S    
C132  C142  A    
C215  C380  A    
C157  C267  S    
C235  O46   A    
C329  F1    S    
C247  C277  A    
C30   C253  A    
C44   C151  A    
C378  F40   S    
C79   O4    A    
C24   C271  S    
O65   Zn3   S    
C113  O26   A    
C202  C308  A    
O28   Zn9   S    
C325  O84   A    
C35   O19   A    
O37   Zn30  S    
C193  C367  A    
C6    C206  A    
C238  C305  A    
C177  C354  A    
C192  C197  A    
C2    C265  S    
C222  C238  A    
C104  H62   S    
C214  C381  A    
C95   H49   S    
C122  C126  A    
C166  C273  A    
C173  C334  A    
O29   Zn19  S    
C219  C317  A    
C339  F2    S    
O7    Zn27  S    
C73   H94   S    
C289  C319  S    
C15   C233  A    
C326  O73   A    
C379  F41   S    
C1    O89   A    
C77   H90   S    
O50   Zn26  S    
O53   Zn8   S    
C323  O69   A    
C294  C324  S    
C105  H26   S    
C10   C238  A    
C39   F84   S    
C95   C372  A    
C66   C344  A    
C94   H50   S    
C242  C254  A    
C231  C311  A    
C209  C311  A    
C25   C131  A    
C75   C353  A    
C56   C334  A    
C13   O100  A    
C139  H3    S    
C39   C244  A    
C255  C269  A    
C12   C236  A    
C336  F67   S    
C146  O104  A    
C357  F19   S    
C25   F70   S    
C15   C121  A    
O52   Zn7   S    
C71   C348  A    
C251  C273  A    
C241  C281  A    
C211  C299  A    
C319  O92   A    
C279  O59   A    
C183  C348  A    
C326  O82   A    
O43   Zn6   S    
C159  C265  A    
C92   C369  A    
C115  C125  A    
C41   C242  A    
C100  H21   S    
C164  C343  A    
C190  O34   A    
C13   C270  S    
O22   Zn26  S    
C114  H66   S    
C81   H41   S    
C10   F55   S    
C124  C276  S    
O21   Zn25  S    
C45   C262  A    
C264  C284  A    
C288  C341  S    
C88   H60   S    
O25   Zn24  S    
C57   O21   A    
C90   C273  S    
C322  O68   A    
C217  C307  A    
C50   F95   S    
C188  C295  A    
O20   Zn20  S    
C210  C313  A    
C151  C156  A    
C96   C373  A    
C133  H2    S    
C239  C274  A    
C22   F68   S    
C162  C174  A    
C178  C353  A    
C234  C317  A    
C34   F80   S    
C153  C154  A    
C46   O20   A    
C352  O87   A    
C172  C335  A    
C111  H68   S    
O40   Zn1   S    
C60   H83   S    
C198  C361  A    
