data_mof_unit_68409.cif
_audit_creation_date              2013-03-05T15:47:57-0500
_audit_creation_method            fapswitch 2.2
_symmetry_space_group_name_H-M    P1
_symmetry_Int_Tables_number       1
_space_group_crystal_system       triclinic
_cell_length_a                    27.118053
_cell_length_b                    7.304316
_cell_length_c                    11.907414
_cell_angle_alpha                 90.290581
_cell_angle_beta                  102.040324
_cell_angle_gamma                 90.832323
_cell_volume                      2306.39716106

loop_
_atom_site_label
_atom_site_type_symbol
_atom_site_description
_atom_site_fract_x
_atom_site_fract_y
_atom_site_fract_z
_atom_type_partial_charge
O1    O     O_R   0.437360 0.505910 0.042120 -0.598283
O2    O     O_R   0.562640 0.005910 0.957880 -0.614849
O3    O     O_R   0.542480 0.176660 0.157100 -0.577509
O4    O     O_R   0.457520 0.676660 0.842900 -0.558723
C1    C     C_R   0.556792 0.344812 0.197216 1.010420
C2    C     C_R   0.441310 0.843119 0.806270 1.045382
O5    O     O_R   0.436520 0.176250 0.054800 -0.593739
O6    O     O_R   0.563480 0.676250 0.945200 -0.554060
O7    O     O_R   0.455920 0.005040 0.854840 -0.602811
O8    O     O_R   0.544080 0.505040 0.145160 -0.572078
C3    C     C_R   0.417416 0.343150 0.061129 1.005701
C4    C     C_R   0.582279 0.844810 0.935484 1.113348
O9    O     O_3   0.506490 0.338900 0.934520 -0.324908
O10   O     O_3   0.493510 0.838900 0.065480 -0.299680
V1    V     V_3+5 0.498800 0.064400 0.012150 1.193289
V2    V     V_3+5 0.501200 0.564400 0.987850 1.218588
C5    C     C_R   0.682568 0.814902 0.756609 0.676121
C6    C     C_R   0.318304 0.336124 0.237842 0.688138
H1    H     H_    0.603572 0.773107 0.730403 0.235313
H2    H     H_    0.397602 0.363412 0.265919 0.150386
C7    C     C_R   0.633090 0.850522 0.904097 -0.310971
C8    C     C_R   0.366542 0.345849 0.088755 -0.241187
C9    C     C_R   0.867204 0.872708 0.203510 -0.148667
C10   C     C_R   0.130834 0.319113 0.793980 -0.083469
C11   C     C_R   0.822324 0.875329 0.239873 -0.025886
C12   C     C_R   0.174592 0.282229 0.757225 0.048079
C13   C     C_R   0.777027 0.872668 0.160356 -0.025320
C14   C     C_R   0.220504 0.282537 0.834486 -0.131128
C15   C     C_R   0.774172 0.872279 0.040035 0.079522
C16   C     C_R   0.225096 0.322805 0.953057 0.038612
C17   C     C_R   0.821060 0.871327 0.002518 -0.050566
C18   C     C_R   0.179153 0.356917 0.991322 -0.071086
C19   C     C_R   0.726874 0.869696 0.957105 -0.061341
C20   C     C_R   0.272977 0.328083 0.034249 -0.061740
C21   C     C_R   0.728563 0.842036 0.838585 -0.106456
C22   C     C_R   0.272024 0.334187 0.154889 -0.091389
C23   C     C_R   0.775608 0.855640 0.802442 -0.178662
C24   C     C_R   0.225590 0.358431 0.190929 -0.195417
C25   C     C_R   0.821375 0.881924 0.883820 0.433731
C26   C     C_R   0.180283 0.384145 0.109632 0.434391
C27   C     C_R   0.677669 0.892138 0.985344 -0.137589
C28   C     C_R   0.322144 0.332353 0.003209 -0.112826
C29   C     C_R   0.636665 0.810618 0.792228 -0.259613
C30   C     C_R   0.363634 0.350166 0.202434 -0.333257
C31   C     C_R   0.867346 0.866623 0.086791 -0.186246
C32   C     C_R   0.132215 0.358590 0.908980 -0.186640
H3    H     H_    0.902234 0.874425 0.267070 0.117685
H4    H     H_    0.095282 0.313400 0.732165 0.117307
H5    H     H_    0.745355 0.872353 0.198843 0.081534
H6    H     H_    0.250474 0.239876 0.796353 0.128491
H7    H     H_    0.822504 0.878268 0.330951 0.100776
H8    H     H_    0.172863 0.249342 0.667682 0.112681
C33   C     C_R   0.099016 0.881108 0.296204 -0.525261
C34   C     C_R   0.898061 0.357289 0.708196 -0.505328
C35   C     C_R   0.412878 0.852858 0.685985 -0.293494
C36   C     C_R   0.585347 0.355876 0.319243 -0.262088
C37   C     C_R   0.119886 0.955006 0.495533 -0.284313
C38   C     C_R   0.877636 0.316309 0.505214 -0.270599
C39   C     C_R   0.084053 0.928503 0.396802 0.577481
C40   C     C_R   0.913257 0.333302 0.605242 0.553164
C41   C     C_R   0.151738 0.877339 0.292173 0.573497
C42   C     C_R   0.845046 0.351184 0.712519 0.562136
C43   C     C_R   0.190057 0.891541 0.399085 0.146549
C44   C     C_R   0.806627 0.348853 0.605461 0.127608
C45   C     C_R   0.170368 0.907629 0.500669 -0.138579
C46   C     C_R   0.825874 0.336981 0.501473 -0.137611
C47   C     C_R   0.245803 0.882194 0.414778 -0.013763
C48   C     C_R   0.750670 0.356003 0.593104 0.003731
C49   C     C_R   0.275583 0.855481 0.529634 -0.136663
C50   C     C_R   0.719392 0.337567 0.479145 -0.148760
C51   C     C_R   0.249836 0.814688 0.620937 0.533349
C52   C     C_R   0.742134 0.353076 0.382765 0.573700
C53   C     C_R   0.197948 0.848540 0.606322 -0.209641
C54   C     C_R   0.793907 0.346071 0.392453 -0.225679
C55   C     C_R   0.273197 0.898315 0.323201 0.564435
C56   C     C_R   0.723582 0.377093 0.685425 0.528738
C57   C     C_R   0.327070 0.899962 0.344805 0.440787
C58   C     C_R   0.669509 0.384005 0.662811 0.440823
C59   C     C_R   0.356133 0.888070 0.458533 -0.236408
C60   C     C_R   0.641152 0.381476 0.549054 -0.183580
C61   C     C_R   0.330309 0.863853 0.550450 0.003544
C62   C     C_R   0.665208 0.329510 0.460618 -0.031315
C63   C     C_R   0.410659 0.900316 0.483789 0.597642
C64   C     C_R   0.590050 0.441224 0.519316 0.621452
C65   C     C_R   0.438416 0.874787 0.596550 -0.285783
C66   C     C_R   0.566440 0.453115 0.401975 -0.326884
C67   C     C_R   0.360536 0.857462 0.663014 -0.080376
C68   C     C_R   0.633599 0.283483 0.352438 -0.131733
H9    H     H_    0.345110 0.866587 0.737414 0.196408
H10   H     H_    0.648151 0.212770 0.288134 0.200589
H11   H     H_    0.106609 0.990860 0.572478 0.150022
H12   H     H_    0.891968 0.288492 0.428991 0.180153
O11   O     O_R   0.955980 0.206520 0.854760 -0.581428
O12   O     O_R   0.044020 0.706520 0.145240 -0.581448
O13   O     O_R   0.063490 0.536770 0.945200 -0.572005
O14   O     O_R   0.936510 0.036770 0.054800 -0.568865
C69   C     C_R   0.082711 0.369302 0.940381 1.017491
C70   C     C_R   0.917180 0.869000 0.058089 1.031076
O15   O     O_R   0.957530 0.536190 0.842880 -0.625041
O16   O     O_R   0.042470 0.036190 0.157120 -0.624551
O17   O     O_R   0.937350 0.707210 0.042130 -0.634210
O18   O     O_R   0.062650 0.207210 0.957870 -0.630450
C71   C     C_R   0.939484 0.367548 0.810790 1.062477
C72   C     C_R   0.058556 0.870993 0.192530 1.062078
O19   O     O_3   0.993540 0.373870 0.065440 -0.328971
O20   O     O_3   0.006460 0.873870 0.934560 -0.330338
V3    V     V_3+5 0.001200 0.648440 0.987860 1.137771
V4    V     V_3+5 0.998800 0.148440 0.012140 1.143093
C73   C     C_2   0.494655 0.872499 0.622603 1.044260
O21   O     O_2   0.517062 0.785458 0.703708 -0.692319
O22   O     O_R   0.522471 0.970426 0.557439 -0.796365
H13   H     H_    0.559661 0.972644 0.591796 0.293270
C74   C     C_2   0.524830 0.579001 0.364568 1.080797
O23   O     O_2   0.531420 0.743042 0.382516 -0.588588
O24   O     O_R   0.479458 0.511334 0.300976 -0.888765
H14   H     H_    0.457485 0.613248 0.264213 0.323793
O25   O     O_3   0.349764 0.949532 0.254180 -0.590838
C75   C     C_3   0.372549 0.798813 0.210614 -0.118670
H15   H     H_    0.379086 0.682979 0.271039 0.102572
H16   H     H_    0.408785 0.845039 0.190822 0.192069
H17   H     H_    0.351375 0.751086 0.125974 0.099839
O26   O     O_3   0.646434 0.431462 0.752496 -0.590307
C76   C     C_3   0.616185 0.286394 0.780912 -0.080365
H18   H     H_    0.603578 0.184887 0.711004 0.059566
H19   H     H_    0.582508 0.345293 0.805087 0.199884
H20   H     H_    0.635747 0.216521 0.859114 0.109154
O27   O     O_3   0.033540 0.946509 0.399084 -0.645164
C77   C     C_3   0.015757 0.778753 0.435265 -0.248049
H21   H     H_    0.034015 0.749514 0.525931 0.178541
H22   H     H_    0.021472 0.663028 0.378278 0.157089
H23   H     H_    0.974632 0.788342 0.430866 0.164240
O28   O     O_3   0.964077 0.335156 0.602027 -0.628303
C78   C     C_3   0.979130 0.154618 0.585929 -0.198002
H24   H     H_    0.961126 0.101574 0.499269 0.162463
H25   H     H_    0.970734 0.061026 0.653241 0.123569
H26   H     H_    0.020520 0.155363 0.592382 0.186134
O29   O     O_3   0.164384 0.820982 0.190620 -0.562294
C79   C     C_3   0.143177 0.929782 0.094118 -0.053629
H27   H     H_    0.127458 0.059514 0.115839 0.076507
H28   H     H_    0.114273 0.848558 0.033938 0.158610
H29   H     H_    0.171897 0.971417 0.045385 0.144654
O30   O     O_3   0.831309 0.306896 0.815376 -0.585284
C80   C     C_3   0.855277 0.415182 0.911345 -0.028383
H30   H     H_    0.870769 0.545924 0.888696 0.070374
H31   H     H_    0.884619 0.334556 0.967891 0.156851
H32   H     H_    0.828203 0.455120 0.964297 0.131782
O31   O     O_3   0.273024 0.706377 0.712533 -0.603698
C81   C     C_3   0.270845 0.783838 0.821335 -0.171709
H33   H     H_    0.245566 0.699184 0.862905 0.154000
H34   H     H_    0.259748 0.929476 0.818006 0.149300
H35   H     H_    0.308449 0.780040 0.879546 0.177848
O32   O     O_3   0.714195 0.396632 0.275936 -0.586033
C82   C     C_3   0.702926 0.583713 0.273553 -0.164811
H36   H     H_    0.696088 0.624014 0.182336 0.196520
H37   H     H_    0.733920 0.669960 0.324935 0.079314
H38   H     H_    0.667889 0.608591 0.305108 0.171389
O33   O     O_3   0.248025 0.938922 0.212777 -0.591997
C83   C     C_3   0.258720 0.810696 0.130995 0.000937
H39   H     H_    0.278956 0.688837 0.170003 0.035414
H40   H     H_    0.224364 0.750916 0.076367 0.149501
H41   H     H_    0.278460 0.883278 0.071229 0.131285
O34   O     O_3   0.749060 0.424901 0.795252 -0.614325
C84   C     C_3   0.734847 0.310562 0.879771 0.061005
H42   H     H_    0.713555 0.186855 0.843291 0.043038
H43   H     H_    0.768054 0.256726 0.939419 0.166259
H44   H     H_    0.713420 0.391000 0.932310 0.172751
O35   O     O_3   0.438029 0.908676 0.398115 -0.625696
C85   C     C_3   0.449238 0.091663 0.373287 0.083746
H45   H     H_    0.490421 0.113636 0.384986 0.176540
H46   H     H_    0.433640 0.197149 0.423592 0.061992
H47   H     H_    0.436183 0.111736 0.280463 0.146475
O36   O     O_3   0.566508 0.512742 0.602561 -0.591267
C86   C     C_3   0.518221 0.430612 0.596047 -0.196168
H48   H     H_    0.515442 0.289173 0.562764 0.125025
H49   H     H_    0.488295 0.513086 0.542849 0.140436
H50   H     H_    0.509740 0.426039 0.683074 0.191805
C87   C     C_2   0.776381 0.867508 0.678637 1.131588
O37   O     O_2   0.758995 0.000099 0.624755 -0.707843
O38   O     O_R   0.793357 0.723211 0.621079 -0.848834
H51   H     H_    0.790819 0.748351 0.536377 0.302940
C88   C     C_2   0.224630 0.392850 0.313010 1.086187
O39   O     O_2   0.215680 0.544785 0.343080 -0.687561
O40   O     O_R   0.230287 0.251951 0.392284 -0.802265
H52   H     H_    0.227778 0.294875 0.472031 0.315746
O41   O     O_3   0.683420 0.760807 0.644992 -0.637048
C89   C     C_3   0.653156 0.871909 0.562576 -0.226935
H53   H     H_    0.671047 0.883516 0.487144 0.184428
H54   H     H_    0.648936 0.012700 0.594169 0.095980
H55   H     H_    0.616091 0.804728 0.531940 0.199714
O42   O     O_3   0.320015 0.288774 0.351282 -0.610111
C90   C     C_3   0.339991 0.432690 0.426988 -0.275417
H56   H     H_    0.317116 0.556020 0.405791 0.117372
H57   H     H_    0.380347 0.462097 0.428468 0.127594
H58   H     H_    0.337293 0.392375 0.515226 0.207684
C91   C     C_2   0.669630 0.977514 0.092216 0.925075
O43   O     O_2   0.688660 0.126838 0.122198 -0.588673
O44   O     O_R   0.639439 0.886773 0.157082 -0.831565
H59   H     H_    0.642693 0.936683 0.237375 0.301023
C92   C     C_2   0.331594 0.334303 0.885507 0.961235
O45   O     O_2   0.339929 0.478893 0.841822 -0.625598
O46   O     O_R   0.338396 0.169844 0.831463 -0.850516
H60   H     H_    0.346788 0.191184 0.753450 0.317082
O47   O     O_3   0.863454 0.965937 0.854014 -0.613617
C93   C     C_3   0.882886 0.875449 0.767962 -0.143680
H61   H     H_    0.872721 0.951124 0.686036 0.127542
H62   H     H_    0.871421 0.730677 0.754633 0.124113
H63   H     H_    0.924426 0.878441 0.792336 0.194372
O48   O     O_3   0.139773 0.472858 0.140619 -0.605220
C94   C     C_3   0.118499 0.380341 0.223840 -0.056951
H64   H     H_    0.119332 0.473100 0.298262 0.160461
H65   H     H_    0.136914 0.251370 0.256251 0.047704
H66   H     H_    0.078512 0.350029 0.187330 0.186310
C95   C     C_2   0.168517 0.777123 0.689836 1.035064
O49   O     O_2   0.142156 0.640289 0.664246 -0.661460
O50   O     O_R   0.165974 0.876405 0.789034 -0.859892
H67   H     H_    0.143176 0.815296 0.835676 0.314920
C96   C     C_2   0.813688 0.364291 0.284076 1.050410
O51   O     O_2   0.793170 0.280668 0.197306 -0.611176
O52   O     O_R   0.854413 0.481713 0.280031 -0.830691
H68   H     H_    0.864449 0.478555 0.202631 0.312907

loop_
_geom_bond_atom_site_label_1
_geom_bond_atom_site_label_2
_geom_bond_distance
_ccdc_geom_bond_type
O17   V3    2.021265 S    
C80   H32   1.104160 S    
C59   C63   1.447474 A    
O47   C93   1.411737 S    
C26   O48   1.396504 S    
O4    V2    2.060119 S    
O42   C90   1.407563 S    
C9    C31   1.391121 A    
C25   O47   1.398402 S    
C13   C15   1.418565 A    
O46   H60   1.013725 S    
C68   H10   1.066186 S    
C1    C36   1.498339 S    
C56   O34   1.385972 S    
O31   C81   1.423915 S    
O1    C3    1.338738 A    
C81   H35   1.107791 S    
C2    C35   1.480840 S    
C60   C64   1.432019 A    
O2    C4    1.346740 A    
C77   H21   1.112960 S    
O11   C71   1.334727 A    
C2    O7    1.331961 A    
C43   C45   1.425442 A    
C78   H24   1.110653 S    
C33   C39   1.386390 A    
C76   H18   1.107783 S    
C34   C40   1.383507 A    
C88   O39   1.207799 D    
O5    C3    1.339383 A    
O19   V3    2.237292 S    
O33   C83   1.423415 S    
C24   C88   1.479629 S    
C66   C74   1.463460 S    
C44   C48   1.495411 A    
C28   C92   1.476518 S    
C84   H43   1.102845 S    
C56   C58   1.436246 A    
C74   O23   1.220067 D    
C65   C73   1.491906 S    
C31   C70   1.461325 S    
C73   O22   1.384514 S    
O11   V4    2.038307 S    
C58   C60   1.411123 A    
C76   H19   1.105364 S    
O20   V3    1.782141 S    
C33   C72   1.471368 S    
C38   C40   1.371921 A    
O24   H14   1.004086 S    
C46   C54   1.405035 A    
C15   C19   1.446146 A    
O16   C72   1.329580 A    
C94   H66   1.099666 S    
C45   C53   1.396672 A    
C41   C43   1.467941 A    
O30   C80   1.421246 S    
C49   C51   1.439513 A    
C75   H15   1.105578 S    
C42   C44   1.468327 A    
C83   H41   1.108423 S    
C94   H65   1.105769 S    
C7    C29   1.385461 A    
C14   H6    1.060052 S    
C38   C46   1.405425 A    
C85   H47   1.099275 S    
C8    C30   1.372473 A    
C82   H36   1.105254 S    
C84   H42   1.102175 S    
C5    O41   1.389539 S    
O48   C94   1.416127 S    
C52   O32   1.379282 S    
O14   C70   1.329819 A    
C78   H26   1.108871 S    
O18   V4    2.011952 S    
C82   H37   1.115270 S    
C39   O27   1.383884 S    
C69   O18   1.331231 A    
C55   O33   1.384991 S    
C85   H46   1.114391 S    
O14   V4    2.024560 S    
O12   C72   1.342580 A    
C92   O45   1.218513 D    
O6    V2    2.024789 S    
C24   C26   1.412176 A    
C83   H40   1.101937 S    
C53   C95   1.490727 S    
C33   C41   1.441131 A    
C42   O30   1.390810 S    
C58   O26   1.390507 S    
C12   C14   1.385096 A    
H2    C30   1.065576 S    
H1    C29   1.066564 S    
C95   O50   1.397360 S    
C23   C25   1.416202 A    
O19   V4    1.780021 S    
C43   C47   1.486639 A    
O12   V3    2.027300 S    
O16   V4    2.060235 S    
C9    H3    1.083978 S    
C16   C20   1.447959 A    
C90   H56   1.101468 S    
C10   H4    1.084205 S    
C34   C71   1.477822 S    
C84   H44   1.109998 S    
C49   C61   1.453055 A    
C81   H33   1.108907 S    
C52   C54   1.386237 A    
O15   C71   1.342594 A    
C88   O40   1.388444 S    
O52   H68   1.014203 S    
C51   C53   1.407029 A    
O28   C78   1.409984 S    
C76   H20   1.102550 S    
O5    V1    2.042431 S    
C34   C42   1.449304 A    
C64   O36   1.389772 S    
C96   O51   1.222326 D    
C86   H48   1.100542 S    
C63   O35   1.382228 S    
C4    C7    1.501111 S    
O38   H51   1.014394 S    
C47   C49   1.451619 A    
C75   H17   1.102799 S    
C44   C46   1.443272 A    
C35   C65   1.394839 A    
O50   H67   1.013738 S    
C90   H57   1.108689 S    
O40   H52   1.014501 S    
C12   H8    1.083026 S    
C20   C28   1.455944 A    
C36   C66   1.397151 A    
C93   H63   1.102937 S    
C95   O49   1.219879 D    
O6    C4    1.340518 A    
C94   H64   1.109040 S    
C57   C59   1.421433 A    
O1    V2    2.011291 S    
O32   C82   1.403721 S    
C82   H38   1.109142 S    
O2    V1    2.020561 S    
C55   C57   1.429448 A    
C92   O46   1.392579 S    
C51   O31   1.395694 S    
C61   C67   1.419147 A    
C86   H49   1.107422 S    
O13   V3    2.042179 S    
C7    C27   1.410032 A    
C81   H34   1.108391 S    
O4    C2    1.342660 A    
C85   H45   1.105476 S    
C63   C65   1.410384 A    
C32   C69   1.469780 S    
C93   H62   1.099203 S    
C67   H9    1.057882 S    
C83   H39   1.105082 S    
C37   C39   1.370933 A    
C48   C56   1.452678 A    
C89   H54   1.108895 S    
O27   C77   1.412259 S    
C77   H23   1.108755 S    
C6    C30   1.382887 A    
O35   C85   1.412789 S    
O3    V1    2.039348 S    
O36   C86   1.419478 S    
C59   C61   1.427490 A    
O34   C84   1.421240 S    
C86   H50   1.107877 S    
C80   H31   1.107899 S    
C6    O42   1.387607 S    
C40   O28   1.386511 S    
C37   H11   1.084263 S    
O22   H13   1.006017 S    
C21   C23   1.431254 A    
C15   C17   1.433026 A    
C18   C32   1.435820 A    
C10   C12   1.377326 A    
C37   C45   1.405929 A    
O3    C1    1.337990 A    
C79   H29   1.104204 S    
C77   H22   1.113934 S    
O13   C69   1.342232 A    
C79   H28   1.108020 S    
C96   O52   1.397405 S    
C70   O17   1.338549 A    
O15   V3    2.039469 S    
O29   C79   1.424617 S    
C3    C8    1.483919 S    
C57   O25   1.396017 S    
C11   H7    1.083595 S    
C19   C27   1.453742 A    
C89   H55   1.102283 S    
C14   C16   1.420132 A    
O26   C76   1.415752 S    
C90   H58   1.109315 S    
C10   C32   1.390664 A    
C1    O8    1.342655 A    
C27   C91   1.472244 S    
O8    V2    2.040349 S    
O25   C75   1.417948 S    
C16   C18   1.437574 A    
C41   O29   1.386139 S    
O41   C89   1.409465 S    
C8    C28   1.407405 A    
O20   V4    2.234299 S    
C38   H12   1.078758 S    
C62   C68   1.426074 A    
C54   C96   1.503092 S    
C22   C24   1.425580 A    
C19   C21   1.434902 A    
C60   C62   1.402950 A    
C87   O38   1.389593 S    
C20   C22   1.442595 A    
C18   C26   1.415662 A    
C35   C67   1.389298 A    
O44   H59   1.007534 S    
C50   C62   1.439879 A    
C75   H16   1.105866 S    
C36   C68   1.398024 A    
C79   H27   1.096274 S    
C91   O43   1.219130 D    
C13   H5    1.054439 S    
C9    C11   1.374590 A    
C47   C55   1.446209 A    
C93   H61   1.109448 S    
C48   C50   1.446907 A    
C87   O37   1.210481 D    
C17   C31   1.435170 A    
O9    V2    1.780761 S    
C23   C87   1.481671 S    
C5    C29   1.396325 A    
C17   C25   1.417690 A    
C78   H25   1.112996 S    
O10   V1    1.782862 S    
C64   C66   1.413984 A    
C50   C52   1.415926 A    
C5    C21   1.425030 A    
C91   O44   1.399788 S    
C89   H53   1.109382 S    
C73   O21   1.216037 D    
C6    C22   1.425873 A    
C80   H30   1.095189 S    
O7    V1    2.029103 S    
C74   O24   1.386149 S    
C11   C13   1.385528 A    
