data_mof_unit_8631.cif
_audit_creation_date              2012-12-10T16:46:49-0500
_audit_creation_method            fapswitch 2.2
_symmetry_space_group_name_H-M    P1
_symmetry_Int_Tables_number       1
_space_group_crystal_system       triclinic
_cell_length_a                    15.857067
_cell_length_b                    8.721487
_cell_length_c                    7.441378
_cell_angle_alpha                 102.727096
_cell_angle_beta                  94.054326
_cell_angle_gamma                 92.213463
_cell_volume                      999.769888114

loop_
_atom_site_label
_atom_site_type_symbol
_atom_type_description
_atom_site_fract_x
_atom_site_fract_y
_atom_site_fract_z
_atom_type_partial_charge
C1    C     C_R   0.503427 0.201061 0.453342 0.863270
C2    C     C_3   0.954174 0.474813 0.692874 0.097697
C3    C     C_3   0.917036 0.497424 0.501363 0.210797
C4    C     C_3   0.953761 0.657182 0.473430 -0.440931
C5    C     C_3   0.051410 0.657590 0.475100 -0.370406
C6    C     C_1   0.824671 0.498092 0.494109 -0.026637
C7    C     C_1   0.175469 0.500469 0.510804 -0.083519
C8    C     C_1   0.250936 0.500333 0.508244 -0.175579
C9    C     C_2   0.517685 0.036584 0.426737 -0.011620
C10   C     C_2   0.502959 0.966990 0.566155 -0.361664
C11   C     C_R   0.340339 0.499900 0.502644 0.824441
C12   C     C_R   0.504181 0.800051 0.545341 0.879587
C13   C     C_R   0.659668 0.500141 0.497416 0.817505
C14   C     C_3   0.052809 0.472649 0.698288 -0.001700
C15   C     C_3   0.042951 0.364904 0.353662 -0.431552
C16   C     C_3   0.945157 0.364878 0.345565 -0.341881
C17   C     C_1   0.749082 0.498934 0.492654 -0.123241
C18   C     C_3   0.083231 0.500400 0.511734 0.270421
Cu1   Cu    Cu3+1 0.509300 0.517380 0.684380 0.958879
Cu2   Cu    Cu3+1 0.490700 0.482620 0.315620 0.953820
H1    H     H_    0.935024 0.574323 0.801113 0.147787
H2    H     H_    0.926942 0.679156 0.339594 0.190594
H3    H     H_    0.484598 0.033955 0.697538 0.145572
H4    H     H_    0.433786 0.379523 0.949134 0.226083
H5    H     H_    0.566978 0.618872 0.050487 0.227335
H6    H     H_    0.072301 0.354131 0.711758 0.189684
H7    H     H_    0.064558 0.377984 0.218470 0.191727
H8    H     H_    0.063649 0.249450 0.375719 0.176371
H9    H     H_    0.918665 0.248085 0.358006 0.212273
H10   H     H_    0.920290 0.382980 0.208531 0.209146
H11   H     H_    0.080607 0.759586 0.581028 0.179628
H12   H     H_    0.070828 0.673853 0.339394 0.172523
H13   H     H_    0.935755 0.755094 0.584941 0.187041
N1    N     N_2   0.476670 0.456430 0.038530 -0.214380
N2    N     N_2   0.523330 0.543570 0.961470 -0.214919
O1    O     O_R   0.506050 0.286130 0.619770 -0.598879
O2    O     O_R   0.490330 0.256780 0.308370 -0.581868
O3    O     O_R   0.387300 0.514690 0.655770 -0.585887
O4    O     O_R   0.371580 0.485340 0.344370 -0.574410
O5    O     O_R   0.509670 0.743220 0.691630 -0.588021
O6    O     O_R   0.493950 0.713870 0.380230 -0.577945
O7    O     O_R   0.628420 0.514660 0.655630 -0.564140
O8    O     O_R   0.612700 0.485310 0.344230 -0.589066
Br1   Br    Br    0.906551 0.284675 0.755604 -0.618392
C19   C     C_3   0.094372 0.589792 0.870830 -0.922550
H14   H     H_    0.077012 0.712040 0.872272 0.243383
H15   H     H_    0.072598 0.557940 0.997057 0.241204
H16   H     H_    0.164358 0.585364 0.877897 0.253809
C20   C     C_3   0.552624 0.955330 0.247165 -0.772399
H17   H     H_    0.578301 0.041513 0.172364 0.230342
H18   H     H_    0.606136 0.883315 0.275697 0.221592
H19   H     H_    0.501738 0.881457 0.153821 0.249074

loop_
_geom_bond_atom_site_label_1
_geom_bond_atom_site_label_2
_ccdc_geom_bond_type
C12   O5    A    
C11   O3    A    
C12   O6    A    
Cu1   O3    S    
C1    O2    A    
C10   H3    S    
C15   C18   S    
C4    H2    S    
C9    C10   D    
C14   C18   S    
C15   H7    S    
Cu1   Cu2   S    
Cu1   O7    S    
C13   C17   S    
N1    N2    D    
C20   H19   S    
Cu2   N1    S    
C5    H12   S    
C2    H1    S    
C2    C3    S    
C9    C20   S    
C7    C8    T    
Cu1   N2    S    
C19   H14   S    
C14   H6    S    
C11   O4    A    
Cu2   O2    S    
C15   H8    S    
C10   C12   S    
H5    N2    S    
C8    C11   S    
C13   O7    A    
Cu2   O6    S    
C14   C19   S    
Cu1   O1    S    
C19   H15   S    
C2    C14   S    
Cu2   O8    S    
Cu1   O5    S    
C16   H10   S    
C3    C4    S    
C13   O8    A    
C7    C18   S    
C1    C9    S    
C20   H17   S    
C19   H16   S    
Cu2   O4    S    
C6    C17   T    
C4    H13   S    
C5    C18   S    
C20   H18   S    
C16   H9    S    
C3    C6    S    
H4    N1    S    
C3    C16   S    
C15   C16   S    
C1    O1    A    
C2    Br1   S    
C4    C5    S    
C5    H11   S    
