data_mof_unit_60779.cif
_audit_creation_date              2012-12-10T19:21:26-0500
_audit_creation_method            fapswitch 2.2
_symmetry_space_group_name_H-M    P1
_symmetry_Int_Tables_number       1
_space_group_crystal_system       triclinic
_cell_length_a                    38.888086
_cell_length_b                    38.889774
_cell_length_c                    32.0699
_cell_angle_alpha                 89.99998
_cell_angle_beta                  89.999312
_cell_angle_gamma                 90.000014
_cell_volume                      48500.8772096

loop_
_atom_site_label
_atom_site_type_symbol
_atom_type_description
_atom_site_fract_x
_atom_site_fract_y
_atom_site_fract_z
_atom_type_partial_charge
C1    C     C_R   1.000000 0.567253 0.000005 1.023524
C2    C     C_R   0.895022 0.999998 0.999998 -0.230395
C3    C     C_R   0.395162 0.000000 0.999985 -0.520151
C4    C     C_R   0.499998 0.104753 0.499981 -0.514744
C5    C     C_R   0.104748 0.499996 0.500023 -0.515618
C6    C     C_R   0.500002 0.895247 0.499982 -0.514758
C7    C     C_R   0.895252 0.500004 0.500021 -0.515628
C8    C     C_R   0.999995 0.676678 0.000044 -0.393077
C9    C     C_R   0.676665 0.999998 0.999971 -0.392216
C10   C     C_R   0.000005 0.323323 0.000047 -0.393077
C11   C     C_R   0.323334 0.000002 0.999966 -0.392210
C12   C     C_R   0.499993 0.176547 0.499951 -0.385163
C13   C     C_R   0.000003 0.104975 0.000005 -0.230429
C14   C     C_R   0.176542 0.499986 0.500065 -0.385481
C15   C     C_R   0.500007 0.823452 0.499953 -0.385133
C16   C     C_R   0.823458 0.500013 0.500057 -0.385467
C17   C     C_R   0.932578 1.000000 1.000000 0.950779
C18   C     C_R   0.000000 0.067421 0.000000 0.950804
C19   C     C_R   0.067422 0.000000 0.999999 0.950779
C20   C     C_R   0.999999 0.932579 0.000000 0.950806
C21   C     C_R   0.432566 0.499999 0.500001 0.950064
C22   C     C_R   0.500000 0.567434 0.499999 0.950076
C23   C     C_R   0.567434 0.500001 0.500000 0.950060
C24   C     C_R   0.104978 0.000002 0.999996 -0.230394
C25   C     C_R   0.500000 0.432566 0.499999 0.950071
C26   C     C_R   0.000000 0.500000 0.919480 0.883654
C27   C     C_R   0.500000 1.000000 0.919484 0.883559
C28   C     C_R   1.000000 0.500000 0.080519 0.883485
C29   C     C_R   0.500000 0.000000 0.080516 0.883646
C30   C     C_R   0.500000 0.000000 0.419517 0.888224
C31   C     C_R   0.000000 0.500000 0.419519 0.888631
C32   C     C_R   0.500000 0.000000 0.580484 0.888089
C33   C     C_R   1.000000 0.500000 0.580480 0.888868
C34   C     C_R   0.970583 0.488475 0.727919 -0.050634
C35   C     C_R   0.499998 0.394987 0.499995 -0.229305
C36   C     C_R   0.485973 0.028310 0.727941 -0.050645
C37   C     C_R   0.029418 0.511524 0.727918 -0.050634
C38   C     C_R   0.514026 0.971690 0.727940 -0.050647
C39   C     C_R   0.029059 0.487604 0.272074 -0.050633
C40   C     C_R   0.513524 0.028554 0.272064 -0.050643
C41   C     C_R   0.970927 0.512375 0.272076 -0.050624
C42   C     C_R   0.486477 0.971447 0.272065 -0.050646
C43   C     C_R   0.513699 0.028470 0.228170 -0.052319
C44   C     C_R   0.028989 0.487441 0.228181 -0.052353
C45   C     C_R   0.486302 0.971531 0.228171 -0.052319
C46   C     C_R   0.394985 0.499996 0.500006 -0.229275
C47   C     C_R   0.970996 0.512536 0.228182 -0.052370
C48   C     C_R   0.485794 0.028220 0.771835 -0.052309
C49   C     C_R   0.970643 0.488323 0.771812 -0.052365
C50   C     C_R   0.514205 0.971779 0.771834 -0.052308
C51   C     C_R   0.029359 0.511675 0.771811 -0.052365
C52   C     C_R   0.000000 0.500000 0.706387 0.031734
C53   C     C_R   0.499999 1.000000 0.706405 0.031517
C54   C     C_R   0.999995 0.499994 0.293607 0.031661
C55   C     C_R   0.500001 0.000001 0.293599 0.031556
C56   C     C_R   0.500001 0.000000 0.206584 0.031072
C57   C     C_R   0.500001 0.605013 0.499996 -0.229298
C58   C     C_R   0.999994 0.499992 0.206593 0.031143
C59   C     C_R   0.499999 1.000000 0.793420 0.031047
C60   C     C_R   0.000001 0.499999 0.793402 0.031201
C61   C     C_1   0.000000 0.500000 0.661759 -0.024691
C62   C     C_1   0.499999 0.000000 0.661771 -0.024833
C63   C     C_1   0.999997 0.499997 0.338238 -0.024734
C64   C     C_1   0.500001 0.000001 0.338231 -0.024810
C65   C     C_1   0.500000 0.000000 0.161903 -0.027682
C66   C     C_1   0.999996 0.499996 0.161909 -0.027826
C67   C     C_1   0.500000 1.000000 0.838100 -0.027611
C68   C     C_R   0.605015 0.500004 0.500005 -0.229275
C69   C     C_1   0.000001 0.499999 0.838087 -0.027910
C70   C     C_1   0.000001 0.500000 0.875343 -0.135980
C71   C     C_1   0.500000 1.000000 0.875353 -0.136018
C72   C     C_1   0.999998 0.499998 0.124654 -0.136047
C73   C     C_1   0.500000 0.000000 0.124649 -0.135996
C74   C     C_1   0.500000 0.000000 0.375449 -0.131273
C75   C     C_1   0.999999 0.499999 0.375454 -0.130733
C76   C     C_1   0.499999 0.000000 0.624553 -0.131460
C77   C     C_1   0.000000 0.500000 0.624544 -0.130420
C78   C     C_R   0.000864 0.876966 0.037846 -0.257464
C79   C     C_R   0.973471 0.767822 0.980008 -0.108459
C80   C     C_R   0.876954 0.998949 0.037828 -0.257515
C81   C     C_R   0.999131 0.123033 0.037847 -0.257457
C82   C     C_R   0.123046 0.001051 0.037826 -0.257514
C83   C     C_R   0.999125 0.876958 0.962168 -0.257498
C84   C     C_R   0.123040 0.998954 0.962161 -0.257481
C85   C     C_R   0.000879 0.123043 0.962169 -0.257495
C86   C     C_R   0.876960 0.001046 0.962163 -0.257479
C87   C     C_R   0.502957 0.376905 0.537671 -0.259024
C88   C     C_R   0.376913 0.496989 0.537686 -0.259012
C89   C     C_R   0.497054 0.623095 0.537673 -0.259042
C90   C     C_R   0.767818 0.026632 0.980191 -0.108471
C91   C     C_R   0.623087 0.503026 0.537681 -0.259009
C92   C     C_R   0.497039 0.376914 0.462312 -0.258998
C93   C     C_R   0.623098 0.496986 0.462335 -0.259041
C94   C     C_R   0.502950 0.623086 0.462311 -0.259017
C95   C     C_R   0.376901 0.502999 0.462336 -0.259046
C96   C     C_R   0.000894 0.841245 0.037907 0.601040
C97   C     C_R   0.841230 0.998909 0.037877 0.601085
C98   C     C_R   0.999101 0.158754 0.037908 0.601030
C99   C     C_R   0.158770 0.001090 0.037874 0.601086
C100  C     C_R   0.999088 0.841236 0.962121 0.601145
C101  C     C_R   0.973493 0.232172 0.020060 -0.108315
C102  C     C_R   0.158763 0.998918 0.962103 0.601022
C103  C     C_R   0.000917 0.158765 0.962122 0.601139
C104  C     C_R   0.841237 0.001082 0.962106 0.601019
C105  C     C_R   0.503042 0.341168 0.537707 0.599704
C106  C     C_R   0.341175 0.496899 0.537737 0.599626
C107  C     C_R   0.496969 0.658832 0.537709 0.599723
C108  C     C_R   0.658825 0.503116 0.537731 0.599623
C109  C     C_R   0.496953 0.341178 0.462261 0.599651
C110  C     C_R   0.658837 0.496901 0.462301 0.599686
C111  C     C_R   0.503036 0.658822 0.462261 0.599670
C112  C     C_R   0.567250 1.000000 0.999997 1.023647
C113  C     C_R   0.232186 0.026643 0.019764 -0.108578
C114  C     C_R   0.341162 0.503083 0.462303 0.599696
C115  C     C_R   0.999990 0.823255 0.000018 -0.192882
C116  C     C_R   0.823247 0.999995 0.999989 -0.192909
C117  C     C_R   0.000010 0.176745 0.000019 -0.192870
C118  C     C_R   0.176752 0.000005 0.999986 -0.192911
C119  C     C_R   0.499997 0.323181 0.499980 -0.192378
C120  C     C_R   0.323177 0.499989 0.500025 -0.192405
C121  C     C_R   0.500003 0.676818 0.499982 -0.192411
C122  C     C_R   0.676823 0.500010 0.500020 -0.192393
C123  C     C_R   0.939810 0.476513 0.795170 0.124188
C124  C     C_R   0.026508 0.767828 0.020055 -0.108321
C125  C     C_R   0.909128 0.495506 0.793552 -0.127142
C126  C     C_R   0.880133 0.484288 0.815445 -0.126090
C127  C     C_R   0.881613 0.454143 0.839119 -0.092183
C128  C     C_R   0.912081 0.435132 0.840889 -0.089168
C129  C     C_R   0.941104 0.446211 0.818953 -0.162507
C130  C     C_R   0.471281 0.057869 0.795213 0.125530
C131  C     C_R   0.487458 0.090125 0.793620 -0.126882
C132  C     C_R   0.473714 0.117980 0.815570 -0.128384
C133  C     C_R   0.443844 0.113791 0.839284 -0.087024
C134  C     C_R   0.427630 0.081747 0.841034 -0.086168
C135  C     C_R   0.232182 0.973368 0.980186 -0.108472
C136  C     C_R   0.441233 0.053855 0.819031 -0.167450
C137  C     C_R   0.060191 0.523485 0.795168 0.124188
C138  C     C_R   0.090873 0.504491 0.793549 -0.127142
C139  C     C_R   0.119868 0.515707 0.815442 -0.126090
C140  C     C_R   0.118389 0.545852 0.839116 -0.092179
C141  C     C_R   0.087921 0.564865 0.840887 -0.089173
C142  C     C_R   0.058898 0.553787 0.818951 -0.162509
C143  C     C_R   0.528718 0.942131 0.795212 0.125530
C144  C     C_R   0.512540 0.909875 0.793621 -0.126881
C145  C     C_R   0.526284 0.882020 0.815570 -0.128382
C146  C     C_R   0.026529 0.232179 0.980008 -0.108457
C147  C     C_R   0.556154 0.886209 0.839283 -0.087025
C148  C     C_R   0.572369 0.918253 0.841030 -0.086168
C149  C     C_R   0.558766 0.946145 0.819028 -0.167450
C150  C     C_R   0.059440 0.474684 0.204816 0.124677
C151  C     C_R   0.090699 0.492713 0.206433 -0.127038
C152  C     C_R   0.119326 0.480606 0.184524 -0.126829
C153  C     C_R   0.116904 0.450531 0.160833 -0.090552
C154  C     C_R   0.085858 0.432477 0.159062 -0.088243
C155  C     C_R   0.057201 0.444444 0.181018 -0.164183
C156  C     C_R   0.527672 0.058379 0.204796 0.125223
C157  C     C_R   0.767813 0.973357 0.019770 -0.108576
C158  C     C_R   0.510912 0.090335 0.206394 -0.126937
C159  C     C_R   0.524152 0.118440 0.184456 -0.127892
C160  C     C_R   0.554097 0.114798 0.160750 -0.088228
C161  C     C_R   0.570891 0.083054 0.158996 -0.086673
C162  C     C_R   0.557792 0.054915 0.180985 -0.166394
C163  C     C_R   0.940534 0.525265 0.204818 0.124666
C164  C     C_R   0.909297 0.507199 0.206423 -0.127055
C165  C     C_R   0.880659 0.519276 0.184511 -0.126810
C166  C     C_R   0.883050 0.549358 0.160830 -0.090595
C167  C     C_R   0.914073 0.567450 0.159072 -0.088268
C168  C     C_R   0.472158 0.267729 0.482785 -0.110976
C169  C     C_R   0.942742 0.555512 0.181029 -0.164147
C170  C     C_R   0.472330 0.941622 0.204798 0.125226
C171  C     C_R   0.489090 0.909666 0.206395 -0.126937
C172  C     C_R   0.475850 0.881561 0.184458 -0.127891
C173  C     C_R   0.445904 0.885203 0.160753 -0.088224
C174  C     C_R   0.429111 0.916946 0.158999 -0.086682
C175  C     C_R   0.442210 0.945086 0.180988 -0.166393
C176  C     C_R   0.528074 0.058147 0.295588 0.128315
C177  C     C_R   0.563500 0.065050 0.294184 -0.129451
C178  C     C_R   0.577178 0.092556 0.316849 -0.126388
C179  C     C_R   0.267718 0.527872 0.482969 -0.111107
C180  C     C_R   0.555639 0.113234 0.341124 -0.029694
C181  C     C_R   0.520353 0.106538 0.342631 -0.108022
C182  C     C_R   0.506551 0.079154 0.319873 -0.177566
C183  C     C_R   0.059187 0.474197 0.295602 0.127936
C184  C     C_R   0.067430 0.439059 0.294209 -0.130124
C185  C     C_R   0.095413 0.426432 0.316915 -0.122437
C186  C     C_R   0.115238 0.448739 0.341218 -0.030002
C187  C     C_R   0.107213 0.483745 0.342706 -0.113236
C188  C     C_R   0.079345 0.496500 0.319908 -0.175152
C189  C     C_R   0.471927 0.941854 0.295590 0.128317
C190  C     C_R   0.527849 0.732269 0.482800 -0.111001
C191  C     C_R   0.436501 0.934953 0.294189 -0.129454
C192  C     C_R   0.422822 0.907448 0.316855 -0.126378
C193  C     C_R   0.444362 0.886769 0.341129 -0.029716
C194  C     C_R   0.479648 0.893464 0.342633 -0.108048
C195  C     C_R   0.493450 0.920848 0.319872 -0.177557
C196  C     C_R   0.940790 0.525764 0.295604 0.127941
C197  C     C_R   0.932513 0.560893 0.294196 -0.130121
C198  C     C_R   0.904518 0.573499 0.316897 -0.122370
C199  C     C_R   0.884714 0.551181 0.341212 -0.030014
C200  C     C_R   0.892775 0.516183 0.342715 -0.113291
C201  C     C_R   0.732282 0.472124 0.482971 -0.111106
C202  C     C_R   0.920654 0.503449 0.319920 -0.175094
C203  C     C_R   0.470913 0.057647 0.704419 0.128470
C204  C     C_R   0.435373 0.063937 0.705826 -0.129145
C205  C     C_R   0.421223 0.091214 0.683181 -0.128108
C206  C     C_R   0.442404 0.112273 0.658923 -0.029727
C207  C     C_R   0.477800 0.106185 0.657409 -0.105495
C208  C     C_R   0.492071 0.079031 0.680148 -0.178682
C209  C     C_R   0.940078 0.475948 0.704389 0.127666
C210  C     C_R   0.930817 0.441065 0.705784 -0.130682
C211  C     C_R   0.902496 0.429251 0.683050 -0.118990
C212  C     C_R   0.527837 0.267723 0.517145 -0.111008
C213  C     C_R   0.883345 0.452117 0.658718 -0.030972
C214  C     C_R   0.892381 0.486877 0.657235 -0.117482
C215  C     C_R   0.920591 0.498822 0.680060 -0.173123
C216  C     C_R   0.529086 0.942353 0.704418 0.128470
C217  C     C_R   0.564626 0.936063 0.705823 -0.129147
C218  C     C_R   0.578776 0.908787 0.683178 -0.128098
C219  C     C_R   0.557595 0.887728 0.658919 -0.029748
C220  C     C_R   0.522200 0.893816 0.657407 -0.105518
C221  C     C_R   0.507928 0.920969 0.680147 -0.178672
C222  C     C_R   0.059923 0.524051 0.704387 0.127665
C223  C     C_R   0.000000 0.432747 0.000005 1.023527
C224  C     C_R   0.732274 0.527897 0.517105 -0.111062
C225  C     C_R   0.069185 0.558933 0.705782 -0.130682
C226  C     C_R   0.097505 0.570748 0.683047 -0.118984
C227  C     C_R   0.116656 0.547881 0.658714 -0.030971
C228  C     C_R   0.107619 0.513122 0.657231 -0.117488
C229  C     C_R   0.079410 0.501177 0.680057 -0.173121
C230  C     C_R   0.472157 0.732275 0.517134 -0.111033
C231  C     C_R   0.267726 0.472107 0.517121 -0.111059
C232  C     C_R   0.973456 0.732106 0.980046 -0.095211
C233  C     C_R   0.732100 0.026648 0.980216 -0.095696
C234  C     C_R   0.973478 0.267888 0.020042 -0.095374
C235  C     C_R   0.267904 0.026659 0.019725 -0.095594
C236  C     C_R   0.026523 0.732113 0.020036 -0.095358
C237  C     C_R   0.267900 0.973352 0.980211 -0.095694
C238  C     C_R   0.026543 0.267895 0.980047 -0.095218
C239  C     C_R   0.432750 0.000000 0.999996 1.023642
C240  C     C_R   0.732095 0.973341 0.019731 -0.095595
C241  C     C_R   0.472125 0.231999 0.482854 -0.101031
C242  C     C_R   0.231986 0.527906 0.483065 -0.101147
C243  C     C_R   0.527881 0.767999 0.482869 -0.101004
C244  C     C_R   0.768014 0.472090 0.483067 -0.101157
C245  C     C_R   0.527870 0.231992 0.517056 -0.100828
C246  C     C_R   0.768006 0.527930 0.517036 -0.101490
C247  C     C_R   0.472124 0.768005 0.517044 -0.100801
C248  C     C_R   0.231994 0.472073 0.517053 -0.101490
C249  C     C_R   0.999990 0.714186 0.000045 0.262736
C250  C     C_R   0.500000 0.067220 0.499996 1.029248
C251  C     C_R   0.714175 0.999995 0.999971 0.262750
C252  C     C_R   0.000010 0.285814 0.000048 0.262753
C253  C     C_R   0.285825 0.000006 0.999966 0.262743
C254  C     C_R   0.499997 0.214067 0.499950 0.264555
C255  C     C_R   0.214062 0.499989 0.500065 0.264808
C256  C     C_R   0.500003 0.785931 0.499953 0.264492
C257  C     C_R   0.785938 0.500010 0.500057 0.264789
C258  C     C_R   0.999990 0.785749 0.000026 0.185323
C259  C     C_R   0.785740 0.999995 0.999984 0.185501
C260  C     C_R   0.000010 0.214252 0.000028 0.185306
C261  C     C_R   0.067219 0.499999 0.500004 1.029878
C262  C     C_R   0.214260 0.000005 0.999979 0.185502
C263  C     C_R   0.499997 0.285658 0.499971 0.188416
C264  C     C_R   0.285654 0.499989 0.500037 0.188637
C265  C     C_R   0.500003 0.714341 0.499973 0.188485
C266  C     C_R   0.714346 0.500011 0.500031 0.188618
C267  C     C_R   0.971619 0.658718 0.015895 0.515960
C268  C     C_R   0.658714 0.028256 0.016141 0.515549
C269  C     C_R   0.028379 0.341282 0.015900 0.515953
C270  C     C_R   0.341285 0.971743 0.016135 0.515547
C271  C     C_R   0.028375 0.658728 0.984187 0.516316
C272  C     C_R   0.500000 0.932780 0.499997 1.029229
C273  C     C_R   0.341292 0.028259 0.983804 0.515284
C274  C     C_R   0.971627 0.341272 0.984187 0.516319
C275  C     C_R   0.658708 0.971742 0.983805 0.515293
C276  C     C_R   0.473143 0.158589 0.519358 0.502813
C277  C     C_R   0.158577 0.526760 0.519612 0.501286
C278  C     C_R   0.526860 0.841411 0.519353 0.502791
C279  C     C_R   0.841423 0.473240 0.519608 0.501285
C280  C     C_R   0.526843 0.158581 0.480555 0.502471
C281  C     C_R   0.841417 0.526785 0.480493 0.501801
C282  C     C_R   0.473153 0.841418 0.480564 0.502452
C283  C     C_R   0.932781 0.500000 0.500004 1.029891
C284  C     C_R   0.158584 0.473213 0.480503 0.501825
C285  C     C_R   0.971580 0.622982 0.015920 0.494611
C286  C     C_R   0.622976 0.028297 0.016185 0.493568
C287  C     C_R   0.028418 0.377019 0.015925 0.494584
C288  C     C_R   0.377024 0.971703 0.016180 0.493572
C289  C     C_R   0.028418 0.622992 0.984140 0.495141
C290  C     C_R   0.377031 0.028298 0.983776 0.493221
C291  C     C_R   0.971583 0.377008 0.984139 0.495134
C292  C     C_R   0.622970 0.971703 0.983776 0.493217
C293  C     C_R   0.473111 0.122841 0.519386 0.483177
C294  C     C_R   0.999997 0.895025 0.000004 -0.230427
C295  C     C_R   0.122827 0.526801 0.519600 0.484341
C296  C     C_R   0.526892 0.877159 0.519379 0.483195
C297  C     C_R   0.877172 0.473200 0.519599 0.484340
C298  C     C_R   0.526880 0.122833 0.480558 0.483514
C299  C     C_R   0.877166 0.526815 0.480466 0.483665
C300  C     C_R   0.473116 0.877166 0.480567 0.483533
C301  C     C_R   0.122835 0.473183 0.480473 0.483654
C302  C     C_R   0.999999 0.604847 0.000021 -0.521462
C303  C     C_R   0.604838 1.000000 0.999986 -0.520147
C304  C     C_R   0.000001 0.395153 0.000022 -0.521450
F1    F     F_    0.001143 0.824239 0.074887 -0.639117
F2    F     F_    0.324154 0.494440 0.574588 -0.641745
F3    F     F_    0.494570 0.675863 0.574558 -0.641566
F4    F     F_    0.675846 0.505589 0.574580 -0.641753
F5    F     F_    0.494546 0.324158 0.425406 -0.641645
F6    F     F_    0.675871 0.494429 0.425460 -0.641676
F7    F     F_    0.505435 0.675843 0.425406 -0.641622
F8    F     F_    0.324128 0.505540 0.425462 -0.641665
F9    F     F_    0.944310 0.675841 0.032211 -0.598238
F10   F     F_    0.675845 0.055438 0.032748 -0.598821
F11   F     F_    0.055687 0.324160 0.032219 -0.598249
F12   F     F_    0.824214 0.998473 0.074848 -0.639148
F13   F     F_    0.324153 0.944560 0.032739 -0.598819
F14   F     F_    0.055682 0.675860 0.967881 -0.597776
F15   F     F_    0.324168 0.055444 0.967191 -0.599121
F16   F     F_    0.944321 0.324139 0.967879 -0.597775
F17   F     F_    0.675834 0.944558 0.967191 -0.599118
F18   F     F_    0.447408 0.175721 0.539063 -0.608786
F19   F     F_    0.175703 0.552415 0.539476 -0.609022
F20   F     F_    0.552598 0.824280 0.539052 -0.608796
F21   F     F_    0.824295 0.447587 0.539475 -0.609028
F22   F     F_    0.552577 0.175707 0.460838 -0.608875
F23   F     F_    0.998847 0.175760 0.074888 -0.639129
F24   F     F_    0.824284 0.552441 0.460641 -0.609067
F25   F     F_    0.447416 0.824293 0.460853 -0.608884
F26   F     F_    0.175719 0.447555 0.460655 -0.609053
F27   F     F_    0.944119 0.606227 0.032417 -0.595306
F28   F     F_    0.606218 0.055624 0.032999 -0.596381
F29   F     F_    0.055878 0.393774 0.032424 -0.595332
F30   F     F_    0.393781 0.944373 0.032992 -0.596374
F31   F     F_    0.055883 0.606247 0.967638 -0.594735
F32   F     F_    0.393796 0.055624 0.966969 -0.596680
F33   F     F_    0.944120 0.393753 0.967634 -0.594742
F34   F     F_    0.175786 0.001526 0.074845 -0.639147
F35   F     F_    0.606206 0.944378 0.966965 -0.596681
F36   F     F_    0.447311 0.105979 0.539312 -0.598561
F37   F     F_    0.105951 0.552525 0.539651 -0.596484
F38   F     F_    0.552697 0.894021 0.539295 -0.598544
F39   F     F_    0.894047 0.447477 0.539652 -0.596489
F40   F     F_    0.552682 0.105963 0.460644 -0.598108
F41   F     F_    0.894035 0.552534 0.460396 -0.597325
F42   F     F_    0.447310 0.894036 0.460663 -0.598091
F43   F     F_    0.105968 0.447463 0.460404 -0.597351
F44   F     F_    0.998836 0.824220 0.925148 -0.639022
F45   F     F_    0.175773 0.998485 0.925127 -0.639203
F46   F     F_    0.001173 0.175781 0.925149 -0.639029
F47   F     F_    0.824227 0.001516 0.925131 -0.639202
F48   F     F_    0.505450 0.324137 0.574555 -0.641590
H1    H     H_    0.001450 0.890433 0.067400 0.207070
H2    H     H_    0.390388 0.494684 0.567110 0.206027
H3    H     H_    0.395499 0.902242 0.315727 0.153415
H4    H     H_    0.433715 0.865577 0.358793 0.180521
H5    H     H_    0.496294 0.877452 0.361468 0.149918
H6    H     H_    0.520838 0.925783 0.321222 0.141353
H7    H     H_    0.947843 0.578464 0.275730 0.138186
H8    H     H_    0.898254 0.600598 0.315769 0.153712
H9    H     H_    0.863144 0.561003 0.358909 0.180983
H10   H     H_    0.877440 0.498933 0.361579 0.148226
H11   H     H_    0.926652 0.476275 0.321277 0.141469
H12   H     H_    0.418685 0.047625 0.724259 0.138065
H13   H     H_    0.494793 0.609628 0.567109 0.206043
H14   H     H_    0.393815 0.095951 0.684317 0.153271
H15   H     H_    0.431394 0.133290 0.641279 0.180163
H16   H     H_    0.494168 0.122490 0.638585 0.150916
H17   H     H_    0.519539 0.074569 0.678796 0.141321
H18   H     H_    0.945638 0.423069 0.724258 0.138238
H19   H     H_    0.895477 0.402338 0.684164 0.153971
H20   H     H_    0.861523 0.442905 0.640992 0.180919
H21   H     H_    0.877549 0.504552 0.638360 0.147135
H22   H     H_    0.927353 0.525816 0.678711 0.141534
H23   H     H_    0.581313 0.952376 0.724257 0.138064
H24   H     H_    0.609612 0.505343 0.567105 0.206024
H25   H     H_    0.606184 0.904051 0.684312 0.153271
H26   H     H_    0.568606 0.866711 0.641274 0.180159
H27   H     H_    0.505832 0.877511 0.638582 0.150913
H28   H     H_    0.480460 0.925431 0.678795 0.141322
H29   H     H_    0.054365 0.576929 0.724257 0.138238
H30   H     H_    0.104525 0.597661 0.684162 0.153973
H31   H     H_    0.138478 0.557094 0.640987 0.180923
H32   H     H_    0.122451 0.495447 0.638354 0.147129
H33   H     H_    0.072647 0.474183 0.678707 0.141533
H34   H     H_    0.494770 0.390388 0.432882 0.206048
H35   H     H_    0.609632 0.494666 0.432907 0.206017
H36   H     H_    0.505210 0.609613 0.432880 0.206049
H37   H     H_    0.390367 0.505307 0.432905 0.206019
H38   H     H_    0.952767 0.781496 0.964648 0.172927
H39   H     H_    0.781499 0.047425 0.965018 0.172847
H40   H     H_    0.952790 0.218492 0.035415 0.172959
H41   H     H_    0.890417 0.998219 0.067380 0.207041
H42   H     H_    0.218509 0.047436 0.034942 0.172825
H43   H     H_    0.047213 0.781508 0.035407 0.172946
H44   H     H_    0.218502 0.952575 0.965013 0.172847
H45   H     H_    0.047232 0.218505 0.964646 0.172942
H46   H     H_    0.781490 0.952564 0.034948 0.172827
H47   H     H_    0.450454 0.281417 0.469630 0.170918
H48   H     H_    0.281402 0.549607 0.469886 0.170823
H49   H     H_    0.549557 0.718581 0.469656 0.170867
H50   H     H_    0.718598 0.450385 0.469897 0.170838
H51   H     H_    0.549540 0.281405 0.530308 0.170959
H52   H     H_    0.998541 0.109566 0.067400 0.207069
H53   H     H_    0.718584 0.549636 0.530170 0.170786
H54   H     H_    0.450450 0.718591 0.530285 0.170910
H55   H     H_    0.281415 0.450371 0.530194 0.170769
H56   H     H_    0.952944 0.718424 0.964323 0.171930
H57   H     H_    0.718422 0.047256 0.964674 0.171773
H58   H     H_    0.952965 0.281564 0.035772 0.171891
H59   H     H_    0.281586 0.047267 0.035264 0.171793
H60   H     H_    0.047037 0.718437 0.035764 0.171907
H61   H     H_    0.281578 0.952744 0.964669 0.171779
H62   H     H_    0.047055 0.281577 0.964321 0.171919
H63   H     H_    0.109583 0.001780 0.067379 0.207042
H64   H     H_    0.718413 0.952734 0.035270 0.171788
H65   H     H_    0.450551 0.218311 0.469386 0.169657
H66   H     H_    0.218292 0.549513 0.469689 0.169569
H67   H     H_    0.549460 0.781686 0.469413 0.169703
H68   H     H_    0.781707 0.450479 0.469697 0.169580
H69   H     H_    0.549442 0.218300 0.530518 0.169762
H70   H     H_    0.781694 0.549541 0.530412 0.169422
H71   H     H_    0.450546 0.781696 0.530496 0.169808
H72   H     H_    0.218306 0.450465 0.530436 0.169405
H73   H     H_    0.907732 0.518954 0.775407 0.135369
H74   H     H_    0.998541 0.890419 0.932611 0.207068
H75   H     H_    0.856527 0.498986 0.814102 0.147600
H76   H     H_    0.859155 0.445518 0.856086 0.150481
H77   H     H_    0.913198 0.411791 0.859222 0.178227
H78   H     H_    0.964540 0.431208 0.820385 0.142513
H79   H     H_    0.510676 0.093624 0.775458 0.135505
H80   H     H_    0.486244 0.142805 0.814244 0.148029
H81   H     H_    0.433266 0.135370 0.856301 0.152625
H82   H     H_    0.404504 0.078530 0.859405 0.180441
H83   H     H_    0.428385 0.029172 0.820452 0.141760
H84   H     H_    0.092268 0.481043 0.775404 0.135369
H85   H     H_    0.109573 0.998224 0.932612 0.207048
H86   H     H_    0.143474 0.501009 0.814097 0.147600
H87   H     H_    0.140847 0.554477 0.856083 0.150482
H88   H     H_    0.086805 0.588205 0.859221 0.178225
H89   H     H_    0.035463 0.568790 0.820384 0.142512
H90   H     H_    0.489321 0.906376 0.775460 0.135506
H91   H     H_    0.513753 0.857195 0.814246 0.148030
H92   H     H_    0.566732 0.864630 0.856300 0.152626
H93   H     H_    0.595496 0.921470 0.859400 0.180440
H94   H     H_    0.571615 0.970827 0.820448 0.141760
H95   H     H_    0.092827 0.516101 0.224586 0.135414
H96   H     H_    0.001468 0.109582 0.932611 0.207067
H97   H     H_    0.143379 0.494561 0.185868 0.147734
H98   H     H_    0.139079 0.441218 0.143852 0.151146
H99   H     H_    0.084011 0.409191 0.140714 0.179000
H100  H     H_    0.033310 0.430178 0.179584 0.142194
H101  H     H_    0.487631 0.093409 0.224553 0.135468
H102  H     H_    0.511173 0.143033 0.185786 0.147935
H103  H     H_    0.564286 0.136570 0.143743 0.152174
H104  H     H_    0.594076 0.080261 0.140633 0.180190
H105  H     H_    0.571086 0.030470 0.179562 0.141930
H106  H     H_    0.907194 0.483804 0.224569 0.135403
H107  H     H_    0.890427 0.001777 0.932614 0.207049
H108  H     H_    0.856623 0.505290 0.185845 0.147727
H109  H     H_    0.860866 0.558648 0.143846 0.151121
H110  H     H_    0.915896 0.590742 0.140731 0.178963
H111  H     H_    0.966617 0.569807 0.179604 0.142207
H112  H     H_    0.512371 0.906592 0.224553 0.135467
H113  H     H_    0.488829 0.856968 0.185787 0.147936
H114  H     H_    0.435716 0.863431 0.143746 0.152173
H115  H     H_    0.405925 0.919739 0.140637 0.180182
H116  H     H_    0.428915 0.969531 0.179564 0.141928
H117  H     H_    0.580466 0.049035 0.275741 0.138107
H118  H     H_    0.505227 0.390371 0.567106 0.206040
H119  H     H_    0.604501 0.097763 0.315718 0.153414
H120  H     H_    0.566286 0.134427 0.358787 0.180525
H121  H     H_    0.503707 0.122549 0.361468 0.149921
H122  H     H_    0.479164 0.074217 0.321225 0.141352
H123  H     H_    0.052082 0.421498 0.275752 0.138184
H124  H     H_    0.101649 0.399327 0.315798 0.153708
H125  H     H_    0.136799 0.438901 0.358919 0.180987
H126  H     H_    0.122565 0.500985 0.361561 0.148261
H127  H     H_    0.073372 0.523679 0.321254 0.141481
H128  H     H_    0.419535 0.950969 0.275747 0.138106
O1    O     O_R   0.028770 0.550930 0.999950 -0.570880
O2    O     O_R   0.050930 0.471230 0.499950 -0.574305
O3    O     O_R   0.471230 0.949070 0.499950 -0.573989
O4    O     O_R   0.949070 0.528770 0.499950 -0.574303
O5    O     O_R   0.471230 0.050930 0.500050 -0.574087
O6    O     O_R   0.949070 0.471230 0.500050 -0.574195
O7    O     O_R   0.528770 0.949070 0.500050 -0.574074
O8    O     O_R   0.050930 0.528770 0.500050 -0.574189
O9    O     O_R   0.028770 0.500010 0.938980 -0.612709
O10   O     O_R   0.500010 0.971230 0.938980 -0.612586
O11   O     O_R   0.971230 0.499990 0.938980 -0.612706
O12   O     O_R   0.550930 0.971230 0.999950 -0.571017
O13   O     O_R   0.499990 0.028770 0.938980 -0.612587
O14   O     O_R   0.971230 0.500010 0.061020 -0.612687
O15   O     O_R   0.499990 0.971230 0.061020 -0.612600
O16   O     O_R   0.028770 0.499990 0.061020 -0.612676
O17   O     O_R   0.500010 0.028770 0.061020 -0.612598
O18   O     O_R   0.528770 0.000010 0.438980 -0.612470
O19   O     O_R   0.000010 0.471230 0.438980 -0.612515
O20   O     O_R   0.471230 0.999990 0.438980 -0.612476
O21   O     O_R   0.999990 0.528770 0.438980 -0.612498
O22   O     O_R   0.471230 0.000010 0.561020 -0.612454
O23   O     O_R   0.971230 0.449070 0.999950 -0.570889
O24   O     O_R   0.999990 0.471230 0.561020 -0.612537
O25   O     O_R   0.528770 0.999990 0.561020 -0.612459
O26   O     O_R   0.000010 0.528770 0.561020 -0.612537
O27   O     O_R   0.949050 0.000070 0.965610 -0.622170
O28   O     O_R   0.000070 0.050950 0.965610 -0.622170
O29   O     O_R   0.050950 0.999930 0.965610 -0.622172
O30   O     O_R   0.999930 0.949050 0.965610 -0.622170
O31   O     O_R   0.050950 0.000070 0.034390 -0.622163
O32   O     O_R   0.999930 0.050950 0.034390 -0.622189
O33   O     O_R   0.949050 0.999930 0.034390 -0.622165
O34   O     O_R   0.449070 0.028770 0.999950 -0.571013
O35   O     O_R   0.000070 0.949050 0.034390 -0.622188
O36   O     O_R   0.449050 0.500070 0.465610 -0.622226
O37   O     O_R   0.500070 0.550950 0.465610 -0.622247
O38   O     O_R   0.550950 0.499930 0.465610 -0.622223
O39   O     O_R   0.499930 0.449050 0.465610 -0.622247
O40   O     O_R   0.550950 0.500070 0.534390 -0.622241
O41   O     O_R   0.499930 0.550950 0.534390 -0.622238
O42   O     O_R   0.449050 0.499930 0.534390 -0.622242
O43   O     O_R   0.500070 0.449050 0.534390 -0.622233
O44   O     O_R   0.971230 0.550930 0.000050 -0.570774
O45   O     O_R   0.449070 0.971230 0.000050 -0.571094
O46   O     O_R   0.028770 0.449070 0.000050 -0.570776
O47   O     O_R   0.550930 0.028770 0.000050 -0.571097
O48   O     O_R   0.528770 0.050930 0.499950 -0.574001
Zn1   Zn    Zn3+2 0.038410 0.500000 0.000000 1.072509
Zn2   Zn    Zn3+2 0.000000 0.000000 0.046010 1.004812
Zn3   Zn    Zn3+2 0.500000 0.500000 0.453990 1.001683
Zn4   Zn    Zn3+2 0.500000 0.500000 0.546010 1.001678
Zn5   Zn    Zn3+2 0.500000 0.961590 0.000000 1.072784
Zn6   Zn    Zn3+2 0.961590 0.500000 0.000000 1.072497
Zn7   Zn    Zn3+2 0.500000 0.038410 0.000000 1.072784
Zn8   Zn    Zn3+2 0.538410 0.000000 0.500000 1.077034
Zn9   Zn    Zn3+2 0.000000 0.461590 0.500000 1.077487
Zn10  Zn    Zn3+2 0.461590 0.000000 0.500000 1.077033
Zn11  Zn    Zn3+2 0.000000 0.538410 0.500000 1.077508
Zn12  Zn    Zn3+2 0.000000 0.000000 0.953990 1.004832

loop_
_geom_bond_atom_site_label_1
_geom_bond_atom_site_label_2
_ccdc_geom_bond_type
C231  C264  A    
C126  C127  A    
C242  C255  A    
C105  F48   S    
C280  C298  A    
O26   Zn11  S    
C279  F21   S    
C238  H62   S    
C231  H55   S    
C284  F26   S    
C45   C170  S    
C27   C71   S    
C176  C182  A    
C233  C251  A    
O33   Zn2   S    
C139  H86   S    
O7    Zn8   S    
C154  H99   S    
C9    C251  S    
C8    C271  A    
C52   C61   S    
C92   C109  A    
C220  H27   S    
C54   C63   S    
C292  F35   S    
C143  C144  A    
C94   C111  A    
C282  F25   S    
C261  O2    A    
C100  F44   S    
C1    O1    A    
C79   H38   S    
C11   C273  A    
C36   C53   A    
C161  H104  S    
C104  C116  A    
C40   C43   A    
C66   C72   T    
C195  H6    S    
O42   Zn4   S    
O21   Zn11  S    
C28   O14   A    
C293  F36   S    
C20   O30   A    
C12   C280  A    
C46   C88   A    
C85   C103  A    
C93   C110  A    
C268  F10   S    
C199  C200  A    
C28   O16   A    
C5    C261  S    
C289  C302  A    
C133  H81   S    
C103  C117  A    
C100  C115  A    
C4    C298  A    
C230  H54   S    
C291  C304  A    
C131  H79   S    
C228  C229  A    
C87   H118  S    
C7    C297  A    
C3    C288  A    
C244  C257  A    
C20   O35   A    
C191  C192  A    
C286  C303  A    
C108  C122  A    
C140  C141  A    
C30   O18   A    
C121  C265  S    
C206  C207  A    
C196  C197  A    
C181  C182  A    
C270  F13   S    
C191  H128  S    
C44   C150  S    
C135  C237  A    
C42   C45   A    
C26   O11   A    
C183  C184  A    
C206  H15   S    
C185  H124  S    
C42   C55   A    
C283  O6    A    
C227  C228  A    
C277  C295  A    
C40   C55   A    
C138  H84   S    
C12   C276  A    
O45   Zn5   S    
C216  C217  A    
C85   H96   S    
C49   C60   A    
C136  H83   S    
C154  C155  A    
C145  H91   S    
O37   Zn3   S    
C157  H46   S    
C13   C18   S    
C31   O19   A    
C84   H85   S    
C83   C100  A    
C197  H7    S    
C158  C159  A    
C25   O39   A    
C11   C270  A    
C232  C249  A    
C50   C59   A    
C43   C156  S    
C222  C229  A    
C158  H101  S    
C7    C283  S    
C168  H47   S    
C19   O31   A    
C126  H75   S    
C238  C252  A    
C15   C278  A    
C18   O28   A    
C144  C145  A    
C139  C140  A    
C285  F27   S    
C214  H21   S    
O25   Zn8   S    
C156  C158  A    
C130  C131  A    
C202  H11   S    
C237  H61   S    
C179  H48   S    
C38   C53   A    
O5    Zn10  S    
C22   C57   S    
C275  F17   S    
C10   C252  S    
C190  C265  A    
C135  H44   S    
C301  F43   S    
C288  F30   S    
C124  C236  A    
C167  H110  S    
C143  C149  A    
C108  F4    S    
C240  C251  A    
C200  C202  A    
C193  C194  A    
C13   C85   A    
C101  C234  A    
C6    C300  A    
C127  H76   S    
C183  C188  A    
C5    C301  A    
C271  C289  A    
C110  C122  A    
C190  H49   S    
C137  C142  A    
C272  O3    A    
C276  C293  A    
C80   C97   A    
C84   C102  A    
C146  C260  A    
C147  C148  A    
O18   Zn8   S    
C81   H52   S    
C86   C104  A    
C128  C129  A    
C291  F33   S    
C167  C169  A    
C134  H82   S    
O38   Zn3   S    
C27   O13   A    
C209  C215  A    
C164  H106  S    
C114  F8    S    
C26   O9    A    
C276  F18   S    
O13   Zn7   S    
C182  H122  S    
C275  C292  A    
O28   Zn12  S    
C224  C266  A    
C30   C74   S    
C129  H78   S    
C39   C54   A    
C170  C171  A    
C17   O33   A    
C184  C185  A    
C110  F6    S    
C101  H40   S    
C296  F38   S    
C148  H93   S    
C189  C191  A    
C174  C175  A    
C124  H43   S    
C59   C67   S    
C35   C87   A    
C246  H70   S    
C146  C238  A    
C61   C77   T    
C10   C269  A    
C283  O4    A    
C236  H60   S    
C141  H88   S    
C247  C256  A    
O8    Zn11  S    
C2    C17   S    
C82   H63   S    
C22   O41   A    
O32   Zn2   S    
C69   C70   T    
C207  H16   S    
C8    C267  A    
O24   Zn9   S    
C287  F29   S    
C297  F39   S    
C198  H8    S    
C284  C301  A    
O12   Zn5   S    
C99   C118  A    
C4    C293  A    
C45   C56   A    
C78   C96   A    
C40   C176  S    
C37   C52   A    
C113  H42   S    
C240  H64   S    
C222  C225  A    
C217  C218  A    
C192  H3    S    
C217  H23   S    
C90   C233  A    
C80   H41   S    
C96   F1    S    
C286  F28   S    
C157  C240  A    
C173  H114  S    
C87   C105  A    
C232  H56   S    
C209  C210  A    
C41   C47   A    
C21   O36   A    
C281  F24   S    
C144  H90   S    
C194  H5    S    
C128  H77   S    
C116  C259  S    
C152  H97   S    
C150  C155  A    
O4    Zn11  S    
C224  C246  A    
C172  H113  S    
C287  C304  A    
C1    C302  S    
C298  F40   S    
C295  F37   S    
C22   O37   A    
C241  H65   S    
C83   H74   S    
C211  H19   S    
C95   H37   S    
C300  F42   S    
C122  C266  S    
C48   C59   A    
C225  H29   S    
C34   C49   A    
C9    C275  A    
C184  H123  S    
C99   F34   S    
C32   C76   S    
C233  H57   S    
C39   C44   A    
C125  H73   S    
C203  C208  A    
C279  C297  A    
C57   C94   A    
O23   Zn6   S    
C151  H95   S    
C186  C187  A    
C246  C257  A    
C112  O12   A    
O19   Zn9   S    
C33   C77   S    
C157  C259  A    
C63   C75   T    
C60   C69   S    
O15   Zn5   S    
C112  O47   A    
C25   O43   A    
C36   C48   A    
C113  C262  A    
C199  H9    S    
C197  C198  A    
C218  H25   S    
C39   C183  S    
C140  H87   S    
C162  H105  S    
C190  C243  A    
C152  C153  A    
C267  C285  A    
C135  C262  A    
C226  C227  A    
C150  C151  A    
C15   C282  A    
C51   C60   A    
C3    C290  A    
C18   O32   A    
C228  H32   S    
C277  F19   S    
C230  C247  A    
C32   O22   A    
C92   H34   S    
C212  C263  A    
C90   H39   S    
C89   H13   S    
C20   C294  S    
C82   C99   A    
C192  C193  A    
C203  C204  A    
C62   C76   T    
C161  C162  A    
C248  C255  A    
C220  C221  A    
C175  H116  S    
C172  C173  A    
O6    Zn9   S    
C299  F41   S    
C201  C244  A    
C57   C89   A    
C21   O42   A    
C98   C117  A    
C237  C253  A    
C164  C165  A    
C83   C294  A    
C123  C125  A    
C81   C98   A    
C95   C114  A    
C49   C123  S    
C13   C81   A    
O16   Zn1   S    
C292  C303  A    
C16   C281  A    
C216  C221  A    
C163  C164  A    
C44   C58   A    
C97   F12   S    
C151  C152  A    
C36   C203  S    
C147  H92   S    
C47   C163  S    
C35   C92   A    
C111  F7    S    
C194  C195  A    
C124  C258  A    
O10   Zn5   S    
O11   Zn6   S    
C48   C130  S    
C28   C72   S    
C1    O44   A    
C10   C274  A    
C90   C259  A    
C145  C147  A    
C170  C175  A    
C33   O26   A    
C130  C136  A    
O43   Zn4   S    
C267  F9    S    
C207  C208  A    
C247  H71   S    
C235  C253  A    
C212  H51   S    
C38   C216  S    
C219  C220  A    
C250  O5    A    
C29   O17   A    
C91   H24   S    
C31   O21   A    
O31   Zn2   S    
C107  F3    S    
C171  H112  S    
C173  C174  A    
C244  H68   S    
C243  C256  A    
C68   C91   A    
C179  C264  A    
C189  C195  A    
C239  O34   A    
C31   C75   S    
C159  C160  A    
C213  C214  A    
C201  H50   S    
C89   C107  A    
C204  H12   S    
C97   C116  A    
C248  H72   S    
C178  H119  S    
C25   C35   S    
C51   C137  S    
C14   C277  A    
C165  H108  S    
O39   Zn3   S    
C133  C134  A    
C26   C70   S    
C201  C266  A    
C107  C121  A    
C127  C128  A    
O3    Zn10  S    
C180  C181  A    
C109  C119  A    
C33   O24   A    
C113  C235  A    
C227  H31   S    
C155  H100  S    
C91   C108  A    
C19   O29   A    
C289  F31   S    
C153  H98   S    
C212  C245  A    
C178  C180  A    
C269  F11   S    
C166  H109  S    
C41   C196  S    
C245  C254  A    
C34   C52   A    
C14   C284  A    
C19   C24   S    
O2    Zn9   S    
C187  C188  A    
C93   H35   S    
C273  F15   S    
C16   C257  S    
C42   C189  S    
C274  F16   S    
C185  C186  A    
C98   F23   S    
C11   C253  S    
C29   O15   A    
O22   Zn10  S    
C67   C71   T    
C163  C169  A    
C88   H2    S    
C79   C232  A    
C242  H66   S    
C138  C139  A    
C174  H115  S    
C177  H117  S    
C223  O46   A    
C177  C178  A    
C117  C260  S    
C64   C74   T    
C105  C119  A    
C223  O23   A    
C219  H26   S    
C114  C120  A    
C193  H4    S    
C3    C239  S    
C234  H58   S    
O30   Zn12  S    
C171  C172  A    
C165  C166  A    
C111  C121  A    
O17   Zn7   S    
C231  C248  A    
C236  C249  A    
C281  C299  A    
C78   H1    S    
C280  F22   S    
C205  C206  A    
C208  H17   S    
O40   Zn4   S    
C186  H125  S    
C37   C222  S    
C16   C279  A    
C5    C295  A    
C181  H121  S    
C205  H14   S    
C37   C51   A    
C6    C296  A    
C78   C294  A    
C29   C73   S    
C282  C300  A    
C56   C65   S    
C101  C260  A    
O44   Zn6   S    
C226  H30   S    
C112  C303  S    
C65   C73   T    
O35   Zn2   S    
C24   C82   A    
O41   Zn4   S    
O36   Zn3   S    
C58   C66   S    
C119  C263  S    
C14   C255  S    
C168  C241  A    
C132  C133  A    
C120  C264  S    
C169  H111  S    
C96   C115  A    
C198  C199  A    
C187  H126  S    
C250  O48   A    
C223  C304  S    
C274  C291  A    
C102  C118  A    
C221  H28   S    
C290  F32   S    
O47   Zn7   S    
C278  C296  A    
C123  C129  A    
O46   Zn1   S    
C23   O40   A    
C142  H89   S    
C106  F2    S    
C268  C286  A    
C15   C256  S    
C9    C268  A    
C8    C249  S    
C12   C254  S    
C46   C95   A    
C6    C272  S    
C188  H127  S    
C148  C149  A    
C234  C252  A    
C214  C215  A    
C134  C136  A    
C86   H107  S    
C146  H45   S    
C23   C68   S    
C34   C209  S    
C88   C106  A    
C53   C62   S    
C104  F47   S    
C118  C262  S    
O9    Zn1   S    
C55   C64   S    
C225  C226  A    
C149  H94   S    
C261  O8    A    
C204  C205  A    
C278  F20   S    
C224  H53   S    
C176  C177  A    
C211  C213  A    
C243  H67   S    
C166  C167  A    
C196  C202  A    
C50   C143  S    
C210  H18   S    
C215  H22   S    
C21   C46   S    
C132  H80   S    
C27   O10   A    
C106  C120  A    
C79   C258  A    
O1    Zn1   S    
C269  C287  A    
C159  H102  S    
C235  H59   S    
C102  F45   S    
C270  C288  A    
O14   Zn6   S    
C115  C258  S    
C229  H33   S    
O29   Zn12  S    
C38   C50   A    
C7    C299  A    
C137  C138  A    
C272  O7    A    
O20   Zn10  S    
C68   C93   A    
C285  C302  A    
C160  C161  A    
C24   C84   A    
C4    C250  S    
C30   O20   A    
C141  C142  A    
C47   C58   A    
C218  C219  A    
C125  C126  A    
C271  F14   S    
C200  H10   S    
C2    C86   A    
C160  H103  S    
O27   Zn12  S    
C103  F46   S    
C168  C263  A    
C94   H36   S    
C41   C54   A    
C179  C242  A    
C2    C80   A    
C239  O45   A    
C156  C162  A    
C43   C56   A    
C180  H120  S    
O48   Zn8   S    
C210  C211  A    
C273  C290  A    
C109  F5    S    
O34   Zn7   S    
C241  C254  A    
C23   O38   A    
C153  C154  A    
C32   O25   A    
C17   O27   A    
C213  H20   S    
C131  C132  A    
C245  H69   S    
C230  C265  A    
