data_mof_unit_46977.cif
_audit_creation_date              2013-03-05T15:49:03-0500
_audit_creation_method            fapswitch 2.2
_symmetry_space_group_name_H-M    P1
_symmetry_Int_Tables_number       1
_space_group_crystal_system       triclinic
_cell_length_a                    18.142277
_cell_length_b                    18.383189
_cell_length_c                    12.179162
_cell_angle_alpha                 90.000028
_cell_angle_beta                  80.088156
_cell_angle_gamma                 90.0
_cell_volume                      4001.27873186

loop_
_atom_site_label
_atom_site_type_symbol
_atom_site_description
_atom_site_fract_x
_atom_site_fract_y
_atom_site_fract_z
_atom_type_partial_charge
O1    O     O_R   0.418020 0.076820 0.422210 -0.596786
O2    O     O_R   0.581980 0.923180 0.577790 -0.591442
O3    O     O_R   0.581980 0.076820 0.577790 -0.596781
O4    O     O_R   0.418020 0.923180 0.422210 -0.591438
O5    O     O_R   0.918020 0.576820 0.422210 -0.596777
O6    O     O_R   0.081980 0.423180 0.577790 -0.591454
O7    O     O_R   0.081980 0.576820 0.577790 -0.596779
O8    O     O_R   0.918020 0.423180 0.422210 -0.591456
O9    O     O_R   0.430370 0.076830 0.608590 -0.574447
O10   O     O_R   0.569630 0.923170 0.391410 -0.546191
O11   O     O_R   0.569630 0.076830 0.391410 -0.574448
O12   O     O_R   0.430370 0.923170 0.608590 -0.546190
O13   O     O_R   0.930370 0.576830 0.608590 -0.574456
O14   O     O_R   0.069630 0.423170 0.391410 -0.546185
O15   O     O_R   0.069630 0.576830 0.391410 -0.574456
O16   O     O_R   0.930370 0.423170 0.608590 -0.546184
C1    C     C_R   0.403617 0.104190 0.523839 0.871359
C2    C     C_R   0.596158 0.895312 0.476609 0.904280
C3    C     C_R   0.596383 0.104190 0.476161 0.871360
C4    C     C_R   0.403842 0.895312 0.523391 0.904279
C5    C     C_R   0.903618 0.604191 0.523838 0.871364
C6    C     C_R   0.096158 0.395312 0.476608 0.904270
C7    C     C_R   0.096382 0.604191 0.476162 0.871364
C8    C     C_R   0.903842 0.395312 0.523392 0.904270
C9    C     C_R   0.589223 0.008433 0.816446 -0.006197
C10   C     C_R   0.410777 0.008434 0.183554 -0.006197
C11   C     C_R   0.089223 0.508431 0.816446 -0.006201
C12   C     C_R   0.910776 0.508430 0.183554 -0.006201
Zn1   Zn    Zn3+2 0.491750 0.000000 0.375560 1.082796
Zn2   Zn    Zn3+2 0.508250 1.000000 0.624440 1.082797
Zn3   Zn    Zn3+2 0.991750 0.500000 0.375560 1.082795
Zn4   Zn    Zn3+2 0.008250 0.500000 0.624440 1.082795
C13   C     C_R   0.598810 0.013801 0.927907 0.222143
C14   C     C_R   0.401191 0.013803 0.072093 0.222142
C15   C     C_R   0.098810 0.513803 0.927906 0.222144
C16   C     C_R   0.901190 0.513802 0.072093 0.222144
C17   C     C_R   0.457182 0.997203 0.872486 0.371213
C18   C     C_R   0.542818 0.997202 0.127514 0.371214
C19   C     C_R   0.957181 0.497205 0.872486 0.371217
C20   C     C_R   0.042819 0.497205 0.127514 0.371215
C21   C     C_R   0.646137 0.168085 0.457368 -0.223314
C22   C     C_R   0.352907 0.831717 0.539399 -0.241154
C23   C     C_R   0.353863 0.168085 0.542632 -0.223316
C24   C     C_R   0.647092 0.831716 0.460601 -0.241156
C25   C     C_R   0.146132 0.668088 0.457372 -0.223311
C26   C     C_R   0.852908 0.331716 0.539402 -0.241155
C27   C     C_R   0.853867 0.668088 0.542628 -0.223310
C28   C     C_R   0.147092 0.331717 0.460598 -0.241155
C29   C     C_R   0.241156 0.778749 0.647253 0.248198
C30   C     C_R   0.751328 0.230119 0.346310 0.235299
C31   C     C_R   0.758842 0.778748 0.352747 0.248198
C32   C     C_R   0.248673 0.230120 0.653690 0.235300
C33   C     C_R   0.741151 0.278756 0.647249 0.248198
C34   C     C_R   0.251309 0.730140 0.346310 0.235287
C35   C     C_R   0.258850 0.278757 0.352751 0.248199
C36   C     C_R   0.748687 0.730136 0.653690 0.235293
C37   C     C_R   0.311653 0.811772 0.644028 -0.165490
C38   C     C_R   0.690609 0.182688 0.352815 -0.170757
C39   C     C_R   0.688345 0.811771 0.355972 -0.165488
C40   C     C_R   0.309392 0.182688 0.647185 -0.170757
C41   C     C_R   0.811649 0.311777 0.644029 -0.165491
C42   C     C_R   0.190597 0.682700 0.352816 -0.170744
C43   C     C_R   0.188352 0.311778 0.355971 -0.165493
C44   C     C_R   0.809401 0.682698 0.647184 -0.170746
C45   C     C_R   0.339234 0.795019 0.443858 -0.049193
C46   C     C_R   0.653127 0.212881 0.548562 -0.037516
C47   C     C_R   0.660763 0.795018 0.556142 -0.049198
C48   C     C_R   0.346873 0.212882 0.451438 -0.037516
C49   C     C_R   0.839245 0.295010 0.443863 -0.049217
C50   C     C_R   0.153125 0.712880 0.548570 -0.037524
C51   C     C_R   0.160756 0.295011 0.556137 -0.049214
C52   C     C_R   0.846873 0.712879 0.451430 -0.037523
C53   C     C_R   0.270983 0.758651 0.445341 -0.037325
C54   C     C_R   0.720129 0.252206 0.547557 -0.043079
C55   C     C_R   0.729014 0.758648 0.554659 -0.037327
C56   C     C_R   0.279872 0.252207 0.452443 -0.043079
C57   C     C_R   0.770995 0.258639 0.445341 -0.037333
C58   C     C_R   0.220126 0.752207 0.547562 -0.043083
C59   C     C_R   0.229006 0.258640 0.554659 -0.037334
C60   C     C_R   0.779872 0.752205 0.452438 -0.043084
N1    N     N_R   0.480750 1.000000 0.209750 -0.187318
N2    N     N_R   0.519250 0.000000 0.790250 -0.187318
N3    N     N_R   0.980750 0.500000 0.209750 -0.187321
N4    N     N_R   0.019250 0.500000 0.790250 -0.187321
C61   C     C_R   0.464065 0.007034 0.985880 -0.191258
C62   C     C_R   0.535935 0.007033 0.014120 -0.191258
C63   C     C_R   0.964065 0.507036 0.985880 -0.191264
C64   C     C_R   0.035935 0.507037 0.014120 -0.191264
C65   C     C_2   0.343141 0.009862 0.270536 1.092156
O17   O     O_2   0.312194 0.067687 0.298060 -0.549607
O18   O     O_R   0.309339 0.944625 0.310419 -0.723641
H1    H     H_    0.261951 0.952406 0.366801 0.353130
C66   C     C_2   0.656859 0.009858 0.729464 1.092153
O19   O     O_2   0.687806 0.067683 0.701937 -0.549607
O20   O     O_R   0.690660 0.944620 0.689585 -0.723642
H2    H     H_    0.738049 0.952400 0.633202 0.353130
C67   C     C_2   0.843140 0.509844 0.270536 1.092153
O21   O     O_2   0.812190 0.567665 0.298080 -0.549605
O22   O     O_R   0.809342 0.444600 0.310394 -0.723641
H3    H     H_    0.761953 0.452371 0.366778 0.353131
C68   C     C_2   0.156859 0.509846 0.729464 1.092154
O23   O     O_2   0.187810 0.567667 0.701921 -0.549604
O24   O     O_R   0.190658 0.444602 0.689604 -0.723640
H4    H     H_    0.238047 0.452374 0.633220 0.353131
N5    N     N_R   0.612027 0.970527 0.152890 0.217969
O25   O     O_R   0.642223 0.998554 0.231977 -0.339951
O26   O     O_R   0.648131 0.920411 0.090411 -0.294892
N6    N     N_R   0.387972 0.970528 0.847110 0.217970
O27   O     O_R   0.357778 0.998555 0.768023 -0.339952
O28   O     O_R   0.351868 0.920413 0.909590 -0.294892
N7    N     N_R   0.112028 0.470531 0.152889 0.217974
O29   O     O_R   0.142223 0.498558 0.231978 -0.339940
O30   O     O_R   0.148133 0.420417 0.090408 -0.294902
N8    N     N_R   0.887972 0.470531 0.847110 0.217975
O31   O     O_R   0.857777 0.498558 0.768022 -0.339941
O32   O     O_R   0.851867 0.420416 0.909591 -0.294902
C69   C     C_2   0.585959 0.226739 0.634405 1.002543
O33   O     O_2   0.546007 0.278877 0.623673 -0.535634
O34   O     O_R   0.569767 0.182205 0.728396 -0.716267
H5    H     H_    0.529833 0.203647 0.787819 0.384815
C70   C     C_2   0.403608 0.778778 0.354870 1.025118
O35   O     O_2   0.419662 0.819629 0.275149 -0.525773
O36   O     O_R   0.442652 0.713688 0.360088 -0.738206
H6    H     H_    0.481330 0.704548 0.290969 0.386202
C71   C     C_2   0.414042 0.226739 0.365595 1.002544
O37   O     O_2   0.453995 0.278877 0.376329 -0.535635
O38   O     O_R   0.430234 0.182206 0.271604 -0.716267
H7    H     H_    0.470168 0.203647 0.212181 0.384816
C72   C     C_2   0.596388 0.778776 0.645128 1.025123
O39   O     O_2   0.580335 0.819627 0.724850 -0.525773
O40   O     O_R   0.557343 0.713687 0.639908 -0.738204
H8    H     H_    0.518665 0.704547 0.709027 0.386203
C73   C     C_2   0.085961 0.726730 0.634425 1.002570
O41   O     O_2   0.046002 0.778864 0.623703 -0.535638
O42   O     O_R   0.069780 0.682193 0.728414 -0.716274
H9    H     H_    0.029848 0.703629 0.787844 0.384802
C74   C     C_2   0.903625 0.278769 0.354887 1.025127
O43   O     O_2   0.919679 0.319615 0.275160 -0.525759
O44   O     O_R   0.942677 0.213686 0.360124 -0.738202
H10   H     H_    0.981361 0.204545 0.291013 0.386208
C75   C     C_2   0.914037 0.726730 0.365576 1.002568
O45   O     O_2   0.953996 0.778865 0.376299 -0.535638
O46   O     O_R   0.930218 0.682193 0.271587 -0.716273
H11   H     H_    0.970151 0.703630 0.212157 0.384803
C76   C     C_2   0.096376 0.278770 0.645113 1.025126
O47   O     O_2   0.080322 0.319616 0.724841 -0.525759
O48   O     O_R   0.057324 0.213686 0.639876 -0.738203
H12   H     H_    0.018641 0.204546 0.708988 0.386208
C77   C     C_2   0.671427 0.154761 0.247900 1.113694
O49   O     O_2   0.718062 0.121356 0.182757 -0.452279
O50   O     O_R   0.601171 0.169798 0.221504 -0.766361
H13   H     H_    0.593967 0.148250 0.147658 0.357910
C78   C     C_2   0.348014 0.809139 0.745168 1.088083
O51   O     O_2   0.311053 0.798384 0.837498 -0.440646
O52   O     O_R   0.425623 0.812016 0.734622 -0.783496
H14   H     H_    0.442806 0.808117 0.809362 0.379484
C79   C     C_2   0.328574 0.154762 0.752100 1.113695
O53   O     O_2   0.281939 0.121357 0.817243 -0.452279
O54   O     O_R   0.398830 0.169799 0.778495 -0.766361
H15   H     H_    0.406034 0.148251 0.852341 0.357910
C80   C     C_2   0.651984 0.809137 0.254832 1.088083
O55   O     O_2   0.688944 0.798381 0.162503 -0.440647
O56   O     O_R   0.574375 0.812015 0.265379 -0.783495
H16   H     H_    0.557191 0.808116 0.190639 0.379483
C81   C     C_2   0.171416 0.654772 0.247903 1.113689
O57   O     O_2   0.218051 0.621366 0.182762 -0.452284
O58   O     O_R   0.101160 0.669806 0.221506 -0.766354
H17   H     H_    0.093957 0.648257 0.147661 0.357901
C82   C     C_2   0.848004 0.309145 0.745174 1.088087
O59   O     O_2   0.811040 0.298390 0.837501 -0.440646
O60   O     O_R   0.925613 0.312021 0.734635 -0.783490
H18   H     H_    0.942793 0.308120 0.809378 0.379496
C83   C     C_2   0.828583 0.654771 0.752097 1.113691
O61   O     O_2   0.781948 0.621365 0.817239 -0.452281
O62   O     O_R   0.898839 0.669805 0.778493 -0.766355
H19   H     H_    0.906042 0.648258 0.852339 0.357901
C84   C     C_2   0.151997 0.309146 0.254825 1.088087
O63   O     O_2   0.188963 0.298393 0.162498 -0.440645
O64   O     O_R   0.074389 0.312021 0.265363 -0.783490
H20   H     H_    0.057208 0.308119 0.190621 0.379497
N9    N     N_R   0.694587 0.266395 0.752995 0.217004
O65   O     O_R   0.699794 0.205319 0.804965 -0.230109
O66   O     O_R   0.658315 0.320529 0.805927 -0.262065
N10   N     N_R   0.287863 0.754549 0.238516 0.211482
O67   O     O_R   0.334730 0.712322 0.175201 -0.267117
O68   O     O_R   0.267683 0.815657 0.198796 -0.235950
N11   N     N_R   0.305415 0.266398 0.247005 0.217004
O69   O     O_R   0.300208 0.205323 0.195032 -0.230107
O70   O     O_R   0.341688 0.320532 0.194077 -0.262067
N12   N     N_R   0.712129 0.754540 0.761484 0.211481
O71   O     O_R   0.665261 0.712310 0.824790 -0.267122
O72   O     O_R   0.732308 0.815644 0.801215 -0.235949
N13   N     N_R   0.194600 0.766376 0.753003 0.217007
O73   O     O_R   0.199819 0.705298 0.804959 -0.230107
O74   O     O_R   0.158324 0.820502 0.805949 -0.262065
N14   N     N_R   0.787899 0.254509 0.238515 0.211479
O75   O     O_R   0.834774 0.212270 0.175236 -0.267131
O76   O     O_R   0.767721 0.315604 0.198752 -0.235948
N15   N     N_R   0.805398 0.766374 0.246998 0.217007
O77   O     O_R   0.800179 0.705296 0.195041 -0.230107
O78   O     O_R   0.841674 0.820500 0.194050 -0.262066
N16   N     N_R   0.212102 0.254510 0.761484 0.211480
O79   O     O_R   0.165229 0.212271 0.824764 -0.267132
O80   O     O_R   0.232278 0.315606 0.801245 -0.235949
N17   N     N_R   0.670703 0.035035 0.951486 0.246751
O81   O     O_R   0.729240 0.994592 0.918480 -0.217549
O82   O     O_R   0.680501 0.101983 0.979615 -0.270616
N18   N     N_R   0.329297 0.035038 0.048514 0.246751
O83   O     O_R   0.270760 0.994596 0.081520 -0.217547
O84   O     O_R   0.319501 0.101986 0.020384 -0.270617
N19   N     N_R   0.170703 0.535039 0.951484 0.246762
O85   O     O_R   0.229241 0.494600 0.918476 -0.217561
O86   O     O_R   0.180496 0.601986 0.979625 -0.270611
N20   N     N_R   0.829297 0.535038 0.048516 0.246762
O87   O     O_R   0.770759 0.494598 0.081524 -0.217560
O88   O     O_R   0.819503 0.601984 0.020374 -0.270610

loop_
_geom_bond_atom_site_label_1
_geom_bond_atom_site_label_2
_geom_bond_distance
_ccdc_geom_bond_type
C12   C67   1.476863 S    
C6    C28   1.482109 S    
O60   H18   1.014207 S    
C9    C66   1.476863 S    
C68   O23   1.221805 D    
C7    C25   1.475020 S    
N18   O84   1.297919 A    
O2    C2    1.318357 A    
C69   O33   1.222180 D    
C82   O59   1.222144 D    
O13   Zn4   2.030350 S    
C49   C57   1.404583 A    
O20   H2    1.013855 S    
C56   C59   1.421220 A    
C19   C63   1.419483 A    
O14   Zn3   2.030351 S    
C63   C64   1.404557 A    
C51   C59   1.404584 A    
C80   O55   1.222144 D    
C29   C37   1.410166 A    
O36   H6    1.012870 S    
C81   O57   1.221191 D    
N17   O81   1.301989 A    
N6    O27   1.294211 A    
C10   C65   1.476863 S    
C72   O40   1.397518 S    
C74   O44   1.397515 S    
C13   N17   1.437015 S    
C66   O19   1.221806 D    
N16   O80   1.300359 A    
C18   C62   1.419479 A    
C17   C61   1.419479 A    
C11   N4    1.369971 A    
C19   N4    1.373142 A    
C33   N9    1.431584 S    
C69   O34   1.396840 S    
C61   C62   1.404557 A    
N20   O88   1.297918 A    
C50   C58   1.412520 A    
C24   C39   1.410699 A    
O46   H11   1.011688 S    
C46   C54   1.412521 A    
N9    O65   1.300283 A    
C25   C42   1.410956 A    
Zn3   N3    2.063166 S    
C29   C58   1.420315 A    
C15   N19   1.437015 S    
C31   C60   1.420316 A    
C26   C49   1.403560 A    
C32   C40   1.396432 A    
C16   N20   1.437015 S    
C30   N14   1.436989 S    
C10   C14   1.401456 A    
C79   O53   1.221189 D    
O48   H12   1.012869 S    
N6    O28   1.298171 A    
N18   O83   1.301990 A    
C84   O64   1.392664 S    
C54   C57   1.421222 A    
C35   C43   1.410160 A    
C50   C73   1.484699 S    
O50   H13   1.011600 S    
C36   C44   1.396428 A    
C80   O56   1.392665 S    
O3    C3    1.319899 A    
C45   C70   1.480525 S    
C65   O18   1.395598 S    
C32   C59   1.415993 A    
O24   H4    1.013856 S    
C55   C60   1.421214 A    
O4    Zn1   1.960797 S    
O18   H1    1.013855 S    
C38   C77   1.473246 S    
O15   C7    1.313956 A    
C71   O37   1.222179 D    
C74   O43   1.222362 D    
N15   O77   1.300281 A    
O16   C8    1.320051 A    
C36   C55   1.415990 A    
C77   O50   1.394784 S    
C12   N3    1.369972 A    
C82   O60   1.392664 S    
C20   N3    1.373142 A    
C47   C72   1.480523 S    
C33   C41   1.410162 A    
C22   C37   1.410701 A    
C67   O22   1.395602 S    
C67   O21   1.221805 D    
C20   N7    1.430428 S    
N9    O66   1.301116 A    
C16   C63   1.416629 A    
C49   C74   1.480520 S    
C52   C75   1.484698 S    
Zn4   N4    2.063166 S    
O44   H10   1.012868 S    
C36   N12   1.436989 S    
C70   O36   1.397517 S    
N16   O79   1.301705 A    
C76   O48   1.397515 S    
C26   C41   1.410697 A    
C30   C38   1.396432 A    
C78   O52   1.392664 S    
O42   H9    1.011688 S    
C40   C79   1.473245 S    
C17   N6    1.430428 S    
N14   O76   1.300370 A    
C45   C53   1.404576 A    
O58   H17   1.011601 S    
N20   O87   1.301989 A    
C23   C48   1.405807 A    
C28   C43   1.410696 A    
C34   C42   1.396429 A    
C11   C15   1.401457 A    
C83   O61   1.221190 D    
C37   C78   1.494853 S    
C11   C68   1.476862 S    
O64   H20   1.014206 S    
C14   C61   1.416626 A    
N13   O74   1.301116 A    
Zn2   N2    2.063166 S    
O3    Zn2   1.960796 S    
C13   C62   1.416627 A    
C1    C23   1.475022 S    
N12   O71   1.301711 A    
Zn1   N1    2.063166 S    
C39   C80   1.494853 S    
C2    C24   1.482107 S    
C22   C45   1.403566 A    
C34   C53   1.415988 A    
N5    O26   1.298171 A    
C15   C64   1.416628 A    
C4    C22   1.482108 S    
O54   H15   1.011599 S    
C44   C83   1.473238 S    
C53   C58   1.421214 A    
C19   N8    1.430428 S    
O11   C3    1.313952 A    
O12   C4    1.320057 A    
O1    Zn1   1.960796 S    
C9    N2    1.369975 A    
O13   C5    1.313957 A    
N7    O30   1.298172 A    
C71   O38   1.396840 S    
C12   C16   1.401456 A    
C70   O35   1.222363 D    
C83   O62   1.394782 S    
C31   N15   1.431579 S    
O9    Zn2   2.030350 S    
C35   C56   1.420318 A    
C23   C40   1.410954 A    
O9    C1    1.313953 A    
N19   O86   1.297919 A    
N13   O73   1.300282 A    
C10   N1    1.369977 A    
C35   N11   1.431583 S    
C18   N1    1.373141 A    
C73   O41   1.222178 D    
C34   N10   1.436993 S    
C17   N2    1.373140 A    
C47   C55   1.404578 A    
C28   C51   1.403560 A    
C79   O54   1.394784 S    
O38   H7    1.011689 S    
C30   C57   1.415994 A    
C76   O47   1.222363 D    
C27   C44   1.410956 A    
C73   O42   1.396842 S    
C72   O39   1.222361 D    
C68   O24   1.395604 S    
O6    Zn4   1.960797 S    
N12   O72   1.300361 A    
O7    Zn4   1.960796 S    
C46   C69   1.484696 S    
N7    O29   1.294212 A    
O12   Zn2   2.030351 S    
C25   C50   1.405815 A    
O8    Zn3   1.960797 S    
N14   O75   1.301717 A    
C21   C38   1.410955 A    
C51   C76   1.480520 S    
N8    O32   1.298171 A    
O34   H5    1.011689 S    
O15   Zn3   2.030350 S    
C21   C46   1.405807 A    
C48   C56   1.412523 A    
N5    O25   1.294214 A    
O1    C1    1.319897 A    
C43   C84   1.494850 S    
O22   H3    1.013856 S    
O2    Zn2   1.960797 S    
C14   N18   1.437015 S    
O14   C6    1.320049 A    
C18   N5    1.430426 S    
C75   O46   1.396842 S    
C65   O17   1.221804 D    
C8    C26   1.482107 S    
N11   O69   1.300280 A    
C52   C60   1.412521 A    
O62   H19   1.011600 S    
C75   O45   1.222180 D    
O10   Zn1   2.030351 S    
C20   C64   1.419482 A    
C66   O20   1.395600 S    
O7    C7    1.319894 A    
C29   N13   1.431580 S    
O10   C2    1.320054 A    
O16   Zn4   2.030351 S    
O8    C8    1.318360 A    
N10   O68   1.300366 A    
C32   N16   1.436983 S    
N8    O31   1.294212 A    
C27   C52   1.405813 A    
N11   O70   1.301116 A    
O56   H16   1.014208 S    
C41   C82   1.494851 S    
N19   O85   1.301989 A    
O4    C4    1.318355 A    
C3    C21   1.475021 S    
C42   C81   1.473237 S    
C31   C39   1.410164 A    
O11   Zn1   2.030350 S    
C81   O58   1.394784 S    
C84   O63   1.222145 D    
O5    C5    1.319894 A    
O52   H14   1.014207 S    
N15   O78   1.301115 A    
C24   C47   1.403566 A    
N10   O67   1.301721 A    
O5    Zn3   1.960796 S    
C78   O51   1.222144 D    
C77   O49   1.221192 D    
N17   O82   1.297919 A    
C48   C71   1.484696 S    
O40   H8    1.012870 S    
C9    C13   1.401457 A    
C5    C27   1.475021 S    
C33   C54   1.420317 A    
O6    C6    1.318361 A    
