data_mof_unit_32711.cif
_audit_creation_date              2013-03-05T16:30:58-0500
_audit_creation_method            fapswitch 2.2
_symmetry_space_group_name_H-M    P1
_symmetry_Int_Tables_number       1
_space_group_crystal_system       triclinic
_cell_length_a                    12.988621
_cell_length_b                    10.851047
_cell_length_c                    9.550568
_cell_angle_alpha                 90.804313
_cell_angle_beta                  95.878018
_cell_angle_gamma                 90.441004
_cell_volume                      1338.79264076

loop_
_atom_site_label
_atom_site_type_symbol
_atom_site_description
_atom_site_fract_x
_atom_site_fract_y
_atom_site_fract_z
_atom_type_partial_charge
O1    O     O_R   0.500000 0.319640 0.618810 -0.580369
O2    O     O_R   0.500010 0.319680 0.381230 -0.587423
C1    C     C_R   0.497239 0.262482 0.498652 0.794575
O3    O     O_R   0.348990 0.499960 0.599490 -0.594003
O4    O     O_R   0.349000 0.500000 0.361910 -0.593019
C2    C     C_R   0.300572 0.498865 0.473970 0.801204
Cu1   Cu    Cu3+1 0.499990 0.499980 0.640670 0.946786
Cu2   Cu    Cu3+1 0.500010 0.500020 0.359330 0.963326
O5    O     O_R   0.499990 0.680320 0.618770 -0.579287
O6    O     O_R   0.500000 0.680360 0.381190 -0.584080
O7    O     O_R   0.651000 0.500000 0.638090 -0.589292
O8    O     O_R   0.651010 0.500040 0.400510 -0.558553
C3    C     C_R   0.498150 0.737926 0.500277 0.822195
C4    C     C_R   0.699406 0.498950 0.526215 0.831622
C5    C     C_R   0.812144 0.498315 0.542097 -0.061631
C6    C     C_R   0.187862 0.493943 0.459393 -0.047676
C7    C     C_R   0.025202 0.453524 0.318268 -0.158625
C8    C     C_R   0.132595 0.462720 0.329571 -0.200800
C9    C     C_R   0.135124 0.517249 0.577603 -0.258030
C10   C     C_R   0.027785 0.509471 0.566854 0.157743
C11   C     C_R   0.972393 0.476878 0.436303 0.169657
C12   C     C_R   0.864994 0.469396 0.425657 -0.167066
C13   C     C_R   0.867475 0.528668 0.672134 -0.181502
C14   C     C_R   0.974973 0.533900 0.684575 -0.196467
H1    H     H_    0.822521 0.441533 0.326597 0.182628
H2    H     H_    0.827784 0.549974 0.763618 0.170017
H3    H     H_    0.983568 0.428626 0.217548 0.161846
H4    H     H_    0.016611 0.558427 0.785420 0.147332
H5    H     H_    0.172370 0.443740 0.237441 0.149085
H6    H     H_    0.177436 0.541964 0.678041 0.150456
C15   C     C_R   0.472248 0.066310 0.617616 0.123698
C16   C     C_R   0.485424 0.129702 0.494810 -0.096254
C17   C     C_R   0.483627 0.062690 0.367649 -0.211219
H7    H     H_    0.487269 0.108889 0.268448 0.166817
C18   C     C_R   0.484489 0.934095 0.369127 -0.185036
H8    H     H_    0.487975 0.884823 0.270469 0.159117
C19   C     C_R   0.487513 0.871330 0.497751 -0.093498
C20   C     C_R   0.473232 0.939419 0.619456 0.121040
C21   C     C_3   0.531276 0.939612 0.762843 -0.484324
C22   C     C_3   0.529418 0.079085 0.760507 -0.438272
H9    H     H_    0.483662 0.901743 0.842767 0.193273
H10   H     H_    0.610742 0.902209 0.762443 0.209085
H11   H     H_    0.480801 0.120219 0.838008 0.196389
H12   H     H_    0.607458 0.121754 0.759085 0.207467
C23   C     C_R   0.585448 0.539329 0.086324 0.203057
N1    N     N_R   0.500660 0.500930 0.148010 -0.213522
C24   C     C_R   0.420505 0.448808 0.062484 -0.086006
H13   H     H_    0.355380 0.408956 0.108239 0.138388
C25   C     C_R   0.420547 0.448690 0.913753 -0.078418
H14   H     H_    0.355445 0.408638 0.848729 0.140643
N2    N     N_R   0.500660 0.500890 0.852110 -0.182514
C26   C     C_R   0.585174 0.539351 0.938550 0.218942
C27   C     C_3   0.632194 0.664543 0.939522 -0.559589
C28   C     C_3   0.632724 0.665574 0.098604 0.136174
H15   H     H_    0.709601 0.664884 0.899838 0.225050
H16   H     H_    0.576978 0.730332 0.888475 0.183996
H17   H     H_    0.581304 0.735994 0.139469 0.109862
N3    N     N_R   0.737148 0.666426 0.172381 0.153587
O9    O     O_R   0.759042 0.739726 0.280416 -0.356949
O10   O     O_R   0.809837 0.598654 0.128024 -0.411633

loop_
_geom_bond_atom_site_label_1
_geom_bond_atom_site_label_2
_geom_bond_distance
_ccdc_geom_bond_type
O4    Cu2   1.964085 S    
C13   C14   1.389766 A    
C19   C20   1.397678 A    
C24   C25   1.420503 A    
C3    C19   1.455514 S    
C15   C16   1.392852 A    
C15   C20   1.377401 A    
Cu2   O8    1.960435 S    
C28   H17   1.111377 S    
C16   C17   1.404764 A    
C10   C14   1.399026 A    
C9    C10   1.389267 A    
C5    C13   1.403365 A    
C17   H7    1.083187 S    
Cu1   N2    2.018386 S    
Cu1   Cu2   2.686990 S    
C21   H9    1.111556 S    
C8    H5    1.083135 S    
N1    C24   1.369214 A    
C27   C28   1.518516 S    
C15   C22   1.489475 S    
Cu1   O7    1.964088 S    
C1    C16   1.447325 S    
O3    Cu1   1.960435 S    
C11   C12   1.389904 A    
C18   C19   1.410128 A    
O8    C4    1.297135 A    
C23   C28   1.495055 S    
C7    C8    1.390694 A    
C21   H10   1.112340 S    
O2    C1    1.292909 A    
C27   H15   1.110201 S    
C6    C9    1.400282 A    
O4    C2    1.295898 A    
Cu2   O6    1.965068 S    
O7    C4    1.293994 A    
Cu2   N1    2.019270 S    
C13   H2    1.082140 S    
O3    C2    1.295292 A    
C5    C12   1.398659 A    
C2    C6    1.456785 S    
N2    C26   1.363214 A    
C7    H3    1.083812 S    
C24   H13   1.081142 S    
C14   H4    1.083899 S    
C22   H12   1.112555 S    
C20   C21   1.494032 S    
C10   C11   1.413249 A    
C6    C8    1.403402 A    
C25   H14   1.081103 S    
C28   N3    1.462895 S    
C27   H16   1.098954 S    
C21   C22   1.514245 S    
Cu1   O5    1.970941 S    
C25   N2    1.369651 A    
O5    C3    1.298668 A    
C4    C5    1.456685 S    
O1    Cu1   1.965070 S    
C23   C26   1.410971 A    
C17   C18   1.395774 A    
N3    O9    1.300580 A    
C23   N1    1.366101 A    
C9    H6    1.084731 S    
N3    O10   1.302116 A    
O6    C3    1.292371 A    
C22   H11   1.112044 S    
O2    Cu2   1.970941 S    
C18   H8    1.081981 S    
C26   C27   1.484661 S    
O1    C1    1.293892 A    
C12   H1    1.083201 S    
C7    C11   1.399481 A    
