data_mof_unit_34164.cif
_audit_creation_date              2012-12-10T20:55:03-0500
_audit_creation_method            fapswitch 2.2
_symmetry_space_group_name_H-M    P1
_symmetry_Int_Tables_number       1
_space_group_crystal_system       triclinic
_cell_length_a                    15.856539
_cell_length_b                    15.063611
_cell_length_c                    10.598277
_cell_angle_alpha                 88.509041
_cell_angle_beta                  89.671119
_cell_angle_gamma                 89.473331
_cell_volume                      2530.46757112

loop_
_atom_site_label
_atom_site_type_symbol
_atom_type_description
_atom_site_fract_x
_atom_site_fract_y
_atom_site_fract_z
_atom_type_partial_charge
C1    C     C_R   0.338908 0.500411 0.501233 0.893689
C2    C     C_R   0.661134 0.499704 0.499369 0.842593
C3    C     C_R   0.957705 0.421574 0.487033 0.379248
C4    C     C_R   0.044968 0.421657 0.505127 0.286760
C5    C     C_1   0.824193 0.500732 0.493210 0.138798
C6    C     C_1   0.175896 0.502737 0.507024 0.143984
C7    C     C_1   0.250648 0.501635 0.504812 -0.183215
C8    C     C_1   0.749432 0.499588 0.495838 -0.201831
C9    C     C_R   0.433693 0.954742 0.439761 0.040273
C10   C     C_R   0.562066 0.950905 0.567529 0.037548
C11   C     C_R   0.497773 0.905005 0.503839 -0.094984
C12   C     C_R   0.564380 0.045421 0.560610 0.395192
C13   C     C_R   0.434055 0.049328 0.440214 0.387970
C14   C     C_R   0.499310 0.094884 0.500567 -0.216923
C15   C     C_1   0.498877 0.806973 0.501731 0.091325
C16   C     C_1   0.500035 0.192894 0.499978 0.206651
C17   C     C_R   0.515968 0.501224 0.261849 0.936630
C18   C     C_R   0.496885 0.498741 0.742329 0.896797
C19   C     C_R   0.548614 0.669991 0.098505 0.255347
C20   C     C_R   0.433468 0.648092 0.901075 0.251810
C21   C     C_R   0.509849 0.744047 0.039646 -0.218463
C22   C     C_R   0.448785 0.732702 0.947794 -0.212403
C23   C     C_R   0.484569 0.575466 0.944747 -0.022389
C24   C     C_R   0.526492 0.583897 0.058968 -0.023662
C25   C     C_R   0.540396 0.504859 0.129672 -0.380066
C26   C     C_R   0.499679 0.496214 0.878593 -0.320822
C27   C     C_R   0.555481 0.424925 0.067748 0.390973
C28   C     C_R   0.538247 0.421751 0.939864 0.410692
C29   C     C_R   0.954774 0.583600 0.498558 0.288724
C30   C     C_R   0.042840 0.584005 0.505423 0.310248
C31   C     C_R   0.913210 0.502112 0.492200 -0.200786
C32   C     C_R   0.086931 0.502949 0.506750 -0.216848
H1    H     H_    0.525301 0.810608 0.067232 0.155083
H2    H     H_    0.414147 0.790158 0.911762 0.151786
N1    N     N_1   0.500000 0.270550 0.500000 -0.096356
N2    N     N_1   0.500000 0.729450 0.500000 -0.112671
O1    O     O_R   0.378020 0.573650 0.500040 -0.613782
O2    O     O_R   0.621980 0.573650 0.499960 -0.611170
O3    O     O_R   0.378020 0.426320 0.500100 -0.602957
O4    O     O_R   0.621980 0.426320 0.499900 -0.635136
O5    O     O_R   0.500000 0.573680 0.316780 -0.626052
O6    O     O_R   0.500000 0.573680 0.683220 -0.621810
O7    O     O_R   0.500000 0.426350 0.316830 -0.553126
O8    O     O_R   0.500000 0.426350 0.683170 -0.572471
Zn1   Zn    Zn3+2 0.500000 0.598370 0.500000 0.940831
Zn2   Zn    Zn3+2 0.500000 0.401630 0.500000 0.999060
O9    O     O_3   0.577760 0.347006 0.132029 -0.550569
C33   C     C_3   0.660162 0.354327 0.180797 0.123525
H3    H     H_    0.667461 0.413952 0.239431 0.112203
H4    H     H_    0.707459 0.357291 0.103114 0.119651
C34   C     C_3   0.678869 0.272919 0.263712 -0.800741
H5    H     H_    0.672158 0.211614 0.208855 0.237887
H6    H     H_    0.743822 0.275434 0.301229 0.214524
H7    H     H_    0.634172 0.270917 0.344343 0.268228
O10   O     O_3   0.552593 0.342958 0.878314 -0.557683
C35   C     C_3   0.638532 0.336339 0.841884 0.140742
H8    H     H_    0.681309 0.383292 0.889475 0.070434
H9    H     H_    0.643994 0.350212 0.738807 0.174131
C36   C     C_3   0.669958 0.242118 0.868903 -0.774444
H10   H     H_    0.632808 0.194564 0.814100 0.299498
H11   H     H_    0.737518 0.236395 0.842128 0.192377
H12   H     H_    0.663136 0.224956 0.970801 0.264171
C37   C     C_3   0.619937 0.684944 0.189997 -0.359925
C38   C     C_3   0.694659 0.729483 0.123408 -0.940891
H13   H     H_    0.715519 0.689926 0.041678 0.266406
H14   H     H_    0.677729 0.797792 0.090094 0.262722
H15   H     H_    0.747947 0.733694 0.190076 0.257229
H16   H     H_    0.597280 0.727097 0.267921 0.212412
H17   H     H_    0.643749 0.621415 0.232183 0.201642
C39   C     C_3   0.356492 0.635919 0.819216 -0.368030
C40   C     C_3   0.275642 0.657693 0.891611 -0.916544
H18   H     H_    0.273690 0.619697 0.982854 0.273477
H19   H     H_    0.271203 0.729842 0.909806 0.258296
H20   H     H_    0.220299 0.638817 0.835312 0.250617
H21   H     H_    0.361004 0.679446 0.733179 0.215941
H22   H     H_    0.350596 0.566300 0.789281 0.195633
O11   O     O_3   0.086370 0.663239 0.503991 -0.589922
C41   C     C_3   0.088049 0.695977 0.627500 0.160788
H23   H     H_    0.105100 0.643061 0.698547 0.107541
H24   H     H_    0.025557 0.724758 0.652788 0.180826
C42   C     C_3   0.153645 0.768825 0.633126 -0.863282
H25   H     H_    0.137735 0.823470 0.564747 0.256605
H26   H     H_    0.155190 0.795833 0.729571 0.208197
H27   H     H_    0.217008 0.741575 0.609703 0.263314
O12   O     O_3   0.909130 0.661891 0.507780 -0.594173
C43   C     C_3   0.902106 0.702152 0.386608 0.153610
H28   H     H_    0.866502 0.658901 0.322331 0.124046
H29   H     H_    0.965358 0.716379 0.344912 0.170069
C44   C     C_3   0.854577 0.789838 0.397586 -0.862100
H30   H     H_    0.887688 0.833376 0.463873 0.260051
H31   H     H_    0.851234 0.824171 0.303754 0.202974
H32   H     H_    0.789511 0.777698 0.433033 0.257206
O13   O     O_3   0.914435 0.343247 0.469866 -0.613929
C45   C     C_3   0.933629 0.309207 0.349301 0.156812
H33   H     H_    0.901594 0.244376 0.342208 0.142487
H34   H     H_    0.002109 0.295173 0.337240 0.180140
C46   C     C_3   0.902016 0.369872 0.240761 -0.970396
H35   H     H_    0.943873 0.428179 0.228250 0.243257
H36   H     H_    0.902208 0.332869 0.151506 0.226715
H37   H     H_    0.837063 0.393836 0.260366 0.262946
O14   O     O_3   0.089395 0.342565 0.519506 -0.601514
C47   C     C_3   0.086127 0.316312 0.648436 0.136909
H38   H     H_    0.020055 0.302123 0.678533 0.157678
H39   H     H_    0.112495 0.368659 0.709001 0.127602
C48   C     C_3   0.138411 0.232198 0.669544 -0.862068
H40   H     H_    0.204895 0.244238 0.640936 0.257975
H41   H     H_    0.136809 0.212076 0.771065 0.212558
H42   H     H_    0.112363 0.177528 0.613735 0.248976
O15   O     O_3   0.376978 0.097025 0.366285 -0.586858
C49   C     C_3   0.309042 0.125793 0.442085 0.076692
H43   H     H_    0.330338 0.174067 0.512599 0.149218
H44   H     H_    0.278171 0.068895 0.492584 0.119897
C50   C     C_3   0.244066 0.171744 0.357162 -0.772249
H45   H     H_    0.221899 0.125138 0.285194 0.242827
H46   H     H_    0.189098 0.193897 0.413562 0.234176
H47   H     H_    0.272497 0.230613 0.308748 0.270828
O16   O     O_3   0.629931 0.090315 0.615251 -0.614601
C51   C     C_3   0.694814 0.101702 0.524304 0.058057
H48   H     H_    0.670197 0.128245 0.432652 0.142125
H49   H     H_    0.727567 0.037497 0.507142 0.136436
C52   C     C_3   0.759002 0.166917 0.572268 -0.796457
H50   H     H_    0.785770 0.141806 0.663092 0.249790
H51   H     H_    0.810986 0.174683 0.502522 0.219221
H52   H     H_    0.728571 0.232701 0.586050 0.264468
C53   C     C_3   0.363915 0.907206 0.371456 -0.348539
C54   C     C_3   0.394707 0.872543 0.245297 -0.823874
H53   H     H_    0.341648 0.841238 0.195583 0.247173
H54   H     H_    0.444967 0.821861 0.260268 0.252027
H55   H     H_    0.419445 0.927924 0.184956 0.266509
H56   H     H_    0.339778 0.851278 0.431426 0.194040
H57   H     H_    0.308920 0.951508 0.352832 0.228439
C55   C     C_3   0.628582 0.899321 0.642946 -0.360559
C56   C     C_3   0.592069 0.860942 0.766112 -0.827647
H58   H     H_    0.565380 0.914935 0.824041 0.259547
H59   H     H_    0.541994 0.812295 0.747199 0.261978
H60   H     H_    0.642648 0.826318 0.820828 0.248952
H61   H     H_    0.655348 0.845032 0.585583 0.195358
H62   H     H_    0.682401 0.941641 0.668253 0.234125

loop_
_geom_bond_atom_site_label_1
_geom_bond_atom_site_label_2
_ccdc_geom_bond_type
C6    C32   S    
O10   C35   S    
O13   C45   S    
C18   C26   S    
C42   H27   S    
C51   H49   S    
C42   H25   S    
O12   C43   S    
O4    Zn2   S    
C48   H41   S    
C10   C55   S    
O14   C47   S    
C19   C21   A    
C18   O6    A    
C16   N1    T    
C47   H39   S    
C41   H24   S    
C21   H1    S    
C55   H62   S    
C35   H8    S    
C47   C48   S    
C23   C26   A    
C9    C13   A    
C49   H43   S    
O2    Zn1   S    
C13   O15   S    
C46   H36   S    
C51   H48   S    
C30   O11   S    
C11   C15   S    
C53   H56   S    
C33   C34   S    
C37   H17   S    
C19   C37   S    
C55   C56   S    
C52   H52   S    
C56   H60   S    
C23   C24   A    
C39   C40   S    
C44   H31   S    
C29   O12   S    
C1    O1    A    
C50   H47   S    
C33   H4    S    
C36   H10   S    
C1    C7    S    
C13   C14   A    
C20   C39   S    
C45   H33   S    
C42   H26   S    
C28   O10   S    
O8    Zn2   S    
C46   H35   S    
C49   H44   S    
C22   H2    S    
C48   H42   S    
C36   H11   S    
C34   H5    S    
C38   H15   S    
C24   C25   A    
C40   H19   S    
C41   H23   S    
C45   C46   S    
C55   H61   S    
O11   C41   S    
C9    C53   S    
C12   O16   S    
C34   H6    S    
C51   C52   S    
C38   H14   S    
C3    C31   A    
C17   O7    A    
C29   C30   A    
C18   O8    A    
C5    C8    T    
C53   H57   S    
O9    C33   S    
C20   C23   A    
C4    O14   S    
N2    Zn1   S    
C3    O13   S    
C44   H32   S    
C45   H34   S    
C9    C11   A    
C49   C50   S    
C52   H50   S    
C4    C32   A    
C10   C12   A    
O3    Zn2   S    
C33   H3    S    
C12   C14   A    
C39   H22   S    
C53   C54   S    
C14   C16   S    
O1    Zn1   S    
C3    C4    A    
C15   N2    T    
C39   H21   S    
C46   H37   S    
C50   H45   S    
C27   O9    S    
C37   H16   S    
C36   H12   S    
C54   H54   S    
C43   H28   S    
C2    C8    S    
C20   C22   A    
C43   C44   S    
C40   H20   S    
C6    C7    T    
C25   C27   A    
C48   H40   S    
C26   C28   A    
C54   H55   S    
C35   C36   S    
C34   H7    S    
C17   C25   S    
C2    O2    A    
C19   C24   A    
C40   H18   S    
C29   C31   A    
O16   C51   S    
C38   H13   S    
C30   C32   A    
C41   C42   S    
C56   H58   S    
C54   H53   S    
C35   H9    S    
C43   H29   S    
C47   H38   S    
O7    Zn2   S    
C17   O5    A    
C52   H51   S    
C10   C11   A    
C1    O3    A    
C37   C38   S    
C2    O4    A    
O15   C49   S    
C27   C28   A    
C56   H59   S    
O5    Zn1   S    
C5    C31   S    
C44   H30   S    
C21   C22   A    
N1    Zn2   S    
O6    Zn1   S    
C50   H46   S    
