data_mof_unit_42714.cif
_audit_creation_date              2012-12-10T19:46:41-0500
_audit_creation_method            fapswitch 2.2
_symmetry_space_group_name_H-M    P1
_symmetry_Int_Tables_number       1
_space_group_crystal_system       triclinic
_cell_length_a                    12.946819
_cell_length_b                    14.943154
_cell_length_c                    14.219104
_cell_angle_alpha                 91.457449
_cell_angle_beta                  98.465899
_cell_angle_gamma                 91.17522
_cell_volume                      2719.24394108

loop_
_atom_site_label
_atom_site_type_symbol
_atom_type_description
_atom_site_fract_x
_atom_site_fract_y
_atom_site_fract_z
_atom_type_partial_charge
C1    C     C_R   0.504220 0.327628 0.499441 0.960163
C2    C     C_R   0.533574 0.951116 0.507553 -0.116456
C3    C     C_R   0.409561 0.474080 0.092246 0.314284
C4    C     C_R   0.524444 0.580407 0.899695 0.319630
C5    C     C_R   0.416665 0.463098 0.192660 0.484717
C6    C     C_R   0.536284 0.574381 0.801529 0.479510
C7    C     C_R   0.581137 0.540076 0.216155 0.117240
C8    C     C_R   0.460986 0.427719 0.789463 0.118377
C9    C     C_R   0.585173 0.536440 0.116804 -0.048918
C10   C     C_R   0.466249 0.425475 0.889901 -0.045326
C11   C     C_R   0.497602 0.504315 0.053219 0.043709
C12   C     C_R   0.501005 0.671701 0.501239 0.988705
C13   C     C_R   0.496802 0.503225 0.946345 0.045686
C14   C     C_R   0.297667 0.504521 0.480878 0.920921
C15   C     C_R   0.701922 0.495525 0.519787 0.930105
C16   C     C_R   0.814500 0.486293 0.534554 -0.226393
C17   C     C_R   0.184111 0.511183 0.469936 -0.230136
C18   C     C_R   0.013821 0.491354 0.374350 0.093048
C19   C     C_R   0.983194 0.503936 0.632715 0.097902
C20   C     C_R   0.121994 0.504031 0.380140 -0.023102
C21   C     C_R   0.874323 0.499953 0.624914 -0.024164
C22   C     C_R   0.137018 0.522154 0.552861 0.478327
C23   C     C_R   0.520590 0.231788 0.498824 -0.206853
C24   C     C_R   0.863101 0.465235 0.455329 0.472667
C25   C     C_R   0.030243 0.504242 0.548789 -0.094900
C26   C     C_R   0.969000 0.485988 0.458834 -0.090104
C27   C     C_R   0.587211 0.100061 0.580918 0.488901
C28   C     C_R   0.432623 0.910837 0.494521 0.521451
C29   C     C_R   0.580976 0.193142 0.577432 -0.087879
C30   C     C_R   0.422272 0.818073 0.488736 -0.091190
C31   C     C_3   0.795913 0.334580 0.384817 -0.288724
C32   C     C_3   0.208922 0.640725 0.644757 -0.284460
C33   C     C_3   0.571417 0.038995 0.723515 -0.335820
C34   C     C_R   0.511725 0.766943 0.505340 -0.152415
C35   C     C_3   0.316839 0.990628 0.566592 -0.367550
C36   C     C_3   0.527733 0.011565 0.284521 -0.371059
C37   C     C_3   0.759577 0.957632 0.456268 -0.339712
C38   C     C_3   0.250879 0.528439 0.035758 -0.339598
C39   C     C_3   0.458872 0.718160 0.922224 -0.334242
C40   C     C_3   0.297793 0.343321 0.185726 -0.263878
C41   C     C_3   0.677446 0.671580 0.804267 -0.232453
C42   C     C_R   0.479325 0.178838 0.418439 -0.054337
C43   C     C_R   0.612131 0.806221 0.524081 -0.069899
C44   C     C_R   0.495067 0.087219 0.417686 0.498626
C45   C     C_R   0.623754 0.899163 0.522308 0.493788
C46   C     C_R   0.542495 0.047532 0.501252 -0.109811
H1    H     H_    0.751640 0.304235 0.318558 0.183153
H2    H     H_    0.449128 0.295895 0.750741 0.153179
H3    H     H_    0.739532 0.524597 0.110120 0.176548
H4    H     H_    0.696138 0.630936 0.101731 0.207210
H5    H     H_    0.493063 0.295046 0.918011 0.159390
H6    H     H_    0.365616 0.323293 0.907716 0.212543
H7    H     H_    0.847829 0.457855 0.754335 0.175124
H8    H     H_    0.849007 0.570836 0.742473 0.163352
H9    H     H_    0.146066 0.456057 0.250841 0.204217
H10   H     H_    0.139861 0.569162 0.260125 0.160620
H11   H     H_    0.970506 0.432006 0.243546 0.178309
H12   H     H_    0.751312 0.319238 0.443921 0.145056
H13   H     H_    0.959582 0.545554 0.246955 0.154855
H14   H     H_    0.027545 0.565909 0.762236 0.168038
H15   H     H_    0.028324 0.451825 0.762861 0.172165
H16   H     H_    0.524118 0.978161 0.697368 0.159561
H17   H     H_    0.519327 0.094995 0.736490 0.126687
H18   H     H_    0.617294 0.023145 0.793003 0.193570
H19   H     H_    0.369265 0.046777 0.597866 0.160607
H20   H     H_    0.317380 0.935429 0.617915 0.139209
H21   H     H_    0.236358 0.016332 0.554285 0.200044
H22   H     H_    0.716879 0.234522 0.657169 0.205754
H23   H     H_    0.873747 0.303017 0.396743 0.150555
H24   H     H_    0.613056 0.232136 0.716781 0.198818
H25   H     H_    0.273355 0.798066 0.512772 0.190649
H26   H     H_    0.288967 0.795926 0.396943 0.227372
H27   H     H_    0.344750 0.185137 0.327449 0.212094
H28   H     H_    0.454327 0.205078 0.278447 0.195108
H29   H     H_    0.747836 0.760370 0.488575 0.189599
H30   H     H_    0.745738 0.772391 0.606824 0.215362
H31   H     H_    0.572883 0.954897 0.316767 0.165205
H32   H     H_    0.580921 0.068916 0.274050 0.137002
H33   H     H_    0.489028 0.988179 0.213077 0.197876
H34   H     H_    0.259634 0.663848 0.593383 0.165148
H35   H     H_    0.723281 0.018893 0.425132 0.157115
H36   H     H_    0.747052 0.900570 0.403540 0.132277
H37   H     H_    0.844966 0.971403 0.471988 0.195313
H38   H     H_    0.288246 0.591717 0.016549 0.158739
H39   H     H_    0.226266 0.536256 0.107110 0.176409
H40   H     H_    0.179456 0.515620 0.983304 0.186256
H41   H     H_    0.381521 0.685074 0.924434 0.145098
H42   H     H_    0.465868 0.776850 0.972290 0.182144
H43   H     H_    0.462392 0.743624 0.850003 0.193471
H44   H     H_    0.263066 0.301515 0.236698 0.168158
H45   H     H_    0.248428 0.660585 0.717091 0.178022
H46   H     H_    0.359381 0.304074 0.157548 0.149466
H47   H     H_    0.232469 0.356612 0.128553 0.197513
H48   H     H_    0.720699 0.616180 0.842312 0.129009
H49   H     H_    0.671489 0.728600 0.854535 0.196391
H50   H     H_    0.724681 0.695539 0.750606 0.165630
H51   H     H_    0.132407 0.674570 0.633168 0.139276
H52   H     H_    0.659058 0.655852 0.259766 0.151302
H53   H     H_    0.733167 0.563478 0.271248 0.218444
H54   H     H_    0.333869 0.349408 0.742032 0.183646
N1    N     N_R   0.500000 0.499980 0.252470 -0.150200
N2    N     N_3   0.045289 0.508206 0.725358 -0.381001
N3    N     N_3   0.637544 0.248604 0.652481 -0.417131
N4    N     N_3   0.321219 0.775418 0.464495 -0.472998
N5    N     N_3   0.418061 0.217546 0.338311 -0.407164
N6    N     N_3   0.701892 0.750964 0.542249 -0.438728
N7    N     N_R   0.500000 0.500020 0.747530 -0.144872
N8    N     N_3   0.660248 0.588816 0.279071 -0.364447
N9    N     N_3   0.411695 0.355223 0.730844 -0.368384
N10   N     N_3   0.678150 0.564253 0.080608 -0.427174
N11   N     N_3   0.441963 0.344269 0.934703 -0.427193
N12   N     N_3   0.824809 0.509634 0.708413 -0.411898
N13   N     N_3   0.168301 0.512063 0.295138 -0.374572
N14   N     N_3   0.949086 0.486731 0.282981 -0.405024
O1    O     O_R   0.500010 0.369070 0.579480 -0.594195
O2    O     O_3   0.196398 0.546730 0.639277 -0.557189
O3    O     O_3   0.641657 0.061555 0.660327 -0.552066
O4    O     O_3   0.343602 0.961458 0.478406 -0.560836
O5    O     O_3   0.449866 0.035767 0.339318 -0.563858
O6    O     O_3   0.722684 0.938408 0.542218 -0.552939
O7    O     O_3   0.317356 0.455317 0.031928 -0.598572
O8    O     O_3   0.542153 0.660722 0.950771 -0.597833
O9    O     O_3   0.336795 0.423789 0.233588 -0.568781
O10   O     O_3   0.577165 0.645450 0.757081 -0.576024
O11   O     O_R   0.499990 0.630930 0.420520 -0.623085
O12   O     O_R   0.500010 0.369060 0.420520 -0.589542
O13   O     O_R   0.499990 0.630940 0.579480 -0.566712
O14   O     O_R   0.346360 0.499990 0.566340 -0.569817
O15   O     O_R   0.653640 0.500010 0.433660 -0.565429
O16   O     O_R   0.346360 0.499980 0.407390 -0.547631
O17   O     O_R   0.653640 0.500020 0.592610 -0.585113
O18   O     O_3   0.805919 0.427660 0.373249 -0.577278
Zn1   Zn    Zn3+2 0.500000 0.500010 0.606140 1.026777
Zn2   Zn    Zn3+2 0.500000 0.499990 0.393860 1.024875

loop_
_geom_bond_atom_site_label_1
_geom_bond_atom_site_label_2
_ccdc_geom_bond_type
O11   Zn2   S    
H25   N4    S    
C33   O3    S    
C16   C21   A    
C27   C29   A    
C18   C26   A    
H22   N3    S    
C6    O10   S    
C40   H47   S    
C18   N14   S    
C14   O14   A    
C12   O13   A    
N1    Zn2   S    
C2    C46   S    
H53   N8    S    
C39   O8    S    
C38   H40   S    
C23   C29   A    
C31   H12   S    
C19   C21   A    
C24   C26   A    
C36   H31   S    
H13   N14   S    
C20   N13   S    
C19   N2    S    
C32   H45   S    
C35   H19   S    
C15   C16   S    
H4    N10   S    
C17   C20   A    
H52   N8    S    
C32   H51   S    
C29   N3    S    
C4    C13   A    
C36   O5    S    
C33   H16   S    
C22   C25   A    
H5    N11   S    
H10   N13   S    
C39   H41   S    
C33   H17   S    
C22   O2    S    
H2    N9    S    
H54   N9    S    
C16   C24   A    
C31   H1    S    
C14   C17   S    
C37   H35   S    
O16   Zn2   S    
C42   C44   A    
C39   H42   S    
H14   N2    S    
C44   C46   A    
C27   O3    S    
C2    C45   A    
C5    N1    A    
C30   C34   A    
C38   H39   S    
H8    N12   S    
C1    O12   A    
C4    C6    A    
H24   N3    S    
C15   O17   A    
C12   O11   A    
H26   N4    S    
H6    N11   S    
C3    C5    A    
C25   C26   A    
C44   O5    S    
C10   C13   A    
C40   H46   S    
C43   N6    S    
C31   O18   S    
C32   H34   S    
C43   C45   A    
C24   O18   S    
H27   N5    S    
C41   H48   S    
C15   O15   A    
C35   H21   S    
C6    N7    A    
C4    O8    S    
C10   N11   S    
C32   O2    S    
C23   C42   A    
O1    Zn1   S    
C27   C46   A    
C1    C23   S    
C9    C11   A    
C37   H36   S    
C12   C34   S    
C8    N7    A    
C21   N12   S    
C41   O10   S    
C14   O16   A    
C9    N10   S    
C7    C9    A    
C40   O9    S    
H30   N6    S    
C38   H38   S    
C34   C43   A    
O13   Zn1   S    
O17   Zn1   S    
C36   H33   S    
H11   N14   S    
H7    N12   S    
H9    N13   S    
C5    O9    S    
C17   C22   A    
C35   H20   S    
C28   C30   A    
H15   N2    S    
N7    Zn1   S    
C36   H32   S    
C8    N9    S    
H28   N5    S    
C11   C13   S    
C41   H49   S    
C37   O6    S    
C33   H18   S    
C18   C20   A    
C19   C25   A    
C42   N5    S    
C38   O7    S    
C3    C11   A    
O15   Zn2   S    
C41   H50   S    
C31   H23   S    
C45   O6    S    
O12   Zn2   S    
H29   N6    S    
C8    C10   A    
C7    N1    A    
C30   N4    S    
C28   O4    S    
C7    N8    S    
C37   H37   S    
C35   O4    S    
C2    C28   A    
C1    O1    A    
C40   H44   S    
O14   Zn1   S    
C39   H43   S    
C3    O7    S    
H3    N10   S    
