data_mof_unit_64842.cif
_audit_creation_date              2012-12-10T19:55:05-0500
_audit_creation_method            fapswitch 2.2
_symmetry_space_group_name_H-M    P1
_symmetry_Int_Tables_number       1
_space_group_crystal_system       triclinic
_cell_length_a                    14.153503
_cell_length_b                    14.990692
_cell_length_c                    16.797678
_cell_angle_alpha                 89.921483
_cell_angle_beta                  83.869557
_cell_angle_gamma                 89.952443
_cell_volume                      3543.5915216

loop_
_atom_site_label
_atom_site_type_symbol
_atom_type_description
_atom_site_fract_x
_atom_site_fract_y
_atom_site_fract_z
_atom_type_partial_charge
C1    C     C_R   0.500105 0.671681 0.498810 0.842517
C2    C     C_R   0.426592 0.185916 0.474381 -0.205833
C3    C     C_R   0.522001 0.902202 0.568217 -0.134175
C4    C     C_R   0.426569 0.093962 0.473036 -0.140370
C5    C     C_R   0.500623 0.950516 0.501134 0.021110
C6    C     C_R   0.499993 0.047028 0.503692 0.029199
C7    C     C_R   0.887967 0.439888 0.550270 0.392663
C8    C     C_R   0.112267 0.442735 0.447626 0.392484
C9    C     C_R   0.788809 0.442429 0.548562 -0.124701
C10   C     C_R   0.211437 0.445180 0.449138 -0.149392
C11   C     C_R   0.801833 0.557165 0.451507 0.738340
C12   C     C_R   0.499691 0.327706 0.502989 0.851503
C13   C     C_R   0.198012 0.554014 0.551349 0.745637
C14   C     C_R   0.901516 0.558359 0.449930 0.283947
C15   C     C_R   0.098279 0.555121 0.553254 0.281062
C16   C     C_R   0.485709 0.501064 0.653138 0.899158
C17   C     C_R   0.514237 0.502498 0.346938 0.903333
C18   C     C_R   0.946667 0.498783 0.500114 -0.252048
C19   C     C_R   0.053344 0.498648 0.500497 -0.239280
C20   C     C_R   0.473932 0.520846 0.737867 -0.274197
C21   C     C_R   0.525270 0.511838 0.260677 -0.296772
C22   C     C_R   0.528220 0.591054 0.763776 -0.307523
C23   C     C_R   0.479270 0.906639 0.431735 -0.110444
C24   C     C_R   0.467089 0.459859 0.217100 -0.312719
C25   C     C_R   0.516743 0.618007 0.843602 0.451053
C26   C     C_R   0.472346 0.468191 0.134059 0.457749
C27   C     C_R   0.450489 0.573099 0.897233 -0.220867
C28   C     C_R   0.536606 0.529756 0.095527 -0.220905
C29   C     C_R   0.391372 0.507083 0.870650 0.666290
C30   C     C_R   0.598039 0.578848 0.138192 0.661260
C31   C     C_R   0.403276 0.479226 0.791244 0.355809
C32   C     C_R   0.591421 0.572495 0.221117 0.348597
C33   C     C_2   0.457682 0.578909 0.982611 0.644463
C34   C     C_R   0.571925 0.092198 0.538048 -0.125301
C35   C     C_2   0.536095 0.546640 0.010608 0.617924
C36   C     C_R   0.477976 0.814373 0.428904 0.460755
C37   C     C_R   0.570213 0.184250 0.543409 0.454441
C38   C     C_R   0.500292 0.766631 0.497044 -0.121543
C39   C     C_R   0.498821 0.231612 0.508052 -0.162235
C40   C     C_R   0.522790 0.810317 0.565770 -0.180104
F1    F     F_    0.759044 0.614108 0.403913 -0.574713
F2    F     F_    0.240766 0.607635 0.601666 -0.578609
F3    F     F_    0.613858 0.522475 0.960391 -0.602405
F4    F     F_    0.379060 0.600160 0.033012 -0.588655
F5    F     F_    0.328149 0.463650 0.923683 -0.525342
F6    F     F_    0.659690 0.638048 0.099647 -0.534920
H1    H     H_    0.579446 0.625034 0.721633 0.176518
H2    H     H_    0.369465 0.059539 0.447803 0.167721
H3    H     H_    0.993225 0.383205 0.597741 0.364391
H4    H     H_    0.007156 0.388676 0.398175 0.366214
H5    H     H_    0.019773 0.613268 0.402267 0.361738
H6    H     H_    0.979745 0.606894 0.603805 0.359173
H7    H     H_    0.616035 0.640554 0.315157 0.359915
H8    H     H_    0.376586 0.382915 0.718923 0.329910
H9    H     H_    0.374569 0.378346 0.125790 0.365210
H10   H     H_    0.614959 0.708894 0.826134 0.357009
H11   H     H_    0.460172 0.709208 0.363058 0.321352
H12   H     H_    0.417421 0.413078 0.247919 0.181110
H13   H     H_    0.608937 0.278235 0.611633 0.333246
H14   H     H_    0.744178 0.397783 0.586688 0.219960
H15   H     H_    0.256285 0.402613 0.409114 0.198725
H16   H     H_    0.464269 0.944130 0.379318 0.175070
H17   H     H_    0.628638 0.055878 0.562255 0.174769
H18   H     H_    0.539284 0.773088 0.617949 0.156165
H19   H     H_    0.370855 0.221296 0.447921 0.184316
H20   H     H_    0.536957 0.935448 0.622694 0.164691
N1    N     N_R   0.747530 0.500020 0.500000 -0.225892
N2    N     N_R   0.252470 0.499980 0.500000 -0.218504
O1    O     O_R   0.420520 0.630930 0.499990 -0.567413
O2    O     O_3   0.077250 0.385089 0.393760 -0.698896
O3    O     O_3   0.950745 0.618617 0.398755 -0.639456
O4    O     O_3   0.048778 0.612169 0.607283 -0.649846
O5    O     O_3   0.647329 0.629261 0.260644 -0.600685
O6    O     O_3   0.347723 0.409328 0.769738 -0.653120
O7    O     O_3   0.415619 0.417732 0.089398 -0.658491
O8    O     O_3   0.571555 0.685048 0.871420 -0.672557
O9    O     O_3   0.456233 0.774820 0.358801 -0.720850
O10   O     O_3   0.637817 0.224648 0.584506 -0.724450
O11   O     O_R   0.579480 0.369070 0.500010 -0.601950
O12   O     O_R   0.579480 0.630940 0.499990 -0.578345
O13   O     O_R   0.420520 0.369060 0.500010 -0.626627
O14   O     O_R   0.411130 0.500010 0.615800 -0.557577
O15   O     O_R   0.588870 0.499990 0.384200 -0.565467
O16   O     O_R   0.570080 0.500020 0.615800 -0.624044
O17   O     O_R   0.429920 0.499980 0.384200 -0.618134
O18   O     O_3   0.923183 0.379204 0.601643 -0.681106
Zn1   Zn    Zn3+2 0.393860 0.499990 0.500000 1.025502
Zn2   Zn    Zn3+2 0.606140 0.500010 0.500000 1.024460

loop_
_geom_bond_atom_site_label_1
_geom_bond_atom_site_label_2
_ccdc_geom_bond_type
C30   C32   A    
H10   O8    S    
C27   C29   A    
C34   C37   A    
C14   O3    S    
C14   C18   A    
C2    H19   S    
C27   C33   S    
C15   C19   A    
C15   O4    S    
N1    Zn2   S    
C17   O17   A    
C24   C26   A    
C36   O9    S    
C5    C6    S    
C11   C14   A    
C7    O18   S    
O14   Zn1   S    
C12   O11   A    
C16   O16   A    
C18   C19   S    
C13   F2    S    
H8    O6    S    
C2    C39   A    
C23   H16   S    
C28   C35   S    
C22   C25   A    
C35   F3    S    
O1    Zn1   S    
H9    O7    S    
O15   Zn2   S    
O12   Zn2   S    
H5    O3    S    
H13   O10   S    
O11   Zn2   S    
C11   N1    A    
O17   Zn1   S    
C21   C32   A    
C8    C19   A    
H11   O9    S    
C4    C6    A    
C32   O5    S    
C31   O6    S    
C17   C21   S    
C6    C34   A    
C29   F5    S    
C17   O15   A    
C2    C4    A    
C9    N1    A    
H6    O4    S    
C5    C23   A    
C16   C20   S    
C7    C18   A    
C16   O14   A    
C26   O7    S    
O13   Zn1   S    
C1    C38   S    
C24   H12   S    
C20   C22   A    
C3    C40   A    
C13   C15   A    
C10   H15   S    
C4    H2    S    
C7    C9    A    
C33   F4    S    
C8    O2    S    
H3    O18   S    
C30   F6    S    
C8    C10   A    
H7    O5    S    
O16   Zn2   S    
C3    C5    A    
C10   N2    A    
C25   C27   A    
C37   O10   S    
C26   C28   A    
C40   H18   S    
C9    H14   S    
C25   O8    S    
C12   C39   S    
C28   C30   A    
H4    O2    S    
C37   C39   A    
C38   C40   A    
C22   H1    S    
C36   C38   A    
C34   H17   S    
C33   C35   D    
C12   O13   A    
C11   F1    S    
C1    O1    A    
C3    H20   S    
C29   C31   A    
C23   C36   A    
C21   C24   A    
N2    Zn1   S    
C1    O12   A    
C20   C31   A    
C13   N2    A    
