data_mof_unit_42219.cif
_audit_creation_date              2012-12-10T17:36:22-0500
_audit_creation_method            fapswitch 2.2
_symmetry_space_group_name_H-M    P1
_symmetry_Int_Tables_number       1
_space_group_crystal_system       triclinic
_cell_length_a                    12.387117
_cell_length_b                    13.171094
_cell_length_c                    15.834204
_cell_angle_alpha                 76.820978
_cell_angle_beta                  100.965733
_cell_angle_gamma                 116.766692
_cell_volume                      2234.39989048

loop_
_atom_site_label
_atom_site_type_symbol
_atom_type_description
_atom_site_fract_x
_atom_site_fract_y
_atom_site_fract_z
_atom_type_partial_charge
C1    C     C_R   0.855111 0.286554 0.506901 0.816176
C2    C     C_3   0.067025 0.429653 0.071963 -0.375414
C3    C     C_3   0.000825 0.500847 0.082808 0.329418
C4    C     C_3   0.066754 0.625838 0.035282 -0.374294
C5    C     C_3   0.066805 0.626322 0.937370 -0.382557
C6    C     C_1   0.000789 0.500459 0.175105 -0.116836
C7    C     C_1   0.001035 0.502058 0.824689 -0.099498
C8    C     C_1   0.001099 0.502066 0.749039 -0.136428
C9    C     C_R   0.278241 0.026276 0.386971 -0.195723
C10   C     C_R   0.228408 0.835847 0.470746 -0.042422
C11   C     C_R   0.813768 0.082769 0.562671 -0.180715
C12   C     C_R   0.000978 0.501526 0.659361 0.874902
C13   C     C_R   0.734108 0.967340 0.580185 -0.141201
C14   C     C_R   0.611416 0.930883 0.550769 -0.182142
C15   C     C_R   0.566131 0.009433 0.499525 0.083563
C16   C     C_R   0.650462 0.124481 0.473176 0.094912
C17   C     C_R   0.440225 0.977353 0.472604 0.070285
C18   C     C_R   0.402088 0.056809 0.413953 0.164552
C19   C     C_R   0.488066 0.164615 0.380846 -0.247528
C20   C     C_R   0.610440 0.197203 0.408650 -0.208081
C21   C     C_R   0.350657 0.868637 0.502443 -0.255234
C22   C     C_R   0.191732 0.915863 0.414702 -0.200514
C23   C     C_R   0.144995 0.713642 0.487641 0.777575
C24   C     C_R   0.772898 0.162993 0.511373 -0.090793
C25   C     C_R   0.303946 0.283464 0.587894 -0.277306
C26   C     C_R   0.772527 0.662186 0.396595 0.080593
C27   C     C_R   0.683743 0.703431 0.377638 -0.259070
C28   C     C_R   0.573979 0.640998 0.414175 -0.172025
C29   C     C_R   0.550256 0.534505 0.469163 -0.041382
C30   C     C_R   0.644152 0.494503 0.488206 0.214879
C31   C     C_R   0.437219 0.466803 0.507191 -0.036084
C32   C     C_R   0.410309 0.351783 0.547011 0.114773
C33   C     C_R   0.493978 0.307760 0.552583 -0.266992
C34   C     C_R   0.000347 0.500309 0.340484 0.808392
C35   C     C_R   0.614072 0.382545 0.540870 0.273297
C36   C     C_R   0.348778 0.507016 0.507868 0.034805
C37   C     C_R   0.224088 0.329463 0.589968 0.081474
C38   C     C_3   0.067081 0.430130 0.974055 -0.379110
C39   C     C_3   0.868816 0.448029 0.941350 -0.354104
C40   C     C_3   0.868753 0.447540 0.039271 -0.387993
C41   C     C_1   0.000691 0.500305 0.250787 -0.176072
C42   C     C_3   0.000933 0.501665 0.916964 0.316078
Cu1   Cu    Cu3+1 0.098280 0.475420 0.519630 0.937671
Cu2   Cu    Cu3+1 0.901720 0.524580 0.480370 0.959118
H1    H     H_    0.021216 0.339288 0.105540 0.161222
H2    H     H_    0.162431 0.467063 0.957785 0.163143
H3    H     H_    0.162345 0.466372 0.102694 0.163193
H4    H     H_    0.020756 0.678831 0.042075 0.161168
H5    H     H_    0.097337 0.891689 0.389474 0.143181
H6    H     H_    0.460673 0.224185 0.333027 0.144983
H7    H     H_    0.248763 0.086668 0.342191 0.132716
H8    H     H_    0.373482 0.806437 0.549639 0.147239
H9    H     H_    0.907117 0.109655 0.591329 0.144025
H10   H     H_    0.555257 0.840160 0.567716 0.127110
H11   H     H_    0.766958 0.906071 0.619310 0.142107
H12   H     H_    0.021294 0.339989 0.960629 0.165424
H13   H     H_    0.673052 0.279289 0.377080 0.168210
H14   H     H_    0.140631 0.276054 0.619934 0.122788
H15   H     H_    0.472025 0.219899 0.585656 0.187571
H16   H     H_    0.283645 0.195533 0.619420 0.137701
H17   H     H_    0.358743 0.591394 0.474800 0.118355
H18   H     H_    0.857662 0.712232 0.368167 0.121175
H19   H     H_    0.507568 0.676058 0.396274 0.134323
H20   H     H_    0.700245 0.784459 0.334467 0.140854
H21   H     H_    0.819297 0.498051 0.901197 0.171593
H22   H     H_    0.819484 0.358219 0.927310 0.175965
H23   H     H_    0.819395 0.357490 0.072254 0.163231
H24   H     H_    0.819193 0.497325 0.046133 0.164060
H25   H     H_    0.162147 0.666790 0.920431 0.162803
H26   H     H_    0.020811 0.679524 0.897159 0.163519
H27   H     H_    0.162073 0.666069 0.065347 0.162051
N1    N     N_R   0.246300 0.438200 0.549400 -0.183904
N2    N     N_R   0.754300 0.561180 0.451130 -0.198087
O1    O     O_R   0.972520 0.318130 0.524690 -0.596135
O2    O     O_R   0.806530 0.359650 0.491530 -0.558452
O3    O     O_R   0.083030 0.479240 0.637150 -0.583836
O4    O     O_R   0.917040 0.520750 0.603990 -0.525879
O5    O     O_R   0.193470 0.640350 0.508470 -0.593028
O6    O     O_R   0.027480 0.681870 0.475310 -0.596594
O7    O     O_R   0.082960 0.479250 0.396010 -0.571751
O8    O     O_R   0.916970 0.520760 0.362850 -0.591414
Br1   Br    Br    0.703827 0.338651 0.643974 -0.543576

loop_
_geom_bond_atom_site_label_1
_geom_bond_atom_site_label_2
_ccdc_geom_bond_type
C5    C42   S    
Cu1   N1    S    
C19   C20   A    
C9    H7    S    
C3    C6    S    
C7    C8    T    
C10   C22   A    
Cu1   O5    S    
C26   C27   A    
C5    H26   S    
C30   C35   A    
C1    O1    A    
Cu2   O4    S    
C38   C42   S    
C9    C22   A    
C15   C16   A    
C11   C24   A    
C26   N2    A    
C18   C19   A    
C7    C42   S    
C5    H25   S    
C34   O7    A    
C6    C41   T    
C34   O8    A    
C37   H14   S    
C11   H9    S    
C8    C12   S    
C25   C37   A    
Cu1   O1    S    
C33   H15   S    
C13   C14   A    
C39   H21   S    
C34   C41   S    
C35   Br1   S    
C39   C42   S    
C10   C21   A    
C1    O2    A    
Cu2   O8    S    
C27   H20   S    
C39   C40   S    
C30   N2    A    
Cu1   O7    S    
C40   H23   S    
C17   C21   A    
Cu2   O2    S    
Cu1   Cu2   S    
C29   C30   A    
C2    C38   S    
C31   C32   A    
C16   C20   A    
C12   O4    A    
C17   C18   A    
C22   H5    S    
C25   H16   S    
C3    C40   S    
C12   O3    A    
C2    H3    S    
C39   H22   S    
C3    C4    S    
C4    H4    S    
Cu1   O3    S    
C15   C17   A    
C28   C29   A    
C14   H10   S    
C31   C36   A    
Cu2   O6    S    
C4    C5    S    
C10   C23   S    
C32   C33   A    
C2    C3    S    
C26   H18   S    
C29   C31   A    
C11   C13   A    
C19   H6    S    
C25   C32   A    
C33   C35   A    
C4    H27   S    
C23   O5    A    
Cu2   N2    S    
C38   H2    S    
C2    H1    S    
C28   H19   S    
C36   N1    A    
C9    C18   A    
C38   H12   S    
C1    C24   S    
C16   C24   A    
C40   H24   S    
C37   N1    A    
C27   C28   A    
C14   C15   A    
C23   O6    A    
C20   H13   S    
C21   H8    S    
C36   H17   S    
C13   H11   S    
