data_mof_unit_22893.cif
_audit_creation_date              2012-12-11T15:07:00-0500
_audit_creation_method            fapswitch 2.2
_symmetry_space_group_name_H-M    P1
_symmetry_Int_Tables_number       1
_space_group_crystal_system       triclinic
_cell_length_a                    19.794156
_cell_length_b                    11.295876
_cell_length_c                    18.711112
_cell_angle_alpha                 89.882625
_cell_angle_beta                  90.133517
_cell_angle_gamma                 90.00203
_cell_volume                      4183.64102074

loop_
_atom_site_label
_atom_site_type_symbol
_atom_type_description
_atom_site_fract_x
_atom_site_fract_y
_atom_site_fract_z
_atom_type_partial_charge
C1    C     C_R   0.761517 0.523449 0.639004 0.532597
C2    C     C_3   0.253502 0.056249 0.562619 0.065813
C3    C     C_R   0.740112 0.035818 0.152081 0.531329
C4    C     C_R   0.775583 0.135796 0.859808 0.582857
C5    C     C_R   0.224359 0.136106 0.140100 0.581549
C6    C     C_R   0.275584 0.635798 0.859808 0.582864
C7    C     C_R   0.724359 0.636108 0.140099 0.581548
C8    C     C_R   0.967331 0.352799 0.854532 0.554131
C9    C     C_R   0.032630 0.352914 0.145516 0.553121
C10   C     C_R   0.467328 0.852799 0.854534 0.554131
C11   C     C_R   0.532631 0.852914 0.145516 0.553122
C12   C     C_3   0.692135 0.145918 0.463197 -0.244817
C13   C     C_3   0.247127 0.559529 0.436176 0.064243
C14   C     C_3   0.314546 0.126990 0.532634 -0.235429
C15   C     C_3   0.192135 0.645918 0.463197 -0.244818
C16   C     C_3   0.814546 0.626989 0.532634 -0.235429
C17   C     C_3   0.694263 0.149380 0.545119 -0.231893
C18   C     C_3   0.312431 0.129313 0.450630 -0.237371
C19   C     C_3   0.194263 0.649380 0.545119 -0.231894
C20   C     C_3   0.812431 0.629313 0.450630 -0.237371
C21   C     C_3   0.744183 0.943726 0.481183 -0.227793
C22   C     C_3   0.240164 0.939128 0.520119 -0.217784
C23   C     C_3   0.244183 0.443726 0.481183 -0.227794
C24   C     C_3   0.753503 0.556249 0.562619 0.065813
C25   C     C_3   0.740164 0.439128 0.520119 -0.217784
C26   C     C_3   0.760922 0.092188 0.573767 0.065546
C27   C     C_3   0.241620 0.087704 0.424484 0.063298
C28   C     C_3   0.260923 0.592189 0.573767 0.065546
C29   C     C_3   0.741620 0.587704 0.424484 0.063298
C30   C     C_3   0.753827 0.960297 0.562025 -0.258793
C31   C     C_3   0.236900 0.956333 0.438896 -0.256584
C32   C     C_3   0.253827 0.460297 0.562025 -0.258793
C33   C     C_R   0.238851 0.525013 0.360273 0.532249
C34   C     C_3   0.736900 0.456333 0.438895 -0.256584
C35   C     C_3   0.824310 0.130360 0.530041 -0.216897
C36   C     C_3   0.186188 0.150286 0.468482 -0.220992
C37   C     C_3   0.324311 0.630361 0.530041 -0.216897
C38   C     C_3   0.686188 0.650285 0.468482 -0.220992
C39   C     C_3   0.994254 0.203775 0.456948 -0.240238
C40   C     C_3   0.992650 0.203885 0.539610 -0.232831
C41   C     C_3   0.494254 0.703775 0.456948 -0.240239
C42   C     C_3   0.492650 0.703885 0.539610 -0.232831
C43   C     C_3   0.067156 0.385381 0.473579 -0.222375
C44   C     C_R   0.261517 0.023450 0.639004 0.532598
C45   C     C_3   0.936550 0.410245 0.525506 -0.214583
C46   C     C_3   0.567157 0.885380 0.473580 -0.222378
C47   C     C_3   0.436550 0.910245 0.525506 -0.214583
C48   C     C_3   0.945227 0.403761 0.444558 -0.254426
C49   C     C_3   0.056967 0.387551 0.554729 -0.260053
C50   C     C_3   0.445228 0.903762 0.444558 -0.254424
C51   C     C_3   0.556967 0.887553 0.554729 -0.260053
C52   C     C_3   0.008100 0.331517 0.429866 0.061846
C53   C     C_3   0.988285 0.332914 0.568405 0.064135
C54   C     C_3   0.508100 0.831517 0.429866 0.061846
C55   C     C_R   0.738851 0.025013 0.360273 0.532249
C56   C     C_3   0.488285 0.832914 0.568405 0.064136
C57   C     C_3   0.815787 0.017723 0.046362 -0.237311
C58   C     C_3   0.184232 0.017808 0.953712 -0.237444
C59   C     C_3   0.315787 0.517723 0.046363 -0.237309
C60   C     C_3   0.684231 0.517812 0.953712 -0.237437
C61   C     C_R   0.774690 0.122154 0.649114 0.542773
C62   C     C_R   0.226876 0.118493 0.349184 0.539285
C63   C     C_R   0.274690 0.622154 0.649114 0.542775
C64   C     C_R   0.726876 0.618492 0.349184 0.539285
C65   C     C_3   0.820675 0.032110 0.966822 -0.266579
C66   C     C_3   0.815142 0.117687 0.449309 -0.251318
C67   C     C_3   0.179340 0.032343 0.033236 -0.266190
C68   C     C_3   0.320679 0.532120 0.966823 -0.266574
C69   C     C_3   0.679341 0.532344 0.033236 -0.266189
C70   C     C_3   0.686181 0.035236 0.032465 -0.195928
C71   C     C_3   0.313803 0.035364 0.967661 -0.195853
C72   C     C_3   0.186183 0.535233 0.032465 -0.195929
C73   C     C_3   0.813803 0.535365 0.967662 -0.195854
C74   C     C_3   0.757541 0.206734 0.063355 -0.278728
C75   C     C_3   0.242465 0.206745 0.936159 -0.278285
C76   C     C_3   0.257542 0.706736 0.063353 -0.278734
C77   C     C_3   0.191968 0.133646 0.549752 -0.258318
C78   C     C_3   0.742467 0.706745 0.936158 -0.278285
C79   C     C_3   0.749690 0.073774 0.076001 0.030892
C80   C     C_3   0.250314 0.073759 0.923934 0.030479
C81   C     C_3   0.249691 0.573775 0.076001 0.030888
C82   C     C_3   0.750315 0.573759 0.923934 0.030481
C83   C     C_3   0.761733 0.108477 0.937068 0.082189
C84   C     C_3   0.238252 0.108828 0.062827 0.082484
C85   C     C_3   0.261734 0.608478 0.937068 0.082188
C86   C     C_3   0.738251 0.608830 0.062826 0.082483
C87   C     C_3   0.698177 0.034923 0.950271 0.063554
C88   C     C_3   0.315142 0.617688 0.449309 -0.251318
C89   C     C_3   0.301813 0.035286 0.049852 0.064134
C90   C     C_3   0.198180 0.534916 0.950271 0.063555
C91   C     C_3   0.801813 0.535287 0.049853 0.064134
C92   C     C_3   0.752395 0.225941 0.981227 -0.227087
C93   C     C_3   0.247546 0.226188 0.018242 -0.227464
C94   C     C_3   0.252393 0.725943 0.981225 -0.227104
C95   C     C_3   0.747546 0.726190 0.018241 -0.227463
C96   C     C_3   0.013727 0.474496 0.037086 -0.214259
C97   C     C_3   0.986249 0.474407 0.962679 -0.213698
C98   C     C_3   0.513727 0.974494 0.037086 -0.214259
C99   C     C_3   0.691968 0.633646 0.549752 -0.258319
C100  C     C_3   0.486246 0.974403 0.962680 -0.213709
C101  C     C_3   0.063533 0.271444 0.026184 -0.234292
C102  C     C_3   0.936369 0.271393 0.974142 -0.234831
C103  C     C_3   0.563532 0.771444 0.026185 -0.234293
C104  C     C_3   0.436369 0.771384 0.974147 -0.234828
C105  C     C_3   0.942285 0.294486 0.055715 -0.257737
C106  C     C_3   0.057617 0.294283 0.944540 -0.257719
C107  C     C_3   0.442285 0.794482 0.055718 -0.257736
C108  C     C_3   0.557615 0.794281 0.944541 -0.257720
C109  C     C_R   0.968539 0.342154 0.644609 0.541215
C110  C     C_3   0.747127 0.059528 0.436176 0.064243
C111  C     C_R   0.029320 0.341653 0.354002 0.538428
C112  C     C_R   0.468539 0.842154 0.644609 0.541215
C113  C     C_R   0.529321 0.841653 0.354002 0.538429
C114  C     C_3   0.012381 0.348648 0.068989 0.053880
C115  C     C_3   0.987546 0.348461 0.931101 0.053582
C116  C     C_3   0.512381 0.848647 0.068990 0.053881
C117  C     C_3   0.487543 0.848458 0.931103 0.053580
C118  C     C_R   0.759909 0.535681 0.847929 0.532051
C119  C     C_R   0.240112 0.535818 0.152081 0.531327
C120  C     C_R   0.259909 0.035681 0.847929 0.532050
Cl1   Cl    Cl    0.628447 0.094516 0.901341 -0.710687
Cl2   Cl    Cl    0.371574 0.095030 0.098535 -0.711211
Cl3   Cl    Cl    0.128450 0.594492 0.901337 -0.710697
Cl4   Cl    Cl    0.871574 0.595033 0.098535 -0.711211
Cr1   Cr    Cr6+3 0.885690 0.492860 0.745310 1.016271
Cr2   Cr    Cr6+3 0.111880 0.178590 0.246990 0.999981
Cr3   Cr    Cr6+3 0.388120 0.678590 0.753010 1.000941
Cr4   Cr    Cr6+3 0.611880 0.678590 0.246990 0.999981
Cr5   Cr    Cr6+3 0.114310 0.492860 0.254690 1.015501
Cr6   Cr    Cr6+3 0.385690 0.992860 0.745310 1.016273
Cr7   Cr    Cr6+3 0.614310 0.992860 0.254690 1.015500
Cr8   Cr    Cr6+3 0.729880 0.332270 0.748190 1.043799
Cr9   Cr    Cr6+3 0.270120 0.332270 0.251810 1.042638
Cr10  Cr    Cr6+3 0.229880 0.832270 0.748190 1.043795
Cr11  Cr    Cr6+3 0.770120 0.832270 0.251810 1.042638
Cr12  Cr    Cr6+3 0.888120 0.178590 0.753010 1.000939
H1    H     H_    0.640813 0.123541 0.444985 0.128949
H2    H     H_    0.188829 0.910083 0.535274 0.129424
H3    H     H_    0.510223 0.042400 0.929502 0.223014
H4    H     H_    0.614657 0.783263 0.045723 0.112151
H5    H     H_    0.385246 0.783187 0.954580 0.112001
H6    H     H_    0.114657 0.283263 0.045722 0.112151
H7    H     H_    0.885252 0.283222 0.954572 0.112001
H8    H     H_    0.597459 0.855730 0.926288 0.168297
H9    H     H_    0.402470 0.856054 0.073737 0.167893
H10   H     H_    0.097461 0.355735 0.926288 0.168316
H11   H     H_    0.902469 0.356057 0.073735 0.167890
H12   H     H_    0.936652 0.210357 0.085892 0.110763
H13   H     H_    0.280882 0.378429 0.461726 0.132392
H14   H     H_    0.063192 0.210054 0.914668 0.110795
H15   H     H_    0.436653 0.710355 0.085897 0.110762
H16   H     H_    0.563190 0.710051 0.914670 0.110796
H17   H     H_    0.950616 0.178159 0.964596 0.130271
H18   H     H_    0.049251 0.178253 0.036089 0.130629
H19   H     H_    0.450627 0.678150 0.964605 0.130263
H20   H     H_    0.549252 0.678253 0.036091 0.130628
H21   H     H_    0.650260 0.099974 0.566420 0.112399
H22   H     H_    0.351090 0.069918 0.428551 0.113992
H23   H     H_    0.150260 0.599974 0.566420 0.112399
H24   H     H_    0.688829 0.410083 0.535274 0.129424
H25   H     H_    0.851090 0.569918 0.428551 0.113992
H26   H     H_    0.693374 0.915155 0.474427 0.108818
H27   H     H_    0.276213 0.869341 0.534252 0.108885
H28   H     H_    0.193374 0.415157 0.474427 0.108819
H29   H     H_    0.776214 0.369341 0.534252 0.108885
H30   H     H_    0.710100 0.924815 0.592495 0.104607
H31   H     H_    0.278502 0.907845 0.412004 0.102734
H32   H     H_    0.210101 0.424815 0.592496 0.104608
H33   H     H_    0.778503 0.407845 0.412004 0.102734
H34   H     H_    0.855915 0.060708 0.427356 0.132987
H35   H     H_    0.799488 0.912268 0.580992 0.124126
H36   H     H_    0.145728 0.090494 0.570975 0.124132
H37   H     H_    0.355915 0.560709 0.427355 0.132987
H38   H     H_    0.645728 0.590495 0.570975 0.124132
H39   H     H_    0.818057 0.205306 0.422470 0.100386
H40   H     H_    0.197219 0.220029 0.577284 0.103305
H41   H     H_    0.318057 0.705307 0.422470 0.100387
H42   H     H_    0.697219 0.720029 0.577284 0.103305
H43   H     H_    0.841692 0.219256 0.544347 0.109356
H44   H     H_    0.194592 0.241108 0.455203 0.108615
H45   H     H_    0.341692 0.719256 0.544347 0.109356
H46   H     H_    0.188113 0.922219 0.417606 0.129838
H47   H     H_    0.694592 0.741107 0.455202 0.108615
H48   H     H_    0.299488 0.412268 0.580992 0.124127
H49   H     H_    0.688114 0.422219 0.417606 0.129838
H50   H     H_    0.031407 0.138907 0.437535 0.128075
H51   H     H_    0.952939 0.148164 0.560715 0.132351
H52   H     H_    0.531407 0.638907 0.437535 0.128075
H53   H     H_    0.362462 0.094376 0.552243 0.133078
H54   H     H_    0.452939 0.648164 0.560715 0.132351
H55   H     H_    0.945559 0.173082 0.435418 0.112262
H56   H     H_    0.039277 0.161076 0.559984 0.108877
H57   H     H_    0.445559 0.673083 0.435419 0.112262
H58   H     H_    0.539277 0.661077 0.559984 0.108878
H59   H     H_    0.607372 0.826145 0.462020 0.108304
H60   H     H_    0.384155 0.892456 0.541057 0.109245
H61   H     H_    0.107372 0.326148 0.462017 0.108304
H62   H     H_    0.884155 0.392457 0.541057 0.109246
H63   H     H_    0.597467 0.837572 0.582785 0.103958
H64   H     H_    0.140813 0.623541 0.444985 0.128950
H65   H     H_    0.400119 0.863493 0.418889 0.102294
H66   H     H_    0.097468 0.337569 0.582784 0.103959
H67   H     H_    0.900119 0.363491 0.418890 0.102294
H68   H     H_    0.951730 0.494512 0.422469 0.134607
H69   H     H_    0.058875 0.480061 0.574713 0.127059
H70   H     H_    0.451731 0.994513 0.422470 0.134608
H71   H     H_    0.558874 0.980064 0.574712 0.127060
H72   H     H_    0.948603 0.503079 0.539369 0.132535
H73   H     H_    0.078666 0.475762 0.455580 0.138166
H74   H     H_    0.448602 0.003079 0.539370 0.132535
H75   H     H_    0.862462 0.594375 0.552242 0.133078
H76   H     H_    0.578669 0.975759 0.455580 0.138166
H77   H     H_    0.820573 0.923833 0.059347 0.159424
H78   H     H_    0.179432 0.923952 0.940985 0.158594
H79   H     H_    0.320568 0.423830 0.059344 0.159420
H80   H     H_    0.679429 0.423955 0.940984 0.158599
H81   H     H_    0.701730 0.234244 0.440955 0.113447
H82   H     H_    0.313023 0.219052 0.552879 0.108254
H83   H     H_    0.201730 0.734244 0.440954 0.113447
H84   H     H_    0.813023 0.719051 0.552879 0.108254
H85   H     H_    0.860542 0.058925 0.072255 0.130709
H86   H     H_    0.864389 0.066398 0.544408 0.128959
H87   H     H_    0.139492 0.058972 0.927677 0.130873
H88   H     H_    0.360542 0.558917 0.072261 0.130714
H89   H     H_    0.639492 0.558981 0.927677 0.130870
H90   H     H_    0.870039 0.068620 0.953960 0.143860
H91   H     H_    0.129972 0.068829 0.045953 0.143659
H92   H     H_    0.370040 0.568652 0.953967 0.143851
H93   H     H_    0.629972 0.568827 0.045954 0.143659
H94   H     H_    0.820707 0.943411 0.941178 0.116160
H95   H     H_    0.179307 0.943682 0.059141 0.116252
H96   H     H_    0.320722 0.443421 0.941174 0.116173
H97   H     H_    0.135723 0.121116 0.451307 0.134539
H98   H     H_    0.679309 0.443682 0.059140 0.116250
H99   H     H_    0.666086 0.951359 0.051872 0.086623
H100  H     H_    0.333881 0.951404 0.948638 0.086259
H101  H     H_    0.166086 0.451357 0.051872 0.086626
H102  H     H_    0.833885 0.451409 0.948638 0.086252
H103  H     H_    0.705283 0.943226 0.931071 0.121195
H104  H     H_    0.294715 0.943615 0.069363 0.120966
H105  H     H_    0.205292 0.443218 0.931075 0.121200
H106  H     H_    0.794716 0.443616 0.069364 0.120964
H107  H     H_    0.717159 0.256347 0.091592 0.116606
H108  H     H_    0.364390 0.566399 0.544408 0.128959
H109  H     H_    0.282866 0.256319 0.907793 0.117153
H110  H     H_    0.217162 0.756351 0.091592 0.116606
H111  H     H_    0.782870 0.756315 0.907792 0.117154
H112  H     H_    0.806528 0.238863 0.084376 0.117980
H113  H     H_    0.193495 0.238840 0.914973 0.118323
H114  H     H_    0.306530 0.738864 0.084371 0.117985
H115  H     H_    0.693499 0.738842 0.914970 0.118319
H116  H     H_    0.783333 0.297471 0.962505 0.087687
H117  H     H_    0.216457 0.297642 0.036558 0.087353
H118  H     H_    0.283322 0.797477 0.962498 0.087690
H119  H     H_    0.635723 0.621115 0.451307 0.134538
H120  H     H_    0.716455 0.797643 0.036554 0.087353
H121  H     H_    0.700359 0.256016 0.971761 0.176919
H122  H     H_    0.299538 0.256502 0.027633 0.176599
H123  H     H_    0.200355 0.756007 0.971763 0.176917
H124  H     H_    0.799538 0.756506 0.027634 0.176598
H125  H     H_    0.647725 0.103912 0.044638 0.162882
H126  H     H_    0.352267 0.104003 0.955270 0.163083
H127  H     H_    0.147726 0.603909 0.044635 0.162878
H128  H     H_    0.852267 0.604004 0.955272 0.163083
H129  H     H_    0.686285 0.238591 0.564847 0.139716
H130  H     H_    0.780882 0.878429 0.461726 0.132392
H131  H     H_    0.326876 0.218173 0.431429 0.136517
H132  H     H_    0.186285 0.738591 0.564847 0.139716
H133  H     H_    0.826876 0.718173 0.431429 0.136517
H134  H     H_    0.064647 0.502894 0.032904 0.144544
H135  H     H_    0.935343 0.502861 0.966745 0.144085
H136  H     H_    0.564646 0.002890 0.032902 0.144543
H137  H     H_    0.435343 0.002863 0.966747 0.144094
H138  H     H_    0.989728 0.542501 0.070076 0.222772
H139  H     H_    0.010222 0.542411 0.929503 0.223010
H140  H     H_    0.489729 0.042499 0.070077 0.222775
O1    O     O_R   0.957210 0.449410 0.665480 -0.525796
O2    O     O_R   0.167480 0.095300 0.164000 -0.545871
O3    O     O_R   0.332520 0.595300 0.836000 -0.545181
O4    O     O_R   0.667480 0.595300 0.164000 -0.545871
O5    O     O_R   0.946380 0.253940 0.826940 -0.515608
O6    O     O_R   0.053620 0.253940 0.173060 -0.516453
O7    O     O_R   0.446380 0.753940 0.826940 -0.515605
O8    O     O_R   0.553620 0.753940 0.173060 -0.516455
O9    O     O_3   0.834560 0.334570 0.748840 -0.293962
O10   O     O_3   0.165440 0.334570 0.251160 -0.291044
O11   O     O_3   0.334560 0.834570 0.748840 -0.293964
O12   O     O_R   0.042790 0.449410 0.334520 -0.526851
O13   O     O_3   0.665440 0.834570 0.251160 -0.291044
O14   O     O_R   0.820730 0.541240 0.668250 -0.517295
O15   O     O_R   0.179270 0.541240 0.331750 -0.516580
O16   O     O_R   0.320730 0.041240 0.668250 -0.517295
O17   O     O_R   0.679270 0.041240 0.331750 -0.516580
O18   O     O_R   0.714240 0.455060 0.663710 -0.532464
O19   O     O_R   0.285760 0.455060 0.336290 -0.532972
O20   O     O_R   0.214240 0.955060 0.663710 -0.532464
O21   O     O_R   0.785760 0.955060 0.336290 -0.532972
O22   O     O_R   0.736780 0.204870 0.675910 -0.508163
O23   O     O_R   0.457210 0.949410 0.665480 -0.525796
O24   O     O_R   0.263220 0.204870 0.324090 -0.507653
O25   O     O_R   0.236780 0.704870 0.675910 -0.508163
O26   O     O_R   0.763220 0.704870 0.324090 -0.507652
O27   O     O_R   0.833070 0.087590 0.673490 -0.530702
O28   O     O_R   0.166930 0.087590 0.326510 -0.531085
O29   O     O_R   0.333070 0.587590 0.673490 -0.530702
O30   O     O_R   0.666930 0.587590 0.326510 -0.531085
O31   O     O_R   0.946890 0.246800 0.676300 -0.513812
O32   O     O_R   0.053110 0.246800 0.323700 -0.512555
O33   O     O_R   0.446890 0.746800 0.676300 -0.513812
O34   O     O_R   0.542790 0.949410 0.334520 -0.526851
O35   O     O_R   0.553110 0.746800 0.323700 -0.512555
O36   O     O_R   0.956650 0.457120 0.827980 -0.506008
O37   O     O_R   0.043350 0.457120 0.172020 -0.506383
O38   O     O_R   0.456650 0.957120 0.827980 -0.506009
O39   O     O_R   0.543350 0.957120 0.172020 -0.506383
O40   O     O_R   0.820220 0.548390 0.818890 -0.511166
O41   O     O_R   0.179780 0.548390 0.181110 -0.511432
O42   O     O_R   0.320220 0.048390 0.818890 -0.511165
O43   O     O_R   0.679780 0.048390 0.181110 -0.511433
O44   O     O_R   0.713680 0.462770 0.826210 -0.520592
O45   O     O_R   0.736260 0.212010 0.826560 -0.440574
O46   O     O_R   0.286320 0.462770 0.173790 -0.521140
O47   O     O_R   0.213680 0.962770 0.826210 -0.520595
O48   O     O_R   0.786320 0.962770 0.173790 -0.521140
O49   O     O_R   0.263740 0.212010 0.173440 -0.441207
O50   O     O_R   0.236260 0.712010 0.826560 -0.440578
O51   O     O_R   0.763740 0.712010 0.173440 -0.441206
O52   O     O_R   0.832520 0.095300 0.836000 -0.545181

loop_
_geom_bond_atom_site_label_1
_geom_bond_atom_site_label_2
_ccdc_geom_bond_type
C70   H125  S    
C73   C82   S    
C76   H114  S    
C21   C110  S    
C88   H41   S    
C40   H51   S    
C57   H85   S    
Cr2   O2    S    
C48   H67   S    
C6    C85   S    
C65   H94   S    
C9    C114  S    
C94   H118  S    
C59   H79   S    
C45   C48   S    
Cr12  O9    S    
Cr7   O17   S    
C74   C92   S    
C41   H57   S    
C76   C94   S    
C14   H53   S    
C2    C22   S    
C3    O43   A    
C97   C115  S    
C64   O30   A    
C73   H128  S    
C25   C34   S    
C23   H13   S    
C29   C64   S    
C67   H95   S    
C37   H108  S    
C96   C114  S    
C11   O8    A    
Cr3   O33   S    
C85   C90   S    
Cr1   O9    S    
C112  O23   A    
Cr4   O30   S    
C27   C31   S    
Cr3   O11   S    
C28   C32   S    
C38   C99   S    
C35   C66   S    
Cr11  O48   S    
C118  O44   A    
C119  O41   A    
C13   C33   S    
C39   H55   S    
C78   C82   S    
C40   H56   S    
C16   C20   S    
C119  O46   A    
C37   H45   S    
C43   H61   S    
C66   C110  S    
Cr11  O13   S    
C102  H17   S    
C73   C91   S    
C33   O19   A    
C98   H140  S    
C1    O18   A    
C31   H31   S    
C74   C79   S    
C32   H32   S    
C82   C118  S    
C108  H8    S    
C75   C93   S    
C104  C117  S    
C53   C109  S    
C72   H127  S    
C5    O49   A    
C70   C79   S    
C58   H87   S    
C68   H92   S    
C81   C119  S    
C61   O27   A    
C106  C115  S    
C86   C91   S    
C103  C116  S    
C36   H97   S    
C19   H23   S    
C99   H38   S    
C49   C53   S    
C84   C93   S    
C2    C14   S    
Cr10  O20   S    
C86   C95   S    
C38   H47   S    
C28   C63   S    
C103  H20   S    
C48   C52   S    
Cr9   O10   S    
C44   O20   A    
C104  H5    S    
C14   H82   S    
C100  C117  S    
C20   H133  S    
C104  C107  S    
Cr9   O46   S    
C112  O33   A    
C106  H14   S    
C96   H138  S    
C90   Cl3   S    
C12   C110  S    
C92   H121  S    
Cr12  O27   S    
C113  O35   A    
Cr8   O22   S    
C100  H3    S    
C51   H71   S    
C43   C52   S    
C7    C86   S    
C89   Cl2   S    
C4    O52   A    
C72   C90   S    
C13   C23   S    
C6    O50   A    
C94   H123  S    
C2    C44   S    
C29   C38   S    
C1    O14   A    
C111  O12   A    
C17   H21   S    
C70   H99   S    
C107  H15   S    
C71   H126  S    
C45   C53   S    
C68   C85   S    
C89   H104  S    
C43   H73   S    
C70   C87   S    
C47   C50   S    
C9    O37   A    
C92   H116  S    
C35   H43   S    
C95   H124  S    
C87   H103  S    
Cr7   O13   S    
C99   H42   S    
C59   H88   S    
C39   C40   S    
C5    C84   S    
Cr9   O49   S    
C105  H12   S    
C46   C51   S    
C27   C62   S    
C69   H93   S    
C74   H112  S    
C101  H6    S    
C58   C67   S    
Cr8   O9    S    
C67   H91   S    
C8    O36   A    
C19   C28   S    
C34   H33   S    
C21   H130  S    
C50   H70   S    
C57   H77   S    
C26   C30   S    
C45   H72   S    
Cr2   O10   S    
C7    O51   A    
C4    O45   A    
Cr4   O8    S    
C15   H83   S    
Cr11  O26   S    
C23   H28   S    
C101  C106  S    
C118  O40   A    
C21   H26   S    
C72   H101  S    
C108  C117  S    
C16   H75   S    
C5    O2    A    
C109  O1    A    
Cr5   O37   S    
C77   H40   S    
C109  O31   A    
C62   O28   A    
C60   H80   S    
C73   H102  S    
C10   C117  S    
C103  H4    S    
C15   H64   S    
C60   C69   S    
Cr10  O47   S    
Cr9   O24   S    
C9    O6    A    
C16   H84   S    
C104  H19   S    
C107  C116  S    
C55   O17   A    
Cr2   O28   S    
C1    C24   S    
C84   C89   S    
Cr3   O3    S    
C95   H120  S    
Cr4   O4    S    
C68   H96   S    
Cr5   O41   S    
C47   C56   S    
C83   C87   S    
Cr6   O38   S    
C78   H115  S    
Cr7   O43   S    
C41   C42   S    
Cr8   O44   S    
C37   C88   S    
C36   H44   S    
C15   C19   S    
C50   C54   S    
Cr4   O35   S    
C26   C61   S    
C36   C77   S    
Cr11  O21   S    
C18   H131  S    
C93   H117  S    
C102  C105  S    
C57   C79   S    
C102  C115  S    
C42   C56   S    
C108  H16   S    
C39   H50   S    
C55   O21   A    
C12   C17   S    
Cr10  O25   S    
C72   C81   S    
C58   C80   S    
C38   H119  S    
C101  C114  S    
Cr1   O40   S    
C6    O3    A    
C32   H48   S    
Cr8   O45   S    
C64   O26   A    
C47   H60   S    
C35   H86   S    
C87   Cl1   S    
C97   H135  S    
C98   H136  S    
C29   C34   S    
C41   H52   S    
C10   O7    A    
C34   H49   S    
Cr2   O32   S    
C18   H22   S    
C91   H106  S    
C78   C95   S    
C46   C54   S    
C25   H24   S    
Cr10  O11   S    
C11   C116  S    
C3    C79   S    
C74   H107  S    
C10   O38   A    
C49   H69   S    
C98   C100  S    
C31   H46   S    
C66   H39   S    
Cr12  O52   S    
C7    O4    A    
C12   H81   S    
C50   H65   S    
C48   H68   S    
C59   C81   S    
C57   C65   S    
Cr6   O11   S    
C27   C36   S    
C21   C30   S    
C22   H2    S    
C113  O34   A    
Cr6   O23   S    
C25   H29   S    
C23   C32   S    
C2    C77   S    
C4    C83   S    
Cr1   O1    S    
C77   H36   S    
Cr2   O6    S    
C65   H90   S    
C93   H122  S    
Cr6   O16   S    
Cr10  O50   S    
C75   H113  S    
Cr3   O29   S    
C80   C120  S    
C22   H27   S    
C24   C99   S    
C62   O24   A    
C14   C18   S    
C63   O29   A    
C46   H59   S    
C83   C92   S    
C17   C26   S    
C28   C37   S    
Cr5   O10   S    
C51   C56   S    
C107  H9    S    
C46   H76   S    
C65   C83   S    
C120  O47   A    
C96   H134  S    
C105  H11   S    
C54   C113  S    
C60   H89   S    
Cr3   O7    S    
C42   H58   S    
C42   H54   S    
C17   H129  S    
C8    C115  S    
C60   C82   S    
Cr6   O42   S    
Cr7   O39   S    
C103  C108  S    
C120  O42   A    
C75   C80   S    
Cr1   O14   S    
C75   H109  S    
C39   C52   S    
C67   C84   S    
C16   C24   S    
C71   C80   S    
C33   O15   A    
C20   C29   S    
Cr11  O51   S    
C111  O32   A    
C41   C54   S    
Cr7   O34   S    
C22   C31   S    
C105  C114  S    
C24   C25   S    
C30   H30   S    
C43   C49   S    
C52   C111  S    
C45   H62   S    
C88   H37   S    
C69   H98   S    
Cr12  O5    S    
C59   C68   S    
C97   H139  S    
C85   C94   S    
C98   C116  S    
C3    O48   A    
C71   C89   S    
C96   C97   S    
C78   H111  S    
C71   H100  S    
Cr1   O36   S    
C51   H63   S    
Cr4   O13   S    
C63   O25   A    
C91   Cl4   S    
C13   C15   S    
C55   C110  S    
C90   H105  S    
C102  H7    S    
C58   H78   S    
C49   H66   S    
C61   O22   A    
C44   O16   A    
C66   H34   S    
Cr5   O12   S    
C76   H110  S    
C18   C27   S    
C101  H18   S    
C76   C81   S    
C106  H10   S    
C100  H137  S    
C8    O5    A    
Cr12  O31   S    
C11   O39   A    
C20   H25   S    
C13   C88   S    
Cr8   O18   S    
C26   C35   S    
Cr9   O19   S    
C30   H35   S    
Cr5   O15   S    
C40   C53   S    
C47   H74   S    
C12   H1    S    
C56   C112  S    
C69   C86   S    
C19   H132  S    
