data_mof_unit_12705.cif
_audit_creation_date              2012-12-11T16:56:15-0500
_audit_creation_method            fapswitch 2.2
_symmetry_space_group_name_H-M    P1
_symmetry_Int_Tables_number       1
_space_group_crystal_system       triclinic
_cell_length_a                    6.962494
_cell_length_b                    14.496462
_cell_length_c                    16.238026
_cell_angle_alpha                 90.482022
_cell_angle_beta                  89.774156
_cell_angle_gamma                 90.179384
_cell_volume                      1638.85020974

loop_
_atom_site_label
_atom_site_type_symbol
_atom_type_description
_atom_site_fract_x
_atom_site_fract_y
_atom_site_fract_z
_atom_type_partial_charge
O1    O     O_R   0.505830 0.583360 0.413880 -0.525258
O2    O     O_R   0.175830 0.595460 0.585520 -0.548402
O3    O     O_R   0.005520 0.416640 0.586120 -0.529448
C1    C     C_R   0.344488 0.617033 0.614724 0.688411
O4    O     O_R   0.176120 0.594390 0.414490 -0.540283
O5    O     O_R   0.005810 0.415570 0.413870 -0.542343
C2    C     C_R   0.345553 0.616530 0.386201 0.724513
O6    O     O_R   0.505540 0.584430 0.586130 -0.541771
O7    O     O_3   0.339200 0.441330 0.500000 -0.362239
V1    V     V_3+5 0.064350 0.510880 0.500000 1.426012
O8    O     O_R   0.676100 0.404540 0.414480 -0.536732
C3    C     C_R   0.845202 0.382518 0.385804 0.727158
O9    O     O_R   0.675810 0.405610 0.585510 -0.528195
C4    C     C_R   0.843948 0.385394 0.614861 0.679149
V2    V     V_3+5 0.564340 0.489120 0.500000 1.453431
O10   O     O_3   0.839360 0.558670 0.500000 -0.372670
C5    C     C_2   0.725325 0.211359 0.789076 -0.169849
C6    C     C_2   0.888560 0.174434 0.817900 -0.302160
H1    H     H_    0.589753 0.193626 0.818383 0.141176
H2    H     H_    0.024249 0.185840 0.786642 0.177772
C7    C     C_2   0.714420 0.268792 0.713372 0.105870
C8    C     C_2   0.856040 0.328521 0.690483 0.246152
C9    C     C_R   0.715250 0.190284 0.235007 0.098779
C10   C     C_R   0.879524 0.183059 0.185526 -0.078807
C11   C     C_R   0.033692 0.241851 0.203885 -0.201749
H3    H     H_    0.156166 0.241877 0.163806 0.136241
C12   C     C_R   0.024026 0.305567 0.269574 -0.178338
H4    H     H_    0.141926 0.353134 0.278793 0.129379
C13   C     C_R   0.858368 0.312262 0.319214 -0.092455
C14   C     C_R   0.706160 0.251977 0.301772 0.049496
C15   C     C_3   0.505016 0.278209 0.282941 -0.406595
C16   C     C_3   0.517720 0.215114 0.207947 0.032493
H5    H     H_    0.490744 0.352880 0.268917 0.173417
H6    H     H_    0.404106 0.252412 0.330751 0.150526
H7    H     H_    0.416610 0.155495 0.208551 0.102085
C17   C     C_R   0.505559 0.679932 0.742305 0.108525
C18   C     C_R   0.352489 0.681342 0.686430 -0.111790
C19   C     C_R   0.201544 0.743126 0.703659 -0.190279
H8    H     H_    0.079428 0.746400 0.662973 0.133893
C20   C     C_R   0.213000 0.806034 0.770251 -0.177226
H9    H     H_    0.098825 0.855637 0.778734 0.127829
C21   C     C_R   0.375982 0.809364 0.821656 -0.109472
C22   C     C_R   0.517285 0.742337 0.808001 0.100792
C23   C     C_3   0.728701 0.753417 0.797550 -0.407761
C24   C     C_3   0.716002 0.685106 0.726258 -0.402152
H10   H     H_    0.810006 0.726541 0.850978 0.174962
H11   H     H_    0.768146 0.824296 0.778047 0.166918
H12   H     H_    0.789005 0.618713 0.738757 0.155103
H13   H     H_    0.748894 0.716046 0.665402 0.170244
C25   C     C_R   0.520897 0.694226 0.270392 0.133918
C26   C     C_R   0.359113 0.688071 0.321518 -0.203725
C27   C     C_R   0.216993 0.756283 0.312583 -0.281413
H14   H     H_    0.095176 0.757949 0.354264 0.151608
C28   C     C_R   0.229506 0.823033 0.249532 0.414376
C29   C     C_R   0.381647 0.819307 0.190702 -0.213645
C30   C     C_R   0.531481 0.757670 0.206571 0.043751
C31   C     C_3   0.630667 0.691183 0.150061 -0.445227
C32   C     C_3   0.616715 0.621036 0.219570 0.025677
H15   H     H_    0.779416 0.713827 0.135074 0.189790
H16   H     H_    0.541619 0.672349 0.095727 0.145121
H17   H     H_    0.522117 0.560795 0.206085 0.121394
O11   O     O_R   0.229930 0.912420 0.917160 -0.541321
O12   O     O_R   0.559420 0.902500 0.088780 -0.534433
O13   O     O_R   0.729660 0.081330 0.089380 -0.536692
C33   C     C_R   0.390424 0.881796 0.118330 0.726544
O14   O     O_R   0.559650 0.901420 0.917750 -0.541165
O15   O     O_R   0.729880 0.080250 0.917130 -0.538123
C34   C     C_R   0.390572 0.879284 0.888931 0.690748
O16   O     O_R   0.229700 0.913500 0.089410 -0.517368
O17   O     O_3   0.396250 0.055540 0.003280 -0.384038
V3    V     V_3+5 0.671130 0.986010 0.003260 1.418492
O18   O     O_R   0.059600 0.091310 0.917720 -0.546553
C35   C     C_R   0.891669 0.111972 0.888931 0.730778
O19   O     O_R   0.059370 0.092380 0.088750 -0.552281
C36   C     C_R   0.890010 0.115766 0.116344 0.703336
V4    V     V_3+5 0.171120 0.007820 0.003230 1.402523
O20   O     O_3   0.896130 0.938240 0.003240 -0.362694
O21   O     O_3   0.086261 0.888501 0.244224 -0.567903
C37   C     C_3   0.152460 0.973053 0.278280 0.111685
H18   H     H_    0.081280 0.029368 0.244631 0.135422
H19   H     H_    0.310204 0.984621 0.270534 0.073828
C38   C     C_3   0.096132 0.981106 0.369283 -0.334723
H20   H     H_    0.938997 0.969449 0.376039 0.200865
H21   H     H_    0.172800 0.927819 0.405174 0.187420
C39   C     C_3   0.146870 0.076226 0.404084 -0.838661
H22   H     H_    0.303689 0.089194 0.398343 0.229062
H23   H     H_    0.106289 0.079844 0.470222 0.233110
H24   H     H_    0.067645 0.130657 0.370706 0.237434
N1    N     N_3   0.802868 0.594566 0.253497 -0.640720
H25   H     H_    0.873246 0.553887 0.209379 0.225233
H26   H     H_    0.887867 0.653167 0.263475 0.248229
N2    N     N_3   0.541845 0.261605 0.665606 -0.668789
H27   H     H_    0.425889 0.279357 0.703594 0.247033
H28   H     H_    0.524577 0.192588 0.647888 0.226128
O22   O     O_3   0.020240 0.337944 0.738031 -0.585447
C40   C     C_3   0.012046 0.422407 0.781989 0.070565
H29   H     H_    0.892353 0.420540 0.827736 0.121158
H30   H     H_    0.991065 0.481819 0.739940 0.100709
C41   C     C_3   0.201598 0.437417 0.827340 -0.277816
H31   H     H_    0.227311 0.378818 0.869597 0.193723
H32   H     H_    0.321242 0.439958 0.781816 0.189813
C42   C     C_3   0.199406 0.527342 0.876980 -0.857641
H33   H     H_    0.171718 0.586815 0.836058 0.240966
H34   H     H_    0.340776 0.537725 0.907156 0.229566
H35   H     H_    0.086148 0.524759 0.925292 0.230705
N3    N     N_3   0.523568 0.266081 0.130205 -0.645194
H36   H     H_    0.484065 0.220861 0.082741 0.241583
H37   H     H_    0.421698 0.318862 0.131199 0.218930

loop_
_geom_bond_atom_site_label_1
_geom_bond_atom_site_label_2
_ccdc_geom_bond_type
O14   C34   A    
C29   C30   A    
O12   C33   A    
C3    C13   S    
C12   C13   A    
C8    O22   S    
O22   C40   S    
O18   V4    S    
C39   H22   S    
C27   H14   S    
C13   C14   A    
O19   V4    S    
C42   H35   S    
C17   C18   A    
O5    C3    A    
C14   C15   S    
C31   H15   S    
N3    H36   S    
V2    O10   S    
C40   C41   S    
C30   C31   S    
O16   V4    S    
O13   V3    S    
O8    V2    S    
C41   H31   S    
C23   H10   S    
C40   H30   S    
C9    C10   A    
C15   H5    S    
O17   V3    S    
O15   C35   A    
N1    H26   S    
O7    V1    S    
O15   V3    S    
C23   H11   S    
C1    O6    A    
C32   H17   S    
C20   C21   A    
C16   N3    S    
O9    C4    A    
C21   C34   S    
O11   V4    S    
C29   C33   S    
C27   C28   A    
C5    C6    D    
C39   H23   S    
O19   C36   A    
C26   C27   A    
C25   C32   S    
C9    C14   A    
C10   C11   A    
O4    C2    A    
O21   C37   S    
C31   H16   S    
O6    V2    S    
C24   H12   S    
C11   H3    S    
C5    C7    S    
O2    C1    A    
C22   C23   S    
C16   H7    S    
C18   C19   A    
O14   V3    S    
C24   H13   S    
C40   H29   S    
N2    H28   S    
C25   C26   A    
C15   H6    S    
C17   C24   S    
V4    O20   S    
C42   H34   S    
O3    C4    A    
O1    V2    S    
C20   H9    S    
C41   H32   S    
O12   V3    S    
C6    C35   S    
C38   H21   S    
O9    V2    S    
O17   V4    S    
C21   C22   A    
O2    V1    S    
V3    O20   S    
C23   C24   S    
C37   H19   S    
C39   H24   S    
C28   C29   A    
O1    C2    A    
C15   C16   S    
O18   C35   A    
O5    V1    S    
C37   C38   S    
O8    C3    A    
C10   C36   S    
C11   C12   A    
C38   C39   S    
O11   C34   A    
C9    C16   S    
C4    C8    S    
O7    V2    S    
C2    C26   S    
O4    V1    S    
O3    V1    S    
V1    O10   S    
C19   C20   A    
C31   C32   S    
C19   H8    S    
N3    H37   S    
C33   O16   A    
N2    H27   S    
C5    H1    S    
O13   C36   A    
C6    H2    S    
C42   H33   S    
C32   N1    S    
C25   C30   A    
C37   H18   S    
C41   C42   S    
C1    C18   S    
C38   H20   S    
C12   H4    S    
C17   C22   A    
N1    H25   S    
C7    C8    D    
C28   O21   S    
C7    N2    S    
