data_mof_unit_36227.cif
_audit_creation_date              2012-12-10T18:45:07-0500
_audit_creation_method            fapswitch 2.2
_symmetry_space_group_name_H-M    P1
_symmetry_Int_Tables_number       1
_space_group_crystal_system       triclinic
_cell_length_a                    10.715449
_cell_length_b                    9.863554
_cell_length_c                    10.735469
_cell_angle_alpha                 89.928669
_cell_angle_beta                  91.838916
_cell_angle_gamma                 88.525976
_cell_volume                      1133.69552519

loop_
_atom_site_label
_atom_site_type_symbol
_atom_type_description
_atom_site_fract_x
_atom_site_fract_y
_atom_site_fract_z
_atom_type_partial_charge
C1    C     C_R   0.260122 0.501977 0.505793 0.958198
C2    C     C_R   0.739715 0.498002 0.501524 0.980773
C3    C     C_R   0.930561 0.586741 0.426620 0.136262
C4    C     C_R   0.057539 0.603840 0.443909 0.116348
C5    C     C_R   0.563525 0.071697 0.590525 -0.072343
C6    C     C_R   0.436828 0.075347 0.409165 -0.094638
C7    C     C_R   0.566874 0.927309 0.590949 0.219436
C8    C     C_R   0.435493 0.931022 0.407642 0.227580
C9    C     C_R   0.510451 0.500559 0.260407 0.883654
C10   C     C_R   0.489039 0.501119 0.739492 0.908590
C11   C     C_R   0.566643 0.750857 0.113929 -0.124277
C12   C     C_R   0.441134 0.756610 0.884169 -0.109495
C13   C     C_R   0.545300 0.873986 0.052120 -0.152908
C14   C     C_R   0.475169 0.877621 0.941067 -0.131669
C15   C     C_R   0.478827 0.629981 0.937800 0.079768
C16   C     C_R   0.523071 0.628154 0.061490 0.091908
C17   C     C_R   0.520134 0.503446 0.127086 -0.124276
C18   C     C_R   0.477517 0.504974 0.872645 -0.107992
C19   C     C_R   0.504600 0.381155 0.063543 -0.214263
C20   C     C_R   0.488230 0.381678 0.936577 -0.152977
C21   C     C_R   0.069059 0.412724 0.590887 0.210765
C22   C     C_R   0.939525 0.410305 0.588527 0.202232
C23   C     C_R   0.872104 0.494405 0.502984 -0.226172
C24   C     C_R   0.127279 0.507186 0.515155 -0.230451
H1    H     H_    0.504977 0.284480 0.111679 0.164132
H2    H     H_    0.484407 0.285127 0.888678 0.174899
H3    H     H_    0.619301 0.753599 0.201298 0.180443
H4    H     H_    0.384942 0.763835 0.798865 0.164482
H5    H     H_    0.577712 0.967211 0.093622 0.137703
H6    H     H_    0.450298 0.973849 0.897124 0.147028
H7    H     H_    0.612406 0.129081 0.661265 0.182967
H8    H     H_    0.386984 0.135549 0.338854 0.157666
N1    N     N_R   0.500000 0.857200 0.500000 -0.157684
N2    N     N_R   0.500000 0.142810 0.500000 -0.116601
O1    O     O_R   0.316770 0.614620 0.499990 -0.628015
O2    O     O_R   0.683230 0.614620 0.500010 -0.639210
O3    O     O_R   0.316800 0.385290 0.500000 -0.586154
O4    O     O_R   0.683200 0.385290 0.500000 -0.589701
O5    O     O_R   0.500010 0.614690 0.316770 -0.636672
O6    O     O_R   0.499990 0.614690 0.683230 -0.656543
O7    O     O_R   0.500040 0.385360 0.316770 -0.632970
O8    O     O_R   0.499960 0.385360 0.683230 -0.598236
Zn1   Zn    Zn3+2 0.500000 0.653120 0.500000 0.932822
Zn2   Zn    Zn3+2 0.500000 0.346880 0.500000 0.984091
Br1   Br    Br    0.164516 0.297803 0.707493 -0.475603
Br2   Br    Br    0.856339 0.298530 0.707002 -0.503429
N3    N     N_2   0.861269 0.659794 0.331436 -0.298494
H9    H     H_    0.878401 0.761973 0.327136 0.232437
C25   C     C_3   0.863922 0.594004 0.211084 -0.791666
H10   H     H_    0.814141 0.658277 0.139775 0.236876
H11   H     H_    0.961759 0.578050 0.181793 0.244880
H12   H     H_    0.817460 0.494755 0.215242 0.249902
N4    N     N_2   0.113223 0.722746 0.398422 -0.307662
H13   H     H_    0.088368 0.748625 0.307796 0.228082
C26   C     C_3   0.103927 0.835842 0.484141 -0.708520
H14   H     H_    0.004670 0.867973 0.494768 0.228903
H15   H     H_    0.155319 0.923190 0.449186 0.240862
H16   H     H_    0.145589 0.807318 0.576962 0.256815
N5    N     N_2   0.638235 0.855132 0.686061 -0.298054
H17   H     H_    0.668652 0.760076 0.662543 0.292842
C27   C     C_3   0.730953 0.924586 0.761820 -0.785602
H18   H     H_    0.780101 0.850826 0.825824 0.248906
H19   H     H_    0.685886 0.002833 0.820783 0.251426
H20   H     H_    0.800995 0.970722 0.701719 0.269737
N6    N     N_2   0.370286 0.861896 0.309395 -0.284190
H21   H     H_    0.332146 0.772413 0.334540 0.302278
C28   C     C_3   0.295978 0.936568 0.215628 -0.833117
H22   H     H_    0.257155 0.864617 0.145897 0.257313
H23   H     H_    0.354226 0.008784 0.165567 0.247516
H24   H     H_    0.217336 0.992647 0.258475 0.239066

loop_
_geom_bond_atom_site_label_1
_geom_bond_atom_site_label_2
_ccdc_geom_bond_type
C5    H7    S    
C15   C18   A    
C6    H8    S    
C26   H14   S    
O8    Zn2   S    
O4    Zn2   S    
C7    N1    A    
C11   H3    S    
C4    N4    S    
C10   O8    A    
O1    Zn1   S    
C11   C16   A    
C2    O4    A    
C18   C20   A    
C19   C20   A    
C12   C15   A    
C1    O3    A    
C25   H12   S    
C5    N2    A    
C28   H24   S    
O3    Zn2   S    
C26   H15   S    
N5    H17   S    
N3    C25   S    
C27   H19   S    
C21   C22   A    
C27   H20   S    
C11   C13   A    
C1    O1    A    
C20   H2    S    
C14   H6    S    
C3    N3    S    
C19   H1    S    
C7    N5    S    
C17   C19   A    
C10   C18   S    
N6    H21   S    
C21   Br1   S    
C8    N1    A    
N4    C26   S    
O5    Zn1   S    
C27   H18   S    
C4    C24   A    
O7    Zn2   S    
C21   C24   A    
N5    C27   S    
N6    C28   S    
C13   H5    S    
C2    O2    A    
C28   H22   S    
N1    Zn1   S    
N3    H9    S    
C6    N2    A    
C8    N6    S    
N2    Zn2   S    
C12   H4    S    
C1    C24   S    
C10   O6    A    
C25   H10   S    
C26   H16   S    
C9    C17   S    
C2    C23   S    
C5    C7    A    
C22   C23   A    
O2    Zn1   S    
C6    C8    A    
C28   H23   S    
C3    C23   A    
C13   C14   A    
C9    O7    A    
C9    O5    A    
C22   Br2   S    
C3    C4    A    
C15   C16   A    
N4    H13   S    
C12   C14   A    
C16   C17   A    
C25   H11   S    
O6    Zn1   S    
