data_mof_unit_27847.cif
_audit_creation_date              2012-12-10T18:11:05-0500
_audit_creation_method            fapswitch 2.2
_symmetry_space_group_name_H-M    P1
_symmetry_Int_Tables_number       1
_space_group_crystal_system       triclinic
_cell_length_a                    10.761594
_cell_length_b                    9.595796
_cell_length_c                    10.695018
_cell_angle_alpha                 92.066826
_cell_angle_beta                  90.867177
_cell_angle_gamma                 90.522614
_cell_volume                      1103.53582287

loop_
_atom_site_label
_atom_site_type_symbol
_atom_type_description
_atom_site_fract_x
_atom_site_fract_y
_atom_site_fract_z
_atom_type_partial_charge
C1    C     C_R   0.260270 0.499294 0.495365 0.822743
C2    C     C_3   0.498805 0.490624 0.125377 -0.078337
C3    C     C_3   0.073877 0.467382 0.628256 0.485170
C4    C     C_3   0.068300 0.384608 0.392956 0.487838
C5    C     C_3   0.927622 0.479161 0.628696 -0.167435
C6    C     C_3   0.922651 0.380595 0.404405 -0.082116
C7    C     C_3   0.071288 0.642574 0.452114 -0.558281
C8    C     C_3   0.121260 0.497663 0.492594 0.101734
C9    C     C_3   0.876842 0.502013 0.493443 0.034992
C10   C     C_3   0.928743 0.642267 0.446371 -0.408590
C11   C     C_3   0.612840 0.081610 0.440667 0.321398
C12   C     C_3   0.608674 0.915386 0.432553 0.286488
C13   C     C_3   0.498808 0.088885 0.636037 0.216884
C14   C     C_3   0.508177 0.918529 0.635036 0.300452
C15   C     C_3   0.386119 0.078877 0.437824 0.097863
C16   C     C_3   0.383610 0.914238 0.441697 0.137190
C17   C     C_R   0.498337 0.497175 0.260687 0.799820
C18   C     C_R   0.738967 0.500747 0.496248 0.882292
C19   C     C_R   0.503246 0.502051 0.740710 0.882321
C20   C     C_3   0.405205 0.572480 0.047163 -0.271454
C21   C     C_3   0.488463 0.361124 0.035195 -0.194406
C22   C     C_3   0.398583 0.445634 0.954422 0.371496
C23   C     C_3   0.506240 0.504466 0.878852 -0.032300
C24   C     C_3   0.516546 0.627625 0.974642 0.184088
C25   C     C_3   0.596217 0.422953 0.961328 0.124223
C26   C     C_3   0.610103 0.548173 0.054710 -0.209362
Cu1   Cu    Cu3+1 0.499860 0.642410 0.500060 0.980482
Cu2   Cu    Cu3+1 0.499860 0.357590 0.500060 0.987989
H1    H     H_    0.894190 0.733114 0.502446 0.186100
H2    H     H_    0.896294 0.659129 0.349050 0.178106
H3    H     H_    0.697271 0.111713 0.495664 0.034136
H4    H     H_    0.696805 0.877161 0.472710 0.058948
H5    H     H_    0.302031 0.112798 0.488325 0.193102
H6    H     H_    0.301874 0.887324 0.496823 0.108399
H7    H     H_    0.325240 0.633361 0.083141 0.136993
H8    H     H_    0.476660 0.250733 0.060530 0.148694
H9    H     H_    0.698238 0.589732 0.097377 0.133141
H10   H     H_    0.888543 0.377519 0.657863 0.152573
H11   H     H_    0.897110 0.281554 0.449575 0.159409
H12   H     H_    0.104231 0.729155 0.516074 0.191946
H13   H     H_    0.107023 0.668134 0.358634 0.204082
N1    N     N_3   0.500250 0.143650 0.502780 -0.191668
N2    N     N_3   0.500250 0.856350 0.502780 -0.179334
O1    O     O_R   0.317570 0.620260 0.500070 -0.620684
O2    O     O_R   0.317570 0.379740 0.500070 -0.555860
O3    O     O_R   0.499850 0.620240 0.316900 -0.546860
O4    O     O_R   0.499850 0.379760 0.316900 -0.555635
O5    O     O_R   0.682190 0.620260 0.500030 -0.574874
O6    O     O_R   0.682190 0.379740 0.500030 -0.568876
O7    O     O_R   0.499910 0.620280 0.683200 -0.514049
O8    O     O_R   0.499910 0.379720 0.683200 -0.554824
O9    O     O_3   0.288712 0.390699 0.900947 -0.744933
H14   H     H_    0.237563 0.362684 0.972305 0.306945
O10   O     O_3   0.631141 0.138412 0.323077 -0.682578
H15   H     H_    0.717563 0.117202 0.297906 0.296313
O11   O     O_3   0.609356 0.865250 0.307530 -0.706163
H16   H     H_    0.695827 0.871420 0.276723 0.292142
N3    N     N_3   0.600530 0.154152 0.713449 -0.511328
H17   H     H_    0.690767 0.133689 0.685730 0.178388
H18   H     H_    0.593310 0.126521 0.806686 0.221877
N4    N     N_3   0.625304 0.871737 0.694612 -0.509865
H19   H     H_    0.705714 0.915440 0.659729 0.138683
H20   H     H_    0.627993 0.903523 0.788337 0.212569
N5    N     N_3   0.363042 0.125564 0.310062 -0.565694
H21   H     H_    0.330762 0.227296 0.309114 0.268808
H22   H     H_    0.435313 0.108805 0.248213 0.285177
N6    N     N_3   0.349690 0.851626 0.317634 -0.565771
H23   H     H_    0.315031 0.750302 0.319276 0.241729
H24   H     H_    0.410932 0.866029 0.244995 0.290387
N7    N     N_3   0.380220 0.128421 0.697216 -0.612866
H25   H     H_    0.342724 0.221031 0.667537 0.329101
H26   H     H_    0.389655 0.137455 0.794661 0.236739
N8    N     N_3   0.406557 0.860034 0.710353 -0.476251
H27   H     H_    0.415189 0.898587 0.802412 0.225045
H28   H     H_    0.317024 0.887835 0.684070 0.192346
N9    N     N_3   0.535681 0.774190 0.952690 -0.593880
H29   H     H_    0.487547 0.831492 0.020996 0.219619
H30   H     H_    0.629745 0.796769 0.969823 0.209755
N10   N     N_3   0.700766 0.341283 0.916749 -0.600844
H31   H     H_    0.753785 0.314810 0.994892 0.219167
H32   H     H_    0.755701 0.406046 0.863954 0.218243
N11   N     N_3   0.136982 0.562046 0.721754 -0.555803
H33   H     H_    0.117747 0.666630 0.708153 0.184988
H34   H     H_    0.109811 0.539121 0.812128 0.231029
N12   N     N_3   0.106811 0.421087 0.265960 -0.644215
H35   H     H_    0.084183 0.339679 0.201827 0.199719
H36   H     H_    0.203534 0.430435 0.263304 0.179251
O12   O     O_3   0.106408 0.329667 0.656066 -0.689061
H37   H     H_    0.078661 0.311735 0.742202 0.323829
O13   O     O_3   0.114597 0.251607 0.419109 -0.724456
H38   H     H_    0.078454 0.183289 0.356421 0.304613
N13   N     N_3   0.879812 0.585626 0.717854 -0.615685
H39   H     H_    0.915806 0.684482 0.701766 0.231071
H40   H     H_    0.904277 0.560525 0.809089 0.199585
N14   N     N_3   0.855932 0.378131 0.283064 -0.598603
H41   H     H_    0.881566 0.462692 0.230044 0.232949
H42   H     H_    0.877529 0.286414 0.232627 0.201783

loop_
_geom_bond_atom_site_label_1
_geom_bond_atom_site_label_2
_ccdc_geom_bond_type
Cu1   O5    S    
C7    C10   S    
Cu2   O4    S    
C1    C8    S    
N8    H27   S    
N14   H41   S    
C10   H1    S    
C4    C8    S    
C6    C9    S    
C7    C8    S    
C21   H8    S    
N12   H35   S    
N9    H30   S    
C12   N2    S    
Cu2   O8    S    
C13   N7    S    
N3    H18   S    
C15   C16   S    
O11   H16   S    
C11   N1    S    
N4    H20   S    
C16   H6    S    
C20   H7    S    
Cu1   O1    S    
C20   C24   S    
C7    H12   S    
N7    H25   S    
C9    C10   S    
Cu1   O7    S    
C23   C25   S    
C11   H3    S    
C21   C22   S    
C12   H4    S    
C2    C17   S    
N8    H28   S    
C3    N11   S    
C13   N1    S    
C4    O13   S    
N12   H36   S    
Cu2   O2    S    
C2    C20   S    
N6    H23   S    
C14   N8    S    
C5    H10   S    
C17   O3    A    
C4    C6    S    
C3    C8    S    
N10   H32   S    
C24   N9    S    
C13   N3    S    
N3    H17   S    
C14   N4    S    
N6    H24   S    
N5    H22   S    
C19   C23   S    
C5    C9    S    
C19   O8    A    
Cu2   O6    S    
C10   H2    S    
C1    O1    A    
C15   N5    S    
C2    C21   S    
N13   H40   S    
C2    C26   S    
C16   N6    S    
N9    H29   S    
C16   N2    S    
C12   O11   S    
C11   O10   S    
Cu1   O3    S    
C20   C22   S    
C6    N14   S    
N11   H34   S    
O9    H14   S    
C22   O9    S    
C6    H11   S    
C21   C25   S    
O10   H15   S    
C3    O12   S    
C25   N10   S    
C17   O4    A    
C15   N1    S    
C24   C26   S    
C3    C5    S    
C18   O5    A    
C11   C12   S    
N14   H42   S    
C26   H9    S    
C4    N12   S    
N5    H21   S    
C25   C26   S    
C19   O7    A    
C1    O2    A    
O13   H38   S    
Cu2   N1    S    
N13   H39   S    
C7    H13   S    
N4    H19   S    
C5    N13   S    
C23   C24   S    
N10   H31   S    
Cu1   N2    S    
C9    C18   S    
O12   H37   S    
N11   H33   S    
Cu1   Cu2   S    
C22   C23   S    
N7    H26   S    
C13   C14   S    
C15   H5    S    
C18   O6    A    
C14   N2    S    
