data_mof_unit_20684.cif
_audit_creation_date              2012-12-10T20:39:59-0500
_audit_creation_method            fapswitch 2.2
_symmetry_space_group_name_H-M    P1
_symmetry_Int_Tables_number       1
_space_group_crystal_system       triclinic
_cell_length_a                    23.201769
_cell_length_b                    10.657747
_cell_length_c                    9.83982
_cell_angle_alpha                 90.093128
_cell_angle_beta                  90.747669
_cell_angle_gamma                 90.142732
_cell_volume                      2432.95870005

loop_
_atom_site_label
_atom_site_type_symbol
_atom_type_description
_atom_site_fract_x
_atom_site_fract_y
_atom_site_fract_z
_atom_type_partial_charge
C1    C     C_R   0.504336 0.260188 0.499938 0.869920
C2    C     C_R   0.972159 0.553699 0.741940 -0.168320
C3    C     C_R   0.031663 0.550000 0.740209 -0.192386
C4    C     C_R   0.061157 0.573995 0.619729 0.000413
C5    C     C_R   0.030686 0.606970 0.499373 -0.040236
C6    C     C_R   0.060667 0.629174 0.376785 -0.051152
C7    C     C_R   0.028557 0.661723 0.256448 0.029239
C8    C     C_R   0.968163 0.681138 0.265100 -0.050651
C9    C     C_R   0.120710 0.562019 0.616771 0.499526
C10   C     C_R   0.121707 0.617503 0.381731 0.499396
C11   C     C_R   0.247857 0.659778 0.484235 -0.087626
C12   C     C_R   0.389445 0.499796 0.499200 0.879261
C13   C     C_R   0.306696 0.638070 0.483588 -0.202684
C14   C     C_R   0.327733 0.515770 0.497186 -0.045610
C15   C     C_R   0.289866 0.413002 0.510448 0.052375
C16   C     C_R   0.230602 0.436186 0.510182 -0.127206
C17   C     C_R   0.209819 0.559001 0.497376 0.291252
C18   C     C_R   0.753931 0.639432 0.594369 -0.075246
C19   C     C_R   0.695549 0.610974 0.596268 -0.209170
C20   C     C_R   0.672457 0.523687 0.503703 -0.029927
C21   C     C_R   0.707958 0.464040 0.409949 -0.216091
C22   C     C_R   0.766756 0.489567 0.411047 -0.085934
C23   C     C_R   0.501708 0.740120 0.500239 0.889008
C24   C     C_R   0.789901 0.577984 0.502694 0.289772
C25   C     C_R   0.508750 0.064270 0.622814 0.143116
C26   C     C_R   0.516885 0.129123 0.501676 -0.209732
C27   C     C_R   0.536584 0.063131 0.385706 -0.034453
C28   C     C_R   0.532301 0.932489 0.386612 -0.176096
C29   C     C_R   0.511786 0.871220 0.502294 -0.178911
C30   C     C_R   0.506559 0.936968 0.623379 0.042786
C31   C     C_3   0.462919 0.932919 0.734405 -0.177642
C32   C     C_3   0.464614 0.075764 0.731931 -0.547377
C33   C     C_R   0.473531 0.405296 0.070297 0.233214
C34   C     C_R   0.610765 0.502236 0.500901 0.851349
C35   C     C_R   0.530530 0.586916 0.073165 -0.105380
C36   C     C_R   0.530558 0.586890 0.928999 -0.097075
C37   C     C_R   0.473248 0.405776 0.927537 0.223855
C38   C     C_3   0.410719 0.373528 0.920278 -0.490106
C39   C     C_3   0.411242 0.371223 0.074432 -0.510390
C40   C     C_R   0.877330 0.640427 0.390211 0.526018
C41   C     C_R   0.881038 0.575449 0.622145 0.505676
C42   C     C_R   0.940961 0.582298 0.623310 0.012012
C43   C     C_R   0.970010 0.613033 0.502206 -0.034486
C44   C     C_R   0.938294 0.647696 0.384925 -0.076513
H1    H     H_    0.950710 0.531522 0.836084 0.183014
H2    H     H_    0.668138 0.659407 0.667517 0.154761
H3    H     H_    0.690316 0.396946 0.337669 0.152631
H4    H     H_    0.794431 0.440565 0.340963 0.156131
H5    H     H_    0.543512 0.879231 0.296840 0.199595
H6    H     H_    0.480915 0.892437 0.830092 0.194638
H7    H     H_    0.424203 0.121019 0.695052 0.181159
H8    H     H_    0.483215 0.116895 0.826735 0.227813
H9    H     H_    0.554236 0.658474 0.128567 0.155832
H10   H     H_    0.054438 0.524828 0.832949 0.187364
H11   H     H_    0.554285 0.658415 0.875287 0.146172
H12   H     H_    0.384036 0.450602 0.876961 0.244813
H13   H     H_    0.402718 0.279880 0.874167 0.195536
H14   H     H_    0.384283 0.445830 0.120335 0.230759
H15   H     H_    0.404624 0.275546 0.116224 0.206098
H16   H     H_    0.231715 0.754674 0.474898 0.144100
H17   H     H_    0.336000 0.716746 0.473353 0.140925
H18   H     H_    0.200309 0.359178 0.519081 0.137800
H19   H     H_    0.771357 0.708417 0.664716 0.163078
N1    N     N_R   0.850704 0.601246 0.505933 -0.356735
N2    N     N_R   0.149218 0.581087 0.498787 -0.348044
N3    N     N_R   0.499610 0.499140 0.142800 -0.115276
N4    N     N_R   0.499610 0.499180 0.857150 -0.105524
O1    O     O_R   0.500010 0.316790 0.614690 -0.604086
O2    O     O_2   0.853249 0.538621 0.735117 -0.556121
O3    O     O_2   0.150298 0.530897 0.730935 -0.565032
O4    O     O_2   0.154117 0.642615 0.272591 -0.579436
O5    O     O_R   0.500000 0.316760 0.385350 -0.637870
O6    O     O_R   0.416160 0.499980 0.614700 -0.593979
O7    O     O_R   0.416150 0.499940 0.385360 -0.621444
O8    O     O_R   0.500000 0.683240 0.614650 -0.606518
O9    O     O_R   0.499990 0.683210 0.385310 -0.622229
O10   O     O_R   0.583850 0.500060 0.614640 -0.615608
O11   O     O_R   0.583840 0.500020 0.385300 -0.623162
O12   O     O_2   0.844522 0.667869 0.280119 -0.528463
Zn1   Zn    Zn3+2 0.500000 0.500020 0.653130 0.976413
Zn2   Zn    Zn3+2 0.500000 0.499980 0.346870 0.947629
C45   C     C_2   0.561205 0.126151 0.264849 0.427034
H20   H     H_    0.579459 0.219651 0.272975 0.086387
O13   O     O_2   0.562609 0.072973 0.154893 -0.588512
C46   C     C_2   0.405615 0.878462 0.691445 0.452913
H21   H     H_    0.384785 0.908400 0.597813 0.041496
O14   O     O_2   0.382384 0.799190 0.761508 -0.555436
C47   C     C_3   0.056293 0.671242 0.116719 -0.360136
C48   C     C_3   0.079045 0.804053 0.088967 -0.296683
C49   C     C_3   0.110135 0.809821 0.953368 -0.794593
H22   H     H_    0.147312 0.744335 0.953687 0.298394
H23   H     H_    0.080140 0.784620 0.868704 0.257654
H24   H     H_    0.126378 0.906520 0.936280 0.244003
H25   H     H_    0.042461 0.871120 0.086102 0.222383
H26   H     H_    0.109111 0.834766 0.171226 0.258001
H27   H     H_    0.089606 0.598321 0.102623 0.255821
H28   H     H_    0.024982 0.645967 0.035257 0.140339
C50   C     C_2   0.937281 0.741915 0.149712 0.529277
H29   H     H_    0.932358 0.694203 0.052803 0.048715
O15   O     O_2   0.917118 0.846820 0.163261 -0.523533
C51   C     C_3   0.311475 0.279500 0.521659 -0.446861
C52   C     C_3   0.326853 0.228032 0.381177 -0.338145
C53   C     C_3   0.350796 0.095205 0.390231 -0.877110
H30   H     H_    0.391334 0.094829 0.451247 0.253671
H31   H     H_    0.318863 0.031341 0.437258 0.258654
H32   H     H_    0.360426 0.060232 0.286646 0.262060
H33   H     H_    0.287772 0.227450 0.314563 0.234259
H34   H     H_    0.359734 0.288937 0.333889 0.234756
H35   H     H_    0.349574 0.275830 0.591204 0.198405
H36   H     H_    0.277830 0.218478 0.566840 0.212266

loop_
_geom_bond_atom_site_label_1
_geom_bond_atom_site_label_2
_ccdc_geom_bond_type
O1    Zn1   S    
C22   H4    S    
C47   H27   S    
C51   C52   S    
C31   C46   S    
C12   O7    A    
C35   H9    S    
C41   C42   A    
C19   C20   A    
C23   O9    A    
C19   H2    S    
C7    C8    A    
C46   H21   S    
C26   C27   A    
C33   C39   S    
C18   C24   A    
C23   C29   S    
C28   C29   A    
C37   C38   S    
C34   O10   A    
C30   C31   S    
C3    H10   S    
C18   H19   S    
O10   Zn1   S    
C51   H35   S    
C15   C16   A    
C1    O1    A    
C18   C19   A    
C48   H25   S    
C8    C50   S    
C32   H8    S    
C31   C32   S    
C16   C17   A    
C52   H34   S    
O8    Zn1   S    
O5    Zn2   S    
C20   C34   S    
C10   O4    S    
C25   C32   S    
C5    C43   A    
C24   N1    S    
C21   C22   A    
C16   H18   S    
C12   O6    A    
C33   N3    A    
C46   O14   D    
C2    H1    S    
C38   C39   S    
C36   N4    A    
C1    O5    A    
C8    C44   A    
C9    O3    S    
C35   N3    A    
C51   H36   S    
C39   H14   S    
C33   C37   A    
C35   C36   A    
C48   H26   S    
C43   C44   A    
C32   H7    S    
C29   C30   A    
C38   H13   S    
C28   H5    S    
C49   H23   S    
C7    C47   S    
C4    C9    A    
C39   H15   S    
C20   C21   A    
C40   O12   S    
C13   H17   S    
C52   H33   S    
C53   H31   S    
C15   C51   S    
C12   C14   S    
C45   H20   S    
C45   O13   D    
C1    C26   S    
C22   C24   A    
C42   C43   A    
C31   H6    S    
C3    C4    A    
C53   H30   S    
C49   H24   S    
C41   O2    S    
C10   N2    A    
C25   C30   A    
C11   C17   A    
C27   C45   S    
N4    Zn1   S    
C47   H28   S    
C23   O8    A    
C4    C5    A    
O9    Zn2   S    
C6    C10   A    
C6    C7    A    
C17   N2    S    
C40   N1    A    
C2    C3    A    
C25   C26   A    
C36   H11   S    
C34   O11   A    
N3    Zn2   S    
C11   C13   A    
O11   Zn2   S    
C49   H22   S    
C5    C6    A    
C2    C42   A    
C37   N4    A    
O6    Zn1   S    
C53   H32   S    
C52   C53   S    
C50   O15   D    
C9    N2    A    
C40   C44   A    
C38   H12   S    
C47   C48   S    
C50   H29   S    
C27   C28   A    
C14   C15   A    
O7    Zn2   S    
C41   N1    A    
C48   C49   S    
C13   C14   A    
C11   H16   S    
C21   H3    S    
