data_mof_unit_36919.cif
_audit_creation_date              2012-12-10T16:59:12-0500
_audit_creation_method            fapswitch 2.2
_symmetry_space_group_name_H-M    P1
_symmetry_Int_Tables_number       1
_space_group_crystal_system       triclinic
_cell_length_a                    7.7237
_cell_length_b                    8.559875
_cell_length_c                    27.695709
_cell_angle_alpha                 91.047351
_cell_angle_beta                  86.197111
_cell_angle_gamma                 93.81941
_cell_volume                      1822.80511566

loop_
_atom_site_label
_atom_site_type_symbol
_atom_type_description
_atom_site_fract_x
_atom_site_fract_y
_atom_site_fract_z
_atom_type_partial_charge
C1    C     C_R   0.546043 0.794945 0.498649 0.970417
C2    C     C_R   0.522124 0.648062 0.126050 -0.017382
C3    C     C_R   0.510936 0.487027 0.646786 -0.064659
C4    C     C_R   0.493602 0.521721 0.353972 -0.060485
C5    C     C_R   0.567865 0.635968 0.023936 0.048560
C6    C     C_R   0.512671 0.343387 0.974503 0.047894
C7    C     C_R   0.494565 0.350108 0.025787 0.048501
C8    C     C_R   0.589641 0.628725 0.972756 0.047903
C9    C     C_R   0.521438 0.496510 0.050125 0.071266
C10   C     C_R   0.558046 0.483140 0.948341 0.071856
C11   C     C_R   0.588000 0.778986 0.050077 -0.225138
C12   C     C_R   0.453959 0.205064 0.501250 0.968846
C13   C     C_R   0.486411 0.201319 0.948151 -0.225863
C14   C     C_R   0.564680 0.784583 0.100053 -0.144533
C15   C     C_R   0.497614 0.197779 0.898011 -0.142027
C16   C     C_R   0.502130 0.496429 0.594074 0.864865
C17   C     C_R   0.498763 0.508151 0.406257 0.866687
C18   C     C_R   0.641433 0.762772 0.944818 -0.227363
C19   C     C_R   0.447436 0.215471 0.053876 -0.227483
C20   C     C_2   0.570355 0.958424 0.497703 -0.380893
C21   C     C_2   0.429660 0.041588 0.502056 -0.386364
C22   C     C_R   0.611061 0.609465 0.820093 0.507715
C23   C     C_R   0.569763 0.477685 0.897050 -0.050409
C24   C     C_R   0.452361 0.374624 0.178674 0.507028
C25   C     C_R   0.538925 0.334114 0.821570 0.504294
C26   C     C_R   0.502017 0.652521 0.176577 0.500240
C27   C     C_R   0.388428 0.439463 0.728568 -0.131889
C28   C     C_R   0.621708 0.594022 0.274834 -0.129294
C29   C     C_R   0.364169 0.445541 0.679023 0.070231
C30   C     C_R   0.628484 0.602653 0.325087 0.065939
C31   C     C_R   0.675619 0.517097 0.665278 -0.258458
C32   C     C_R   0.347693 0.452068 0.332354 -0.258897
C33   C     C_R   0.696281 0.508686 0.714383 -0.103948
C34   C     C_R   0.501406 0.503639 0.101366 -0.050745
C35   C     C_R   0.338010 0.454781 0.282582 -0.099909
C36   C     C_R   0.552848 0.470761 0.746027 0.292190
C37   C     C_R   0.477065 0.521949 0.253534 0.271584
C38   C     C_3   0.775334 0.706080 0.345309 -0.448893
C39   C     C_3   0.757445 0.879183 0.334052 -0.316905
C40   C     C_3   0.898227 0.984832 0.356687 -0.860479
C41   C     C_3   0.181933 0.405552 0.663010 -0.410725
C42   C     C_3   0.167309 0.244581 0.637652 -0.309330
C43   C     C_3   0.988569 0.212407 0.617718 -0.825407
C44   C     C_R   0.612120 0.615284 0.870529 -0.021375
C45   C     C_R   0.461098 0.366322 0.128086 -0.018930
C46   C     C_R   0.651004 0.756046 0.894745 -0.141249
C47   C     C_R   0.432879 0.223572 0.103964 -0.141275
C48   C     C_R   0.536336 0.335165 0.872123 -0.021507
H1    H     H_    0.789686 0.548772 0.641721 0.164987
H2    H     H_    0.279137 0.410621 0.754147 0.139446
H3    H     H_    0.583075 0.896795 0.118325 0.190477
H4    H     H_    0.473114 0.086512 0.879594 0.193569
H5    H     H_    0.620516 0.890160 0.033259 0.137778
H6    H     H_    0.455203 0.089738 0.964872 0.139583
H7    H     H_    0.675976 0.875848 0.960227 0.142400
H8    H     H_    0.419877 0.100977 0.038589 0.140720
H9    H     H_    0.703079 0.009764 0.493448 0.176450
H10   H     H_    0.296935 0.990261 0.506306 0.178999
H11   H     H_    0.887052 0.974297 0.396713 0.255183
H12   H     H_    0.241551 0.393485 0.354028 0.160694
H13   H     H_    0.029281 0.952533 0.342610 0.271745
H14   H     H_    0.882842 0.108663 0.347475 0.255572
H15   H     H_    0.767839 0.897015 0.294300 0.252513
H16   H     H_    0.627948 0.914561 0.348614 0.233106
H17   H     H_    0.779280 0.698225 0.384903 0.239078
H18   H     H_    0.901788 0.668357 0.329164 0.208420
H19   H     H_    0.884780 0.214877 0.647431 0.267445
H20   H     H_    0.966475 0.301476 0.590505 0.269826
H21   H     H_    0.981052 0.094993 0.599971 0.240352
H22   H     H_    0.268062 0.236644 0.607398 0.227610
H23   H     H_    0.014171 0.383255 0.463395 0.192718
H24   H     H_    0.187928 0.152222 0.664017 0.229837
H25   H     H_    0.086506 0.401625 0.694888 0.186705
H26   H     H_    0.140673 0.499475 0.640114 0.221115
H27   H     H_    0.985797 0.616475 0.536687 0.186796
H28   H     H_    0.823466 0.533733 0.728041 0.142007
H29   H     H_    0.224035 0.401455 0.266499 0.160942
H30   H     H_    0.688018 0.862629 0.875054 0.193395
H31   H     H_    0.397465 0.117009 0.123774 0.194570
H32   H     H_    0.728283 0.646695 0.251945 0.153235
N1    N     N_R   0.571648 0.470730 0.796893 -0.354969
N2    N     N_R   0.473573 0.516434 0.201898 -0.350695
N3    N     N_2   0.950320 0.457960 0.486880 -0.180885
N4    N     N_2   0.049680 0.542040 0.513120 -0.182495
O1    O     O_R   0.389250 0.738570 0.503220 -0.609109
O2    O     O_2   0.426986 0.241659 0.204403 -0.544501
O3    O     O_2   0.511528 0.791748 0.200311 -0.552297
O4    O     O_2   0.507159 0.198301 0.797191 -0.539973
O5    O     O_R   0.610750 0.261430 0.496780 -0.607513
O6    O     O_R   0.678390 0.711630 0.494810 -0.637584
O7    O     O_R   0.321610 0.288370 0.505190 -0.632152
O8    O     O_R   0.355440 0.513440 0.575450 -0.619909
O9    O     O_R   0.644560 0.486560 0.424550 -0.627432
O10   O     O_R   0.644590 0.486500 0.567040 -0.632094
O11   O     O_R   0.355410 0.513500 0.432960 -0.622747
O12   O     O_2   0.644584 0.741955 0.794450 -0.538771
Zn1   Zn    Zn3+2 0.306940 0.517990 0.505620 0.933774
Zn2   Zn    Zn3+2 0.693060 0.482010 0.494380 0.927883

loop_
_geom_bond_atom_site_label_1
_geom_bond_atom_site_label_2
_ccdc_geom_bond_type
C19   H8    S    
C1    O6    A    
C27   C29   A    
C41   C42   S    
C12   O7    A    
C47   H31   S    
N4    Zn1   S    
C39   H16   S    
C24   C45   A    
C35   C37   A    
C5    C11   A    
C38   C39   S    
C11   C14   A    
C19   C47   A    
H27   N4    S    
O10   Zn2   S    
C42   H22   S    
C33   C36   A    
C40   H14   S    
C30   C38   S    
C3    C29   A    
C24   N2    A    
C41   H26   S    
C22   C44   A    
N3    N4    D    
C43   H20   S    
N3    Zn2   S    
C31   C33   A    
C17   O11   A    
C11   H5    S    
C27   H2    S    
C2    C34   A    
C26   N2    A    
C40   H11   S    
C25   N1    A    
C15   C48   A    
C31   H1    S    
C2    C14   A    
C18   C46   A    
C44   C46   A    
O8    Zn1   S    
H23   N3    S    
C45   C47   A    
C1    O1    A    
C22   N1    A    
C38   H18   S    
C12   O5    A    
C39   C40   S    
C46   H30   S    
C26   O3    S    
C12   C21   S    
C35   H29   S    
C25   O4    S    
C8    C18   A    
C40   H13   S    
C32   C35   A    
C5    C9    A    
C33   H28   S    
C14   H3    S    
C38   H17   S    
C36   N1    S    
C42   H24   S    
C2    C26   A    
C34   C45   A    
C15   H4    S    
O7    Zn1   S    
C3    C31   A    
C25   C48   A    
C4    C32   A    
C18   H7    S    
C4    C17   S    
C43   H19   S    
C16   O8    A    
C7    C19   A    
C13   C15   A    
C9    C34   A    
C10   C23   A    
C37   N2    S    
C17   O9    A    
C42   C43   S    
C32   H12   S    
C13   H6    S    
C7    C9    A    
C1    C20   S    
C23   C48   A    
C29   C41   S    
C22   O12   S    
C6    C10   A    
C5    C8    A    
O11   Zn1   S    
C6    C7    A    
C27   C36   A    
C39   H15   S    
C16   O10   A    
O5    Zn2   S    
C28   C30   A    
C21   H10   S    
C6    C13   A    
C28   C37   A    
C28   H32   S    
O1    Zn1   S    
C23   C44   A    
C41   H25   S    
C20   C21   D    
C8    C10   A    
C20   H9    S    
C43   H21   S    
C24   O2    S    
O9    Zn2   S    
O6    Zn2   S    
C4    C30   A    
C3    C16   S    
