data_mof_unit_55577.cif
_audit_creation_date              2012-12-11T14:57:55-0500
_audit_creation_method            fapswitch 2.2
_symmetry_space_group_name_H-M    P1
_symmetry_Int_Tables_number       1
_space_group_crystal_system       triclinic
_cell_length_a                    6.948102
_cell_length_b                    16.79976
_cell_length_c                    16.963211
_cell_angle_alpha                 100.39041
_cell_angle_beta                  89.777809
_cell_angle_gamma                 91.115922
_cell_volume                      1947.21622041

loop_
_atom_site_label
_atom_site_type_symbol
_atom_type_description
_atom_site_fract_x
_atom_site_fract_y
_atom_site_fract_z
_atom_type_partial_charge
O1    O     O_R   0.506180 0.438940 0.579430 -0.540550
O2    O     O_R   0.170520 0.406230 0.413590 -0.530795
O3    O     O_R   0.005180 0.561060 0.420570 -0.518155
C1    C     C_R   0.338672 0.385690 0.382752 0.756452
O4    O     O_R   0.176140 0.429310 0.578370 -0.549761
O5    O     O_R   0.010830 0.584300 0.586530 -0.538201
C2    C     C_R   0.342411 0.413423 0.605147 0.685114
O6    O     O_R   0.500520 0.415700 0.413470 -0.531078
O7    O     O_3   0.340830 0.550820 0.502480 -0.354063
V1    V     V_3+5 0.064040 0.490570 0.499540 1.451649
O8    O     O_R   0.681400 0.593770 0.586410 -0.540486
C3    C     C_R   0.851237 0.616471 0.614756 0.684939
O9    O     O_R   0.675790 0.570690 0.421630 -0.529807
C4    C     C_R   0.845448 0.587082 0.395612 0.723759
V2    V     V_3+5 0.564650 0.509430 0.500460 1.460216
O10   O     O_3   0.837730 0.449180 0.497520 -0.373409
C5    C     C_R   0.913231 0.862911 0.167891 -0.049594
C6    C     C_R   0.854813 0.637284 0.332114 -0.029023
C7    C     C_R   0.777035 0.653737 0.195939 -0.161480
C8    C     C_R   0.782958 0.605823 0.255418 -0.112373
C9    C     C_R   0.928057 0.717233 0.347952 -0.224472
C10   C     C_R   0.923996 0.765889 0.288170 0.160266
C11   C     C_R   0.845430 0.734192 0.211752 0.153931
C12   C     C_R   0.838670 0.783184 0.152346 -0.233058
C13   C     C_R   0.992916 0.893346 0.243469 -0.170428
C14   C     C_R   0.996740 0.845743 0.303311 -0.174297
H1    H     H_    0.779955 0.758858 0.093616 0.105832
H2    H     H_    0.051715 0.954413 0.256139 0.115453
H3    H     H_    0.718998 0.627792 0.137552 0.116205
H4    H     H_    0.058005 0.871212 0.361230 0.113868
H5    H     H_    0.731814 0.543664 0.241527 0.134691
H6    H     H_    0.984907 0.741777 0.406952 0.104631
H7    H     H_    0.068275 0.628168 0.970721 0.119121
C15   C     C_R   0.807060 0.909414 0.727240 -0.137919
C16   C     C_R   0.753677 0.923934 0.652091 -0.124502
C17   C     C_R   0.737169 0.860159 0.587589 -0.122900
C18   C     C_R   0.773419 0.781369 0.597808 -0.135911
C19   C     C_R   0.826241 0.764635 0.673593 0.068710
C20   C     C_R   0.843775 0.830000 0.739654 0.069257
C21   C     C_R   0.865068 0.684621 0.683887 -0.181206
C22   C     C_R   0.921733 0.669989 0.760218 0.069754
C23   C     C_R   0.939266 0.735353 0.826279 0.068759
C24   C     C_R   0.900507 0.815373 0.815979 -0.183600
C25   C     C_R   0.958372 0.590570 0.772638 -0.138691
C26   C     C_R   0.011665 0.576042 0.847796 -0.123706
C27   C     C_R   0.028169 0.639816 0.912299 -0.122286
C28   C     C_R   0.992013 0.718613 0.902071 -0.137835
H8    H     H_    0.820711 0.961209 0.775161 0.097573
H9    H     H_    0.726167 0.985104 0.643794 0.116605
H10   H     H_    0.696983 0.871800 0.529175 0.115161
H11   H     H_    0.760648 0.734027 0.545536 0.096749
H12   H     H_    0.944704 0.538777 0.724716 0.096855
H13   H     H_    0.039100 0.514868 0.856099 0.117808
H14   H     H_    0.004770 0.765954 0.954343 0.099042
H15   H     H_    0.475564 0.482895 0.121454 0.133973
C29   C     C_R   0.289333 0.220571 0.402523 -0.138092
C30   C     C_R   0.275522 0.141300 0.416032 -0.115956
C31   C     C_R   0.305957 0.076935 0.353664 -0.128849
C32   C     C_R   0.350041 0.091335 0.277238 -0.146409
C33   C     C_R   0.365287 0.171197 0.261630 0.073886
C34   C     C_R   0.333971 0.237408 0.325478 0.063193
C35   C     C_R   0.415799 0.185308 0.184370 -0.175239
C36   C     C_R   0.437489 0.265835 0.171042 0.054395
C37   C     C_R   0.397500 0.333356 0.233533 0.038636
C38   C     C_R   0.349600 0.318498 0.312122 -0.184094
C39   C     C_R   0.495968 0.279861 0.094671 -0.138774
C40   C     C_R   0.514209 0.357524 0.078612 -0.151617
C41   C     C_R   0.467707 0.423044 0.136754 -0.128361
C42   C     C_R   0.405798 0.412577 0.212817 0.101759
H16   H     H_    0.264872 0.268220 0.453402 0.097021
H17   H     H_    0.241627 0.129808 0.475366 0.115522
H18   H     H_    0.296314 0.015474 0.364651 0.112521
H19   H     H_    0.374713 0.039191 0.230884 0.101536
H20   H     H_    0.529186 0.230946 0.046102 0.110486
H21   H     H_    0.559939 0.366849 0.019804 0.125706
C43   C     C_R   0.429103 0.140272 0.833966 -0.066930
C44   C     C_R   0.336649 0.359925 0.666285 -0.063925
C45   C     C_R   0.146771 0.299893 0.763268 -0.206291
C46   C     C_R   0.166381 0.354939 0.710976 -0.167723
C47   C     C_R   0.489256 0.309006 0.676272 -0.245037
C48   C     C_R   0.469369 0.252567 0.728330 0.160565
C49   C     C_R   0.296401 0.247681 0.771980 0.160629
C50   C     C_R   0.276514 0.191223 0.824026 -0.242969
C51   C     C_R   0.599360 0.145274 0.789270 -0.167979
C52   C     C_R   0.618991 0.200352 0.737022 -0.207130
H22   H     H_    0.145338 0.188730 0.858392 0.124216
H23   H     H_    0.719821 0.106905 0.795345 0.123045
H24   H     H_    0.013538 0.297689 0.796304 0.122110
H25   H     H_    0.752220 0.202562 0.703984 0.121773
H26   H     H_    0.045905 0.393283 0.704853 0.122217
H27   H     H_    0.620439 0.311488 0.641906 0.123119
O11   O     O_R   0.265840 0.084300 0.086750 -0.534542
O12   O     O_R   0.589750 0.070740 0.921690 -0.547743
O13   O     O_R   0.755020 0.915730 0.913400 -0.536000
C53   C     C_R   0.423412 0.086691 0.895033 0.695412
O14   O     O_R   0.595830 0.093740 0.086480 -0.538010
O15   O     O_R   0.761150 0.938890 0.079360 -0.535271
C54   C     C_R   0.427618 0.115923 0.115761 0.696384
O16   O     O_R   0.259710 0.061140 0.920790 -0.537231
O17   O     O_3   0.425260 0.949200 0.997610 -0.365028
V3    V     V_3+5 0.702060 0.009430 0.000450 1.418228
O18   O     O_R   0.090530 0.929220 0.078150 -0.539884
C55   C     C_R   0.921160 0.913047 0.104387 0.693784
O19   O     O_R   0.084440 0.906220 0.913360 -0.538251
C56   C     C_R   0.914525 0.883535 0.885096 0.695157
V4    V     V_3+5 0.201450 0.990520 0.999290 1.427128
O20   O     O_3   0.928380 0.050800 0.002390 -0.369326
I1    I     I_    0.306230 0.523056 0.280214 -0.428559

loop_
_geom_bond_atom_site_label_1
_geom_bond_atom_site_label_2
_ccdc_geom_bond_type
V3    O20   S    
O13   C56   A    
C6    C9    A    
C22   C23   A    
C4    C6    S    
O2    C1    A    
C7    C8    A    
C12   H1    S    
C1    O6    A    
C43   C51   A    
O19   V4    S    
H15   C41   S    
O11   C54   A    
C26   C27   A    
C13   H2    S    
C35   C36   A    
C17   C18   A    
C43   C53   S    
O5    C3    A    
C19   C20   A    
C18   H11   S    
C53   O16   A    
V4    O20   S    
V2    O10   S    
C39   H20   S    
C29   C30   A    
C33   C35   A    
C15   C16   A    
C24   C56   S    
C46   H26   S    
C35   C54   S    
O8    V2    S    
C16   C17   A    
O13   V3    S    
C41   C42   A    
O14   C54   A    
C16   H9    S    
C11   C12   A    
C51   H23   S    
O1    V2    S    
O9    C4    A    
O7    V1    S    
C32   H19   S    
C2    C44   S    
C25   H12   S    
C39   C40   A    
C36   C39   A    
C26   H13   S    
C32   C33   A    
O12   C53   A    
O14   V3    S    
H7    C27   S    
C43   C50   A    
O19   C56   A    
C42   I1    S    
C48   C49   A    
C44   C46   A    
C9    H6    S    
C5    C12   A    
C40   C41   A    
C51   C52   A    
O12   V3    S    
O4    C2    A    
C52   H25   S    
C45   C46   A    
C20   C24   A    
C31   C32   A    
C15   C20   A    
C33   C34   A    
C3    C21   S    
C7    C11   A    
C18   C19   A    
C45   C49   A    
C5    C55   S    
C29   C34   A    
C37   C42   A    
C30   H17   S    
O15   C55   A    
O3    C4    A    
C28   H14   S    
O11   V4    S    
C21   C22   A    
C14   H4    S    
O6    V2    S    
C29   H16   S    
O9    V2    S    
C22   C25   A    
C40   H21   S    
C23   C24   A    
O2    V1    S    
C17   H10   S    
C25   C26   A    
C44   C47   A    
C45   H24   S    
O16   V4    S    
C27   C28   A    
O1    C2    A    
C47   C48   A    
O5    V1    S    
O8    C3    A    
O17   V4    S    
C5    C13   A    
C37   C38   A    
C47   H27   S    
C13   C14   A    
O4    V1    S    
O3    V1    S    
V1    O10   S    
C19   C21   A    
C31   H18   S    
C30   C31   A    
C1    C38   S    
O17   V3    S    
O18   V4    S    
C6    C8    A    
C23   C28   A    
O7    V2    S    
O18   C55   A    
O15   V3    S    
C36   C37   A    
C34   C38   A    
C50   H22   S    
C15   H8    S    
C49   C50   A    
C10   C14   A    
C10   C11   A    
C9    C10   A    
C48   C52   A    
C8    H5    S    
C7    H3    S    
