data_mof_unit_62881.cif
_audit_creation_date              2012-10-26T18:00:35-0400
_audit_creation_method            fapswitch 2.2
_symmetry_space_group_name_H-M    P1
_symmetry_Int_Tables_number       1
_space_group_crystal_system       triclinic
_cell_length_a                    18.922016
_cell_length_b                    18.704855
_cell_length_c                    18.8763
_cell_angle_alpha                 109.404575
_cell_angle_beta                  109.621883
_cell_angle_gamma                 109.38013
_cell_volume                      5143.43057064

loop_
_atom_site_label
_atom_site_type_symbol
_atom_type_description
_atom_site_fract_x
_atom_site_fract_y
_atom_site_fract_z
_atom_type_partial_charge
C1    C     C_R   0.381733 0.380986 0.500345 0.601633
C2    C     C_R   0.603144 0.337758 0.612284 -0.065064
C3    C     C_R   0.281689 0.226094 0.449312 0.035530
C4    C     C_R   0.618702 0.499851 0.618644 0.510927
C5    C     C_R   0.315869 0.315021 0.501726 -0.006401
C6    C     C_R   0.282792 0.339798 0.556804 -0.100574
C7    C     C_R   0.217086 0.276353 0.557173 0.186746
C8    C     C_R   0.184199 0.186470 0.501823 0.016914
C9    C     C_R   0.218954 0.165052 0.449581 -0.076421
C10   C     C_3   0.210013 0.089995 0.379373 -0.233456
C11   C     C_3   0.281320 0.159455 0.378342 0.140945
C12   C     C_R   0.759178 0.580767 0.756427 0.020681
C13   C     C_R   0.335196 0.559885 0.289988 -0.038383
C14   C     C_R   0.312678 0.499264 0.316982 -0.006956
C15   C     C_R   0.224275 0.446266 0.287628 0.235459
C16   C     C_R   0.618701 0.619307 0.500144 0.547977
C17   C     C_R   0.161090 0.447950 0.223420 -0.085831
C18   C     C_R   0.184907 0.500684 0.187607 0.000818
C19   C     C_R   0.272939 0.558404 0.224461 -0.033470
C20   C     C_3   0.330603 0.581042 0.187457 0.132628
C21   C     C_3   0.399840 0.584349 0.261689 0.102678
C22   C     C_R   0.754146 0.676809 0.495030 0.006099
C23   C     C_R   0.815274 0.500517 0.814364 0.016906
C24   C     C_R   0.687556 0.687839 0.503909 0.025168
C25   C     C_R   0.691971 0.769215 0.523215 -0.100320
C26   C     C_R   0.755457 0.833009 0.521636 -0.127302
C27   C     C_R   0.816583 0.816863 0.503728 0.025243
C28   C     C_R   0.380729 0.499501 0.381657 0.618904
C29   C     C_R   0.818499 0.740939 0.496426 0.022944
C30   C     C_3   0.821270 0.675251 0.427570 -0.272194
C31   C     C_3   0.750365 0.604789 0.425910 -0.247359
C32   C     C_R   0.999750 0.380963 0.881451 0.607759
C33   C     C_R   0.881607 0.500427 0.881638 0.541390
C34   C     C_R   0.746868 0.420117 0.739437 0.026996
C35   C     C_R   0.000808 0.619087 0.119121 0.537391
C36   C     C_R   0.118764 0.499330 0.118506 0.597998
C37   C     C_R   0.998978 0.117946 0.618711 0.593812
C38   C     C_R   0.118235 0.118405 0.499841 0.599744
C39   C     C_R   0.000318 0.881500 0.381119 0.530046
C40   C     C_R   0.773376 0.662096 0.761302 -0.083005
C41   C     C_R   0.881580 0.881263 0.500221 0.527788
C42   C     C_R   0.018382 0.252899 0.828789 0.070753
C43   C     C_R   0.998708 0.314232 0.813999 -0.005987
C44   C     C_R   0.983734 0.313911 0.735516 0.200837
C45   C     C_R   0.678157 0.419489 0.678555 0.007555
C46   C     C_R   0.982695 0.248732 0.671060 -0.048615
C47   C     C_R   0.999958 0.185871 0.685335 -0.015282
C48   C     C_R   0.019238 0.189730 0.764970 0.011000
C49   C     C_3   0.973429 0.118691 0.779395 -0.239437
C50   C     C_3   0.972032 0.187255 0.849129 0.137070
C51   C     C_R   0.931376 0.700159 0.166512 0.047705
C52   C     C_R   0.839898 0.740875 0.835977 -0.102231
C53   C     C_R   0.002431 0.687502 0.185204 -0.000558
C54   C     C_R   0.078960 0.748399 0.265377 -0.146677
C55   C     C_R   0.079075 0.812963 0.330024 -0.147800
C56   C     C_R   0.686170 0.500006 0.685437 -0.006866
C57   C     C_R   0.003243 0.818253 0.313647 -0.000908
C58   C     C_R   0.931923 0.764868 0.229481 -0.002136
C59   C     C_3   0.838703 0.708675 0.199023 -0.209394
C60   C     C_3   0.838486 0.637327 0.129899 0.110977
C61   C     C_R   0.893742 0.740607 0.907002 -0.087063
C62   C     C_R   0.884337 0.661678 0.901803 -0.043786
C63   C     C_R   0.819985 0.580793 0.824746 0.033252
C64   C     C_R   0.745015 0.339707 0.723741 -0.058114
C65   C     C_R   0.672702 0.260453 0.655106 -0.108471
C66   C     C_R   0.600957 0.259392 0.601012 -0.082793
Cl1   Cl    Cl    0.380174 0.157385 0.414508 -0.621981
Cl2   Cl    Cl    0.488852 0.692307 0.339332 -0.604158
Cl3   Cl    Cl    0.958310 0.389034 0.712552 -0.549218
Cl4   Cl    Cl    0.773711 0.613190 0.022254 -0.571049
Cu1   Cu    Cu3+1 0.500020 0.438210 0.438210 1.048379
Cu2   Cu    Cu3+1 0.499980 0.561790 0.561790 1.048353
Cu3   Cu    Cu3+1 0.938170 0.438220 0.000040 1.037522
Cu4   Cu    Cu3+1 0.061780 0.561790 0.000020 1.097395
Cu5   Cu    Cu3+1 0.061800 0.000020 0.561820 1.031586
Cu6   Cu    Cu3+1 0.938200 0.000080 0.438280 1.033538
H1    H     H_    0.543842 0.197537 0.549448 0.189832
H2    H     H_    0.755888 0.893852 0.532693 0.132128
H3    H     H_    0.799817 0.678113 0.366533 0.139522
H4    H     H_    0.883851 0.675938 0.452505 0.153368
H5    H     H_    0.687730 0.566863 0.363880 0.169981
H6    H     H_    0.772069 0.564806 0.449827 0.156120
H7    H     H_    0.966122 0.246019 0.609223 0.219722
H8    H     H_    0.907821 0.068121 0.722641 0.079369
H9    H     H_    0.848970 0.802330 0.839066 0.135227
H10   H     H_    0.014617 0.091895 0.803259 0.206317
H11   H     H_    0.905912 0.176110 0.833936 0.106165
H12   H     H_    0.229623 0.048716 0.402795 0.183034
H13   H     H_    0.136958 0.743360 0.279281 0.136146
H14   H     H_    0.137345 0.856994 0.392971 0.146688
H15   H     H_    0.829523 0.692183 0.247855 0.097383
H16   H     H_    0.798208 0.735174 0.172958 0.201410
H17   H     H_    0.828303 0.578913 0.137587 0.147142
H18   H     H_    0.943921 0.801807 0.965898 0.134179
H19   H     H_    0.927677 0.665260 0.959128 0.150897
H20   H     H_    0.799257 0.336780 0.763531 0.148879
H21   H     H_    0.671848 0.199600 0.644765 0.128229
H22   H     H_    0.545088 0.332978 0.568999 0.177894
H23   H     H_    0.145847 0.053857 0.319451 0.121258
H24   H     H_    0.306777 0.408329 0.598351 0.197581
H25   H     H_    0.072074 0.305228 0.519857 0.362474
H26   H     H_    0.187874 0.252989 0.306529 0.353134
H27   H     H_    0.292818 0.393902 0.117084 0.334419
H28   H     H_    0.157800 0.214954 0.024727 0.378927
H29   H     H_    0.259007 0.162524 0.317515 0.155486
H30   H     H_    0.093341 0.405808 0.199294 0.200650
H31   H     H_    0.346762 0.645149 0.190387 0.172314
H32   H     H_    0.419398 0.534381 0.242494 0.151770
H33   H     H_    0.734308 0.666279 0.707651 0.138377
H34   H     H_    0.643882 0.781682 0.534940 0.174466
O1    O     O_R   0.409840 0.357650 0.447820 -0.466649
O2    O     O_R   0.947830 0.090230 0.538080 -0.503712
O3    O     O_R   0.142360 0.090200 0.552220 -0.486128
O4    O     O_R   0.409810 0.462010 0.552170 -0.497916
O5    O     O_R   0.037990 0.090250 0.447890 -0.484321
O6    O     O_R   0.052170 0.909870 0.462020 -0.522351
O7    O     O_R   0.947790 0.909920 0.357690 -0.509567
O8    O     O_R   0.962010 0.909850 0.552210 -0.515710
O9    O     O_R   0.857640 0.909910 0.447880 -0.507072
O10   O     O_R   0.590190 0.447820 0.538000 -0.517911
O11   O     O_R   0.590150 0.552180 0.642350 -0.514841
O12   O     O_R   0.052170 0.462000 0.909870 -0.417740
O13   O     O_R   0.590190 0.537990 0.447830 -0.515593
O14   O     O_R   0.590160 0.642350 0.552180 -0.526431
O15   O     O_R   0.409850 0.447820 0.357650 -0.494158
O16   O     O_R   0.409810 0.552180 0.462000 -0.470799
O17   O     O_R   0.947790 0.357650 0.909890 -0.528493
O18   O     O_2   0.177677 0.270942 0.679328 -0.222978
O19   O     O_2   0.222445 0.409070 0.678248 -0.228070
O20   O     O_3   0.069854 0.277596 0.556230 -0.516875
O21   O     O_2   0.231388 0.426339 0.423355 -0.272463
O22   O     O_2   0.094062 0.327555 0.285774 -0.268947
O23   O     O_R   0.857610 0.447830 0.909870 -0.509838
O24   O     O_3   0.223837 0.301390 0.301620 -0.522045
O25   O     O_2   0.233851 0.498823 0.012725 -0.193590
O26   O     O_2   0.372986 0.504329 0.072380 -0.232646
O27   O     O_3   0.246573 0.396692 0.075521 -0.450301
O28   O     O_2   0.054856 0.293240 0.021971 -0.231865
O29   O     O_2   0.986955 0.135339 0.967280 -0.270000
O30   O     O_3   0.130063 0.211627 0.968037 -0.468697
O31   O     O_R   0.962000 0.552180 0.909850 -0.507984
O32   O     O_R   0.947780 0.538010 0.090190 -0.509107
O33   O     O_R   0.052160 0.642360 0.090170 -0.526696
O34   O     O_R   0.037950 0.447840 0.090220 -0.496496
O35   O     O_R   0.142340 0.552190 0.090190 -0.489399
O36   O     O_R   0.052210 0.090180 0.642410 -0.471703
S1    S     S_3+6 0.173580 0.311152 0.622218 0.052771
S2    S     S_3+6 0.190990 0.374756 0.326515 0.024545
S3    S     S_3+6 0.295874 0.494387 0.083501 0.057122
S4    S     S_3+6 0.036350 0.207806 0.955526 0.056382

loop_
_geom_bond_atom_site_label_1
_geom_bond_atom_site_label_2
_ccdc_geom_bond_type
Cu4   O33   S    
C22   C29   A    
Cu2   O11   S    
C35   C53   S    
Cu3   Cu4   S    
Cu4   O35   S    
C19   C20   S    
Cu5   Cu6   S    
O26   S3    D    
C7    C8    A    
C53   C54   A    
O28   S4    D    
Cu3   O17   S    
C10   H12   S    
C26   C27   A    
C26   H2    S    
C31   H6    S    
Cu1   O10   S    
C1    C5    S    
C32   O17   A    
Cu1   O13   S    
C52   H9    S    
C16   O13   A    
C55   H14   S    
C52   C61   A    
H27   O27   S    
C15   S2    S    
C27   C29   A    
C39   C57   S    
Cu2   O4    S    
Cu6   O5    S    
C20   S3    S    
C15   C17   A    
C18   C19   A    
C50   S4    S    
C37   O2    A    
C46   C47   A    
C45   C56   A    
C11   Cl1   S    
C8    C9    A    
C23   C33   S    
Cu1   O1    S    
C11   H29   S    
Cu5   O3    S    
C41   O8    A    
C37   C47   S    
C9    C10   S    
C20   H31   S    
C30   H4    S    
C60   H17   S    
C23   C63   A    
C59   C60   S    
C16   C24   S    
C13   C14   A    
C4    C56   S    
O27   S3    S    
C10   H23   S    
Cu5   O8    S    
C8    C38   S    
C44   C46   A    
C7    S1    S    
Cu3   O32   S    
C2    C45   A    
Cu6   O9    S    
O19   S1    D    
C22   C31   S    
C13   C19   A    
O22   S2    D    
C32   O12   A    
O21   S2    D    
C24   C25   A    
C64   H20   S    
C54   H13   S    
C51   C58   A    
C38   O3    A    
C61   H18   S    
C42   C48   A    
C33   O31   A    
C25   C26   A    
C40   C52   A    
H28   O30   S    
Cu2   O16   S    
C51   C53   A    
C6    H24   S    
C12   C40   A    
C43   C44   A    
H26   O24   S    
C29   C30   S    
C3    C9    A    
O25   S3    D    
C27   C41   S    
C47   C48   A    
C60   Cl4   S    
C30   C31   S    
Cu6   O2    S    
C23   C34   A    
C62   C63   A    
C34   C64   A    
C17   C18   A    
C40   H33   S    
C13   C21   S    
C44   Cl3   S    
C34   C45   A    
C59   H15   S    
C41   O9    A    
C12   C56   A    
C50   H11   S    
C42   C50   S    
C30   H3    S    
C25   H34   S    
C48   C49   S    
Cu4   O12   S    
Cu4   O31   S    
Cu3   O23   S    
C39   O6    A    
C55   C57   A    
C21   Cl2   S    
Cu2   O14   S    
C37   O36   A    
C22   C24   A    
C42   C43   A    
O30   S4    S    
C28   O15   A    
C49   H8    S    
C12   C63   A    
C66   H1    S    
C54   C55   A    
C62   H19   S    
O20   S1    S    
C49   H10   S    
C4    O10   A    
C3    C5    A    
O18   S1    D    
C2    C66   A    
C6    C7    A    
C51   C60   S    
C28   O16   A    
O24   S2    S    
O29   S4    D    
Cu6   O7    S    
C31   H5    S    
C64   C65   A    
C58   C59   S    
C65   H21   S    
Cu1   Cu2   S    
C39   O7    A    
C17   H30   S    
H25   O20   S    
C38   O5    A    
C57   C58   A    
C5    C6    A    
C32   C43   S    
C4    O11   A    
C59   H16   S    
C65   C66   A    
C36   O34   A    
C61   C62   A    
Cu5   O36   S    
C21   H32   S    
C3    C11   S    
C10   C11   S    
C35   O32   A    
C46   H7    S    
C33   O23   A    
C36   O35   A    
C20   C21   S    
C2    H22   S    
C49   C50   S    
C1    O4    A    
C14   C15   A    
Cu1   O15   S    
Cu5   O6    S    
C14   C28   S    
C16   O14   A    
C18   C36   S    
C1    O1    A    
C35   O33   A    
Cu3   O34   S    
