data_mof_unit_66628.cif
_audit_creation_date              2013-03-05T15:41:45-0500
_audit_creation_method            fapswitch 2.2
_symmetry_space_group_name_H-M    P1
_symmetry_Int_Tables_number       1
_space_group_crystal_system       triclinic
_cell_length_a                    8.312037
_cell_length_b                    15.072084
_cell_length_c                    15.01418
_cell_angle_alpha                 96.736375
_cell_angle_beta                  99.570385
_cell_angle_gamma                 98.815968
_cell_volume                      1813.09667458

loop_
_atom_site_label
_atom_site_type_symbol
_atom_site_description
_atom_site_fract_x
_atom_site_fract_y
_atom_site_fract_z
_atom_type_partial_charge
P1    P     P_3+3 0.004200 0.709230 0.580350 0.468979
O1    O     O_2   0.174080 0.723060 0.553930 -0.346385
O2    O     O_3   0.901570 0.609580 0.550840 -0.402886
O3    O     O_3   0.370350 0.665080 0.388270 -0.314869
O4    O     O_2   0.311717 0.823063 0.456590 -0.404254
O5    O     O_3   0.056890 0.732858 0.699585 -0.570918
O6    O     O_3   0.332538 0.811649 0.285565 -0.586133
C1    C     C_3   0.406265 0.873273 0.151702 0.083214
P2    P     P_3+3 0.305000 0.425570 0.290900 0.526554
P3    P     P_3+3 0.891929 0.615383 0.223276 0.544989
O7    O     O_2   0.134790 0.452800 0.278150 -0.335898
O8    O     O_3   0.937650 0.618620 0.340860 -0.420081
O9    O     O_2   0.017060 0.564787 0.182185 -0.318164
O10   O     O_3   0.252451 0.307968 0.295598 -0.579186
O11   O     O_3   0.936342 0.727383 0.200378 -0.430292
C2    C     C_3   0.931444 0.786767 0.279485 0.369931
H1    H     H_    0.021653 0.775256 0.338487 0.115699
H2    H     H_    0.805354 0.776680 0.295976 -0.016092
C3    C     C_3   0.984027 0.885655 0.267734 -0.080949
H3    H     H_    0.006917 0.928525 0.335494 0.045030
H4    H     H_    0.101830 0.894277 0.242731 0.171002
C4    C     C_3   0.717430 0.351385 0.268689 0.449199
H5    H     H_    0.596866 0.359242 0.286963 0.066302
H6    H     H_    0.810351 0.413279 0.298386 0.119189
C5    C     C_3   0.703043 0.342175 0.165298 -0.951304
H7    H     H_    0.674364 0.270597 0.133535 0.312422
H8    H     H_    0.600992 0.372778 0.133790 0.178570
H9    H     H_    0.817122 0.377891 0.147640 0.295929
Ba1   Ba    Ba6+2 0.154730 0.543770 0.458180 1.622928
C6    C     C_3   0.094183 0.655199 0.735427 0.357423
H10   H     H_    0.183337 0.624667 0.699895 0.123104
H11   H     H_    0.979665 0.604425 0.728613 0.124653
C7    C     C_3   0.170137 0.682243 0.836374 -0.863651
H12   H     H_    0.295089 0.724154 0.845015 0.275670
H13   H     H_    0.179597 0.621286 0.870071 0.233107
H14   H     H_    0.092046 0.722695 0.870902 0.277268
C8    C     C_3   0.193133 0.242898 0.215367 0.996647
C9    C     C_3   0.320392 0.239171 0.152953 -1.205849
H15   H     H_    0.342713 0.302045 0.123286 0.260879
H16   H     H_    0.272875 0.183649 0.094801 0.260911
H17   H     H_    0.437145 0.226485 0.191586 0.266503
P4    P     P_3+3 0.806080 0.290760 0.419570 0.509974
O12   O     O_2   0.636200 0.276890 0.446040 -0.369083
O13   O     O_3   0.908720 0.390410 0.449080 -0.401669
O14   O     O_3   0.439930 0.334910 0.611650 -0.380918
O15   O     O_3   0.762506 0.273072 0.300040 -0.527542
P5    P     P_3+3 0.915997 0.384232 0.777806 0.449892
O16   O     O_3   0.402060 0.547860 0.609750 -0.355312
O17   O     O_3   0.872630 0.381370 0.659060 -0.360402
O18   O     O_2   0.817922 0.452589 0.818920 -0.391845
O19   O     O_3   0.822927 0.280840 0.804569 -0.552277
Ba2   Ba    Ba6+2 0.655430 0.456220 0.541750 1.597603
P6    P     P_3+3 0.417030 0.782895 0.391916 0.474539
C10   C     C_3   0.448079 0.813306 0.226232 0.620355
H18   H     H_    0.575227 0.842544 0.263527 -0.064781
H19   H     H_    0.490021 0.864345 0.102068 0.153843
O20   O     O_3   0.408220 0.452130 0.390170 -0.357965
C11   C     C_3   0.685457 0.738289 0.779237 0.575260
H20   H     H_    0.763528 0.712443 0.732476 0.111161
C12   C     C_3   0.755955 0.726986 0.877622 -0.916238
H21   H     H_    0.795741 0.660173 0.879367 0.243573
H22   H     H_    0.865498 0.780614 0.906755 0.269004
H23   H     H_    0.661452 0.732759 0.921358 0.276399
P7    P     P_3+3 0.501166 0.575328 0.723900 0.444170
O21   O     O_2   0.675490 0.547140 0.721820 -0.384736
O22   O     O_3   0.519640 0.693396 0.753029 -0.582282
C13   C     C_3   0.915627 0.211843 0.788495 0.929461
H24   H     H_    0.010325 0.229610 0.745955 -0.090067
C14   C     C_3   0.002764 0.192164 0.880061 -1.043065
H25   H     H_    0.914119 0.181891 0.926813 0.304326
H26   H     H_    0.056522 0.129578 0.870181 0.233126
H27   H     H_    0.101110 0.249978 0.913165 0.233065
P8    P     P_3+3 0.399232 0.217799 0.606454 0.502782
C15   C     C_3   0.419466 0.264180 0.778785 0.458160
H28   H     H_    0.295505 0.281299 0.755270 -0.041142
O23   O     O_2   0.524256 0.178118 0.554803 -0.336903
O24   O     O_3   0.452330 0.194077 0.717697 -0.479436
H29   H     H_    0.515816 0.325854 0.786412 0.126905
H30   H     H_    0.381962 0.285209 0.918540 0.134002
C16   C     C_3   0.418002 0.232671 0.871219 -0.461639
H31   H     H_    0.324178 0.169675 0.860312 0.207611
C17   C     C_R   0.181791 0.170556 0.551642 0.131316
C18   C     C_R   0.112449 0.077713 0.545530 -0.014744
C19   C     C_R   0.968792 0.890579 0.534288 -0.051570
C20   C     C_R   0.130169 0.925267 0.582595 -0.071947
C21   C     C_R   0.201693 0.016045 0.586340 -0.172331
C22   C     C_R   0.897552 0.796497 0.525200 0.217524
H32   H     H_    0.204224 0.882892 0.618066 0.171239
H33   H     H_    0.327696 0.037147 0.622986 0.200345
C23   C     C_R   0.735481 0.767449 0.476332 -0.490478
C24   C     C_R   0.920524 0.202818 0.470232 0.252244
C25   C     C_R   0.852100 0.108369 0.460839 0.013107
C26   C     C_R   0.947235 0.046150 0.499449 0.095024
C27   C     C_R   0.689180 0.074481 0.416577 -0.009999
C28   C     C_R   0.617059 0.984224 0.413311 -0.140269
C29   C     C_R   0.708659 0.921455 0.449348 -0.010789
C30   C     C_R   0.875364 0.952412 0.493715 0.033445
C31   C     C_R   0.638595 0.828571 0.441551 0.139432
C32   C     C_R   0.084727 0.231442 0.515821 -0.432192
H34   H     H_    0.488280 0.964472 0.381480 0.136249
H35   H     H_    0.615160 0.118041 0.385032 0.138716
H36   H     H_    0.680297 0.696613 0.469893 0.187172
H37   H     H_    0.139237 0.302330 0.521841 0.182367
C33   C     C_R   0.234789 0.460266 0.763814 -0.478893
C34   C     C_R   0.137609 0.426386 0.823540 0.208670
C35   C     C_R   0.203616 0.437215 0.917288 -0.308700
C36   C     C_R   0.368462 0.483782 0.952693 0.095324
C37   C     C_R   0.458817 0.521032 0.890304 -0.256220
C38   C     C_R   0.392300 0.510247 0.797680 0.276793
C39   C     C_R   0.613760 0.537156 0.086159 -0.159205
C40   C     C_R   0.677843 0.556649 0.179940 0.258885
C41   C     C_R   0.419794 0.480272 0.210870 0.261801
C42   C     C_R   0.348851 0.472175 0.118410 -0.204904
C43   C     C_R   0.444190 0.498042 0.053177 0.103119
C44   C     C_R   0.579819 0.529137 0.242153 -0.430929
H38   H     H_    0.698904 0.554697 0.041689 0.138171
H39   H     H_    0.122605 0.410417 0.960340 0.176839
H40   H     H_    0.219320 0.445991 0.099402 0.190047
H41   H     H_    0.578771 0.562599 0.912113 0.146437
H42   H     H_    0.631285 0.540952 0.314464 0.143903
H43   H     H_    0.182917 0.454412 0.691892 0.161946
N1    N     N_R   0.448012 0.722262 0.182053 0.213546
O25   O     O_R   0.544039 0.711437 0.123072 -0.445245
O26   O     O_R   0.329426 0.656638 0.185652 -0.308383
N2    N     N_R   0.036737 0.258486 0.163512 0.225600
O27   O     O_R   0.903975 0.198042 0.157220 -0.419918
O28   O     O_R   0.038588 0.311562 0.101366 -0.492737
N3    N     N_2   0.160459 0.153715 0.245112 -0.102054
H44   H     H_    0.124845 0.099433 0.193027 0.215956
C45   C     C_3   0.272338 0.135190 0.322361 -0.879284
H45   H     H_    0.227522 0.067156 0.339337 0.225411
H46   H     H_    0.279884 0.185576 0.383458 0.283382
H47   H     H_    0.395696 0.137405 0.304568 0.235931
N4    N     N_R   0.234858 0.846087 0.100929 0.260386
O29   O     O_R   0.145251 0.907101 0.080620 -0.379354
O30   O     O_R   0.183286 0.763145 0.060014 -0.319392
N5    N     N_2   0.690844 0.834353 0.773674 -0.125104
H48   H     H_    0.657201 0.870864 0.828091 0.207694
C46   C     C_3   0.614499 0.855620 0.686798 -0.744715
H49   H     H_    0.666169 0.926086 0.679520 0.284917
H50   H     H_    0.478411 0.848957 0.682521 0.250841
H51   H     H_    0.638661 0.809097 0.630004 0.213014
N6    N     N_2   0.438667 0.967480 0.193453 -0.121689
H52   H     H_    0.355750 0.984429 0.233402 0.172518
C47   C     C_3   0.484735 0.034045 0.136309 -0.751803
H53   H     H_    0.546829 0.098415 0.180200 0.263771
H54   H     H_    0.372959 0.045012 0.090358 0.247163
H55   H     H_    0.574226 0.012170 0.094745 0.282313
N7    N     N_R   0.859034 0.917030 0.205160 0.259531
O31   O     O_R   0.810966 0.992736 0.229906 -0.413197
O32   O     O_R   0.815365 0.878201 0.120647 -0.315891
N8    N     N_R   0.801960 0.130005 0.741225 0.249061
O33   O     O_R   0.807379 0.099189 0.657571 -0.449189
O34   O     O_R   0.692512 0.087949 0.781525 -0.378170
N9    N     N_2   0.579227 0.215397 0.910470 -0.025313
H56   H     H_    0.662005 0.273746 0.939971 0.232330
C48   C     C_3   0.574040 0.145297 0.968200 -0.703365
H57   H     H_    0.505539 0.162797 0.022989 0.218538
H58   H     H_    0.701189 0.138670 0.999412 0.269310
H59   H     H_    0.511540 0.078990 0.927499 0.259546

loop_
_geom_bond_atom_site_label_1
_geom_bond_atom_site_label_2
_geom_bond_distance
_ccdc_geom_bond_type
P1    C22   1.889511 S    
C32   H37   1.081827 S    
C48   H57   1.105143 S    
C39   H38   1.075985 S    
O3    P6    1.750904 S    
N9    C48   1.443179 S    
C17   C32   1.407391 A    
C28   C29   1.404051 A    
C19   C22   1.431919 A    
N3    H44   1.033060 S    
C1    H19   1.111669 S    
C47   H53   1.106949 S    
P5    O17   1.753267 S    
C20   C21   1.396469 A    
C5    H9    1.104454 S    
N5    C46   1.446385 S    
C12   H23   1.111242 S    
C19   C30   1.428427 A    
O4    P6    1.543658 D    
C3    H4    1.100584 S    
P4    C24   1.903357 S    
P3    O11   1.758243 S    
N7    O32   1.300714 A    
C6    H10   1.106311 S    
O8    Ba1   2.768490 S    
C46   H51   1.104083 S    
O12   Ba2   2.876817 S    
O16   P7    1.745529 S    
C35   C36   1.424124 A    
C11   C12   1.535006 S    
N6    H52   1.027381 S    
C18   C26   1.413313 A    
C7    H14   1.104928 S    
C37   C38   1.389189 A    
O14   P8    1.735521 S    
P1    O1    1.519905 D    
P4    O15   1.750717 S    
C14   H26   1.109008 S    
C39   C40   1.399366 A    
C23   H36   1.081916 S    
C3    N7    1.454633 S    
C11   O22   1.408425 S    
C3    H3    1.110161 S    
C27   H35   1.064791 S    
C2    H1    1.110021 S    
P5    C34   1.840278 S    
C15   O24   1.405948 S    
C29   C31   1.414820 A    
C36   C37   1.408819 A    
C39   C43   1.422710 A    
O3    Ba1   2.779969 S    
P2    Ba1   3.423075 S    
C8    N3    1.466054 S    
O13   Ba2   2.939840 S    
P2    C41   1.845679 S    
C10   N1    1.452276 S    
C48   H58   1.106891 S    
C9    H16   1.109602 S    
C15   C16   1.519931 S    
C41   C42   1.398483 A    
C37   H41   1.070367 S    
C14   H25   1.105497 S    
P4    O13   1.582842 S    
P1    Ba1   3.434490 S    
C33   C34   1.392564 A    
C47   H54   1.107790 S    
P5    O18   1.543577 D    
C8    N2    1.466717 S    
C9    H15   1.097022 S    
C15   H28   1.111221 S    
Ba1   O16   2.789547 S    
C1    N4    1.471579 S    
C13   H24   1.114413 S    
C19   C20   1.404011 A    
C9    H17   1.100240 S    
C1    C10   1.547286 S    
C24   C25   1.431049 A    
C28   H34   1.077808 S    
P5    O19   1.751876 S    
C33   H43   1.082086 S    
O14   Ba2   2.779280 S    
C11   H20   1.109317 S    
C4    C5    1.525096 S    
P1    O5    1.750837 S    
C21   H33   1.079832 S    
C12   H21   1.108837 S    
P1    O2    1.582816 S    
P7    O22   1.758664 S    
C14   H27   1.104325 S    
C45   H46   1.106783 S    
P2    O10   1.771945 S    
C36   C43   1.511691 S    
C8    C9    1.528291 S    
C46   H49   1.107886 S    
O17   Ba2   2.769013 S    
C29   C30   1.415442 A    
C25   C27   1.394805 A    
C7    H12   1.108797 S    
P3    C40   1.835924 S    
O19   C13   1.407826 S    
P2    O7    1.520880 D    
P3    O8    1.736251 S    
C11   N5    1.454324 S    
C4    O15   1.400864 S    
N8    O34   1.300694 A    
C17   C18   1.415575 A    
C48   H59   1.110907 S    
O1    Ba1   2.876347 S    
C35   H39   1.075649 S    
N2    O27   1.301401 A    
P8    O23   1.545538 D    
C4    H6    1.110249 S    
H30   C16   1.110436 S    
C45   H47   1.098420 S    
P4    O12   1.520245 D    
O6    P6    1.764507 S    
N1    O26   1.297767 A    
C26   C30   1.433881 A    
P8    C17   1.850503 S    
C47   H55   1.110274 S    
C16   N9    1.446133 S    
C42   C43   1.411459 A    
N5    H48   1.032584 S    
C20   H32   1.077846 S    
C13   C14   1.527425 S    
N6    C47   1.443162 S    
C10   H18   1.107820 S    
C6    C7    1.523110 S    
O5    C6    1.399735 S    
C13   N8    1.460209 S    
Ba1   O20   2.943895 S    
C16   H31   1.109333 S    
P3    O9    1.545984 D    
N3    C45   1.443910 S    
N4    O30   1.300727 A    
O2    Ba2   2.816172 S    
N4    O29   1.301387 A    
P6    C31   1.858944 S    
C5    H8    1.092591 S    
C34   C35   1.403824 A    
P7    O21   1.575332 D    
C45   H45   1.109511 S    
C5    H7    1.100368 S    
Ba1   O13   2.815510 S    
N7    O31   1.299736 A    
C12   H22   1.110297 S    
C6    H11   1.108213 S    
C46   H50   1.110519 S    
O2    Ba1   2.938842 S    
P7    C38   1.823255 S    
C33   C38   1.388022 A    
C2    C3    1.526845 S    
C25   C26   1.429403 A    
C7    H13   1.106447 S    
C1    N6    1.448945 S    
P2    O20   1.564405 S    
C27   C28   1.391744 A    
Ba2   O20   2.789053 S    
C42   H40   1.066564 S    
O16   Ba2   2.942991 S    
C18   C21   1.408333 A    
N8    O33   1.297564 A    
O7    Ba1   2.850535 S    
C2    H2    1.108658 S    
C44   H42   1.081800 S    
C15   H29   1.111263 S    
C22   C23   1.399996 A    
N9    H56   1.031904 S    
N2    O28   1.298807 A    
P8    O24   1.748028 S    
C4    H5    1.101701 S    
C40   C44   1.395949 A    
O6    C10   1.413825 S    
C24   C32   1.398948 A    
N1    O25   1.299603 A    
C23   C31   1.403691 A    
C41   C44   1.393953 A    
Ba2   O21   2.850619 S    
O11   C2    1.411134 S    
P4    Ba2   3.435131 S    
O10   C8    1.425888 S    
Ba1   Ba2   4.580512 S    
