data_mof_unit_66118.cif
_audit_creation_date              2012-12-10T19:50:05-0500
_audit_creation_method            fapswitch 2.2
_symmetry_space_group_name_H-M    P1
_symmetry_Int_Tables_number       1
_space_group_crystal_system       triclinic
_cell_length_a                    36.810839
_cell_length_b                    18.26176
_cell_length_c                    18.265496
_cell_angle_alpha                 90.00672
_cell_angle_beta                  119.896011
_cell_angle_gamma                 89.965369
_cell_volume                      10644.726006

loop_
_atom_site_label
_atom_site_type_symbol
_atom_type_description
_atom_site_fract_x
_atom_site_fract_y
_atom_site_fract_z
_atom_type_partial_charge
C1    C     C_R   0.500048 0.999996 0.358820 0.936503
C2    C     C_1   0.336908 0.000672 0.338136 0.183355
C3    C     C_3   0.670618 0.371915 0.390113 -0.933211
C4    C     C_3   0.688233 0.592054 0.337211 0.262893
C5    C     C_3   0.693649 0.585199 0.425137 -0.874043
C6    C     C_3   0.293918 0.365105 0.634787 0.158758
C7    C     C_3   0.280946 0.382561 0.543373 -0.782056
C8    C     C_3   0.707840 0.157609 0.571499 -0.267808
C9    C     C_3   0.325077 0.968966 0.483244 -0.236240
C10   C     C_3   0.290026 0.184796 0.388202 -0.225192
C11   C     C_3   0.671627 0.939507 0.522987 -0.237708
C12   C     C_3   0.207924 0.652199 0.565771 -0.267649
C13   C     C_1   0.163084 0.499934 0.661275 0.176487
C14   C     C_3   0.825767 0.462672 0.481796 -0.239305
C15   C     C_3   0.786933 0.678902 0.386632 -0.208348
C16   C     C_3   0.171659 0.433897 0.525176 -0.236715
C17   C     C_3   0.708880 0.805025 0.639738 -0.267350
C18   C     C_3   0.322196 0.159084 0.268042 -0.160206
C19   C     C_3   0.289841 0.821412 0.391658 -0.292826
C20   C     C_3   0.672114 0.157917 0.691391 -0.224399
C21   C     C_3   0.208763 0.302384 0.646502 -0.267396
C22   C     C_3   0.819529 0.656712 0.265009 -0.193372
C23   C     C_3   0.792676 0.314684 0.390149 -0.286537
C24   C     C_1   0.836903 0.498575 0.337409 0.185102
C25   C     C_3   0.172296 0.658408 0.685666 -0.223330
C26   C     C_3   0.826255 0.834162 0.805915 0.148841
C27   C     C_3   0.846504 0.810634 0.898007 -0.761381
C28   C     C_3   0.167176 0.160537 0.162881 0.133166
C29   C     C_3   0.159155 0.242410 0.148750 -0.861621
C30   C     C_3   0.175300 0.837210 0.206978 0.186434
C31   C     C_3   0.155839 0.806653 0.117676 -0.792913
C32   C     C_3   0.795632 0.204119 0.757236 0.176357
C33   C     C_3   0.780258 0.264355 0.792895 -0.813379
C34   C     C_3   0.326189 0.333106 0.812698 0.148876
C35   C     C_1   0.625546 0.999980 0.624627 -0.287374
C36   C     C_3   0.346346 0.312724 0.905740 -0.759020
C37   C     C_3   0.688643 0.657769 0.140895 0.136235
C38   C     C_3   0.670200 0.734512 0.125876 -0.911063
C39   C     C_3   0.675634 0.328814 0.205942 0.197509
C40   C     C_3   0.657530 0.294529 0.118594 -0.801411
C41   C     C_3   0.295859 0.701970 0.749279 0.174681
C42   C     C_3   0.280448 0.764263 0.782337 -0.812623
C43   C     C_3   0.710177 0.037913 0.911037 -0.253852
C44   C     C_3   0.324262 0.879610 0.218750 -0.214648
C45   C     C_3   0.292705 0.004397 0.087767 -0.272000
C46   C     C_1   0.374431 0.000208 0.375217 -0.268783
C47   C     C_3   0.673346 0.902442 0.798153 -0.215942
C48   C     C_3   0.210146 0.545065 0.909353 -0.252849
C49   C     C_3   0.828861 0.380542 0.221190 -0.221328
C50   C     C_3   0.792768 0.501876 0.086317 -0.267357
C51   C     C_3   0.173348 0.406818 0.801526 -0.215037
C52   C     C_3   0.827338 0.075903 0.966388 -0.225923
C53   C     C_3   0.210501 0.902846 0.031365 -0.239310
C54   C     C_3   0.180714 0.060401 0.015181 -0.257603
C55   C     C_3   0.790885 0.929206 0.981869 -0.261259
C56   C     C_3   0.327283 0.580883 0.963227 -0.225707
C57   C     C_1   0.125545 0.499905 0.624555 -0.287027
C58   C     C_3   0.714087 0.385324 0.037943 -0.209831
C59   C     C_3   0.676428 0.534245 0.006490 -0.341411
C60   C     C_3   0.290853 0.436305 0.984382 -0.258702
C61   C     C_1   0.874430 0.499733 0.374915 -0.274279
C62   C     C_1   0.500113 0.999989 0.282479 -0.205578
C63   C     C_1   0.499891 0.000007 0.717525 -0.206433
C64   C     C_1   0.000112 0.499987 0.282478 -0.206074
C65   C     C_R   0.499957 0.000003 0.641185 0.935620
C66   C     C_1   0.999891 0.500006 0.717525 -0.206380
C67   C     C_1   0.500127 0.999990 0.217746 -0.198950
C68   C     C_1   0.499875 0.000005 0.782256 -0.199954
C69   C     C_1   0.000126 0.499988 0.217745 -0.199369
C70   C     C_1   0.999875 0.500003 0.782257 -0.199850
C71   C     C_R   0.000041 0.141044 0.000044 0.932412
C72   C     C_R   0.999991 0.858956 0.999988 0.938505
C73   C     C_R   0.500016 0.641044 0.000018 0.935636
C74   C     C_R   0.499991 0.358956 0.999989 0.937749
C75   C     C_R   0.918827 0.000112 0.918667 0.899813
C76   C     C_R   0.000046 0.499995 0.358818 0.936172
C77   C     C_R   0.081171 0.000023 0.081318 0.895382
C78   C     C_R   0.418827 0.500038 0.918661 0.899235
C79   C     C_R   0.581178 0.500007 0.081308 0.900773
C80   C     C_R   0.500012 0.858717 0.000008 0.935858
C81   C     C_R   0.499989 0.141285 0.999991 0.937193
C82   C     C_R   0.000015 0.358716 0.000013 0.936062
C83   C     C_R   0.999989 0.641285 0.999990 0.937309
C84   C     C_R   0.500046 0.999998 0.141254 0.936765
C85   C     C_R   0.499954 0.000000 0.858747 0.936723
C86   C     C_R   0.000046 0.499995 0.141254 0.936802
C87   C     C_R   0.999957 0.500003 0.641185 0.935756
C88   C     C_R   0.999955 0.499998 0.858747 0.936752
C89   C     C_1   0.000063 0.217490 0.000069 -0.208236
C90   C     C_1   0.999974 0.782512 0.999968 -0.207657
C91   C     C_1   0.500036 0.717490 0.000040 -0.205403
C92   C     C_1   0.499976 0.282512 0.999970 -0.207378
C93   C     C_R   0.581179 0.999981 0.581073 0.895647
C94   C     C_R   0.418813 0.000033 0.418983 0.895308
C95   C     C_R   0.081179 0.499972 0.581054 0.895720
C96   C     C_R   0.918813 0.499996 0.419004 0.895318
C97   C     C_1   0.500037 0.782266 0.000037 -0.198838
C98   C     C_1   0.836940 0.000709 0.835087 0.149033
C99   C     C_1   0.499971 0.217737 0.999969 -0.201294
C100  C     C_1   0.000053 0.282264 0.000055 -0.201337
C101  C     C_1   0.999970 0.717738 0.999966 -0.201148
C102  C     C_3   0.724894 0.077815 0.691105 0.795284
C103  C     C_3   0.274059 0.945509 0.336236 0.770855
C104  C     C_3   0.275439 0.083173 0.293528 0.814537
C105  C     C_3   0.725019 0.934587 0.671561 0.794460
C106  C     C_3   0.224945 0.576178 0.688175 0.795505
C107  C     C_3   0.774652 0.438700 0.334881 0.767305
C108  C     C_3   0.774542 0.578092 0.292151 0.803746
C109  C     C_1   0.163015 0.004103 0.163922 0.133054
C110  C     C_3   0.224984 0.432324 0.673905 0.794879
C111  C     C_3   0.775108 0.930438 0.727830 0.688671
C112  C     C_3   0.226560 0.080861 0.262110 0.672404
C113  C     C_3   0.224029 0.938412 0.276396 0.714217
C114  C     C_3   0.774934 0.074913 0.733153 0.690837
C115  C     C_3   0.275064 0.428192 0.730440 0.689546
C116  C     C_3   0.726359 0.572533 0.262378 0.659496
C117  C     C_3   0.724402 0.429592 0.275529 0.731584
C118  C     C_3   0.274971 0.572806 0.730197 0.691265
C119  C     C_1   0.874471 0.000480 0.873718 -0.297768
C120  C     C_1   0.336939 0.500199 0.834988 0.148403
C121  C     C_1   0.125508 0.001910 0.126065 -0.282225
C122  C     C_1   0.374470 0.500154 0.873676 -0.297555
C123  C     C_1   0.625542 0.499207 0.125884 -0.271140
C124  C     C_3   0.709149 0.000458 0.706779 -0.380840
C125  C     C_3   0.290834 0.001451 0.292066 -0.375573
C126  C     C_3   0.209148 0.500083 0.706668 -0.381319
C127  C     C_3   0.790851 0.496815 0.290898 -0.366127
C128  C     C_3   0.790940 0.001080 0.788076 -0.363417
C129  C     C_3   0.208947 0.005149 0.209809 -0.385504
C130  C     C_3   0.290940 0.500517 0.787932 -0.364206
C131  C     C_1   0.663045 0.498190 0.163037 0.131229
C132  C     C_3   0.708854 0.496756 0.208284 -0.409449
C133  C     C_3   0.775130 0.998265 0.855617 0.794899
C134  C     C_3   0.225202 0.992187 0.143646 0.788581
C135  C     C_3   0.275115 0.500990 0.855510 0.794854
C136  C     C_3   0.725393 0.480392 0.142328 0.791445
C137  C     C_3   0.725284 0.988907 0.805271 0.770703
C138  C     C_3   0.274844 0.977160 0.196540 0.774753
C139  C     C_3   0.225274 0.491590 0.805514 0.770347
C140  C     C_3   0.775619 0.471992 0.195684 0.780713
C141  C     C_3   0.827680 0.084141 0.689619 0.189125
C142  C     C_1   0.663085 0.000152 0.661381 0.176557
C143  C     C_3   0.830631 0.129375 0.622782 -0.941964
C144  C     C_3   0.208757 0.895093 0.385524 0.145758
C145  C     C_3   0.169259 0.888452 0.392134 -0.922204
C146  C     C_3   0.190808 0.111950 0.340305 0.189258
C147  C     C_3   0.198205 0.108859 0.429984 -0.842168
C148  C     C_3   0.793707 0.872343 0.629214 0.159411
C149  C     C_3   0.781394 0.893796 0.539138 -0.781084
C150  C     C_3   0.327651 0.577980 0.686187 0.188182
C151  C     C_3   0.330606 0.620230 0.617513 -0.939549
C152  C     C_3   0.710312 0.383700 0.385150 0.143727
H1    H     H_    0.841820 0.030116 0.691523 0.200194
H2    H     H_    0.143007 0.866892 0.332249 0.249187
H3    H     H_    0.180113 0.789694 0.248694 0.113102
H4    H     H_    0.179743 0.776812 0.109049 0.270819
H5    H     H_    0.130200 0.768115 0.106246 0.189228
H6    H     H_    0.142007 0.851355 0.070545 0.269434
H7    H     H_    0.778811 0.207084 0.688012 0.130820
H8    H     H_    0.828953 0.216829 0.778897 0.124555
H9    H     H_    0.796295 0.260090 0.862813 0.263058
H10   H     H_    0.787354 0.318714 0.775769 0.180401
H11   H     H_    0.745980 0.260774 0.766819 0.273017
H12   H     H_    0.348374 0.368069 0.804252 0.138365
H13   H     H_    0.161561 0.081014 0.299765 0.157414
H14   H     H_    0.322141 0.281341 0.777540 0.104534
H15   H     H_    0.323485 0.283563 0.918143 0.270987
H16   H     H_    0.373659 0.276308 0.923295 0.185178
H17   H     H_    0.357835 0.362403 0.945815 0.266148
H18   H     H_    0.712430 0.659430 0.120915 0.256468
H19   H     H_    0.662073 0.621254 0.102849 0.167804
H20   H     H_    0.655580 0.748646 0.057838 0.217903
H21   H     H_    0.645909 0.737412 0.144968 0.262754
H22   H     H_    0.695235 0.774960 0.163255 0.261766
H23   H     H_    0.652098 0.367453 0.204520 0.160542
H24   H     H_    0.188380 0.170848 0.323438 0.139676
H25   H     H_    0.679214 0.283293 0.249221 0.114761
H26   H     H_    0.682147 0.263774 0.113256 0.270593
H27   H     H_    0.631972 0.256035 0.107812 0.190974
H28   H     H_    0.643784 0.337272 0.068935 0.264838
H29   H     H_    0.279144 0.702869 0.679981 0.130658
H30   H     H_    0.329213 0.714116 0.770656 0.124567
H31   H     H_    0.296379 0.762133 0.852370 0.263594
H32   H     H_    0.287643 0.817580 0.763180 0.180138
H33   H     H_    0.246151 0.761117 0.756179 0.272695
H34   H     H_    0.714034 0.981320 0.935180 0.147270
H35   H     H_    0.226223 0.141687 0.472942 0.237487
H36   H     H_    0.681217 0.059281 0.907864 0.156128
H37   H     H_    0.736077 0.073211 0.956660 0.201404
H38   H     H_    0.323558 0.838694 0.173177 0.139312
H39   H     H_    0.338672 0.852232 0.281118 0.212497
H40   H     H_    0.345260 0.924494 0.221991 0.166805
H41   H     H_    0.290024 0.945125 0.073588 0.149681
H42   H     H_    0.321471 0.022872 0.088066 0.162962
H43   H     H_    0.266578 0.035910 0.037009 0.199076
H44   H     H_    0.657656 0.869692 0.739299 0.208552
H45   H     H_    0.654130 0.951724 0.790235 0.162653
H46   H     H_    0.170575 0.131420 0.431535 0.190077
H47   H     H_    0.673259 0.868737 0.848574 0.144287
H48   H     H_    0.213961 0.489267 0.935564 0.147503
H49   H     H_    0.181198 0.567443 0.905367 0.156419
H50   H     H_    0.236063 0.581041 0.953648 0.201445
H51   H     H_    0.829955 0.338850 0.178169 0.142119
H52   H     H_    0.844108 0.355777 0.285051 0.212099
H53   H     H_    0.847969 0.427655 0.221772 0.166121
H54   H     H_    0.793494 0.442484 0.075301 0.150149
H55   H     H_    0.820468 0.525334 0.085991 0.160312
H56   H     H_    0.765085 0.528402 0.033319 0.202753
H57   H     H_    0.203322 0.051460 0.452903 0.279023
H58   H     H_    0.157662 0.372536 0.743884 0.208354
H59   H     H_    0.154127 0.456472 0.791821 0.162190
H60   H     H_    0.173258 0.374950 0.853121 0.145917
H61   H     H_    0.846521 0.025383 0.988742 0.174025
H62   H     H_    0.827736 0.101110 0.022028 0.142358
H63   H     H_    0.842844 0.115112 0.944422 0.202129
H64   H     H_    0.232717 0.856308 0.056339 0.211146
H65   H     H_    0.221011 0.943728 0.002281 0.125153
H66   H     H_    0.180967 0.880150 0.979182 0.152189
H67   H     H_    0.154201 0.029502 0.012661 0.180623
H68   H     H_    0.773783 0.827618 0.628447 0.115792
H69   H     H_    0.186423 0.042789 0.963876 0.143339
H70   H     H_    0.170981 0.118381 0.999748 0.166606
H71   H     H_    0.765094 0.891012 0.969675 0.203619
H72   H     H_    0.787195 0.981459 0.007949 0.146248
H73   H     H_    0.819982 0.903717 0.032409 0.153219
H74   H     H_    0.346483 0.530540 0.987545 0.173829
H75   H     H_    0.327645 0.608180 0.017830 0.142351
H76   H     H_    0.342799 0.618645 0.939829 0.201969
H77   H     H_    0.735727 0.337982 0.063589 0.208314
H78   H     H_    0.726020 0.425370 0.010571 0.132919
H79   H     H_    0.826130 0.850623 0.658110 0.106897
H80   H     H_    0.684443 0.363912 0.984830 0.140160
H81   H     H_    0.652344 0.500277 0.009742 0.205762
H82   H     H_    0.681677 0.514289 0.955283 0.166104
H83   H     H_    0.663130 0.589786 0.985618 0.155925
H84   H     H_    0.265045 0.398697 0.973616 0.204906
H85   H     H_    0.287188 0.489673 0.008441 0.145900
H86   H     H_    0.319931 0.411618 0.035899 0.153861
H87   H     H_    0.801734 0.939061 0.539926 0.251281
H88   H     H_    0.785353 0.846017 0.506109 0.170375
H89   H     H_    0.847450 0.109962 0.751953 0.124660
H90   H     H_    0.748272 0.911629 0.503245 0.283319
H91   H     H_    0.341741 0.523456 0.690297 0.200194
H92   H     H_    0.347468 0.605512 0.747405 0.125045
H93   H     H_    0.318289 0.676627 0.612005 0.229619
H94   H     H_    0.363837 0.623540 0.633158 0.221461
H95   H     H_    0.312215 0.591888 0.555887 0.273074
H96   H     H_    0.734779 0.404049 0.447695 0.192058
H97   H     H_    0.719597 0.329865 0.373326 0.112670
H98   H     H_    0.677170 0.333513 0.442450 0.208874
H99   H     H_    0.659277 0.424511 0.401764 0.269259
H100  H     H_    0.818242 0.185391 0.619536 0.229937
H101  H     H_    0.645533 0.348191 0.330178 0.248029
H102  H     H_    0.660238 0.560292 0.292308 0.162735
H103  H     H_    0.682900 0.651218 0.321056 0.153285
H104  H     H_    0.718743 0.622801 0.469321 0.236174
H105  H     H_    0.663930 0.599813 0.423349 0.194804
H106  H     H_    0.702541 0.528539 0.449131 0.285426
H107  H     H_    0.274581 0.320658 0.637016 0.114694
H108  H     H_    0.326533 0.344183 0.664310 0.108198
H109  H     H_    0.300175 0.428382 0.541012 0.254145
H110  H     H_    0.285888 0.333631 0.513240 0.169095
H111  H     H_    0.863868 0.133547 0.638657 0.221757
H112  H     H_    0.247424 0.397844 0.506705 0.280177
H113  H     H_    0.733664 0.159043 0.556903 0.203767
H114  H     H_    0.710565 0.203562 0.613410 0.154200
H115  H     H_    0.678570 0.167347 0.510834 0.156144
H116  H     H_    0.340116 0.023517 0.495071 0.212278
H117  H     H_    0.344851 0.928726 0.473557 0.170855
H118  H     H_    0.325161 0.952852 0.541869 0.144962
H119  H     H_    0.270504 0.214964 0.328386 0.202082
H120  H     H_    0.320275 0.214270 0.423513 0.135375
H121  H     H_    0.274542 0.187360 0.426879 0.184865
H122  H     H_    0.812300 0.102806 0.560025 0.272687
H123  H     H_    0.656419 0.993805 0.502365 0.207266
H124  H     H_    0.652819 0.904984 0.541662 0.170059
H125  H     H_    0.670179 0.913387 0.466775 0.144385
H126  H     H_    0.233664 0.651940 0.550900 0.203727
H127  H     H_    0.210839 0.699544 0.606136 0.153908
H128  H     H_    0.178606 0.660983 0.504915 0.155713
H129  H     H_    0.839822 0.518050 0.493140 0.212569
H130  H     H_    0.845995 0.423757 0.471734 0.170923
H131  H     H_    0.826446 0.445826 0.540800 0.146045
H132  H     H_    0.770079 0.710696 0.327101 0.196032
H133  H     H_    0.234071 0.914193 0.447827 0.193932
H134  H     H_    0.816341 0.708745 0.428627 0.132689
H135  H     H_    0.767915 0.678417 0.418313 0.189399
H136  H     H_    0.156464 0.487967 0.502552 0.207212
H137  H     H_    0.152806 0.400795 0.544996 0.170050
H138  H     H_    0.170227 0.405793 0.469968 0.142595
H139  H     H_    0.707124 0.814601 0.578255 0.152748
H140  H     H_    0.681795 0.769491 0.626031 0.162087
H141  H     H_    0.737192 0.773153 0.682912 0.190477
H142  H     H_    0.345987 0.141346 0.332355 0.162098
H143  H     H_    0.319890 0.219632 0.268547 0.134100
H144  H     H_    0.216129 0.839944 0.372841 0.105814
H145  H     H_    0.334032 0.145060 0.224610 0.194799
H146  H     H_    0.287055 0.841629 0.445710 0.139680
H147  H     H_    0.318438 0.786901 0.419212 0.169065
H148  H     H_    0.263536 0.784770 0.350316 0.190286
H149  H     H_    0.652878 0.142666 0.623900 0.171607
H150  H     H_    0.670933 0.218437 0.694698 0.136022
H151  H     H_    0.657142 0.135862 0.726437 0.209813
H152  H     H_    0.207637 0.309963 0.585312 0.153475
H153  H     H_    0.181353 0.267770 0.632864 0.161294
H154  H     H_    0.236766 0.270599 0.691263 0.191069
H155  H     H_    0.174939 0.850292 0.444147 0.207316
H156  H     H_    0.843781 0.640114 0.329453 0.175638
H157  H     H_    0.816305 0.717128 0.264638 0.134573
H158  H     H_    0.831349 0.643340 0.221394 0.200884
H159  H     H_    0.789749 0.333854 0.444417 0.140413
H160  H     H_    0.821969 0.282050 0.417443 0.168118
H161  H     H_    0.767057 0.276596 0.349411 0.191945
H162  H     H_    0.153011 0.641424 0.618773 0.170980
H163  H     H_    0.171204 0.719059 0.686763 0.136003
H164  H     H_    0.157315 0.638335 0.721520 0.210145
H165  H     H_    0.848430 0.870376 0.798919 0.139560
H166  H     H_    0.160193 0.942725 0.405334 0.267940
H167  H     H_    0.822068 0.783815 0.768420 0.104404
H168  H     H_    0.823738 0.779680 0.909140 0.269931
H169  H     H_    0.873917 0.774955 0.913971 0.185749
H170  H     H_    0.857837 0.859064 0.940178 0.266363
H171  H     H_    0.156435 0.135772 0.100820 0.170228
H172  H     H_    0.147021 0.139757 0.186720 0.090833
H173  H     H_    0.125241 0.252674 0.105513 0.216703
H174  H     H_    0.168951 0.270339 0.209816 0.241898
H175  H     H_    0.177145 0.265454 0.120142 0.267799
H176  H     H_    0.152121 0.874090 0.209668 0.162935
O1    O     O_R   0.500010 0.060620 0.392670 -0.620369
O2    O     O_R   0.438570 0.939380 0.438570 -0.620649
O3    O     O_R   0.438570 0.060620 0.438570 -0.619936
O4    O     O_R   0.561430 0.939380 0.561430 -0.619995
O5    O     O_R   0.061430 0.560620 0.561430 -0.622534
O6    O     O_R   0.938570 0.439380 0.438570 -0.621902
O7    O     O_R   0.938570 0.560620 0.438570 -0.618718
O8    O     O_R   0.061430 0.439380 0.561430 -0.619971
O9    O     O_R   0.000000 0.107140 0.939380 -0.622404
O10   O     O_R   0.000000 0.892860 0.060620 -0.619967
O11   O     O_R   0.000000 0.107140 0.060620 -0.622342
O12   O     O_R   0.499990 0.939380 0.607330 -0.622377
O13   O     O_R   0.000000 0.892860 0.939380 -0.619949
O14   O     O_R   0.500000 0.607140 0.939380 -0.621610
O15   O     O_R   0.500000 0.392860 0.060620 -0.619836
O16   O     O_R   0.500000 0.607140 0.060620 -0.622426
O17   O     O_R   0.500000 0.392860 0.939380 -0.620634
O18   O     O_R   0.938580 1.000000 0.877970 -0.623840
O19   O     O_R   0.061420 0.000000 0.122030 -0.615224
O20   O     O_R   0.438580 0.500000 0.877970 -0.624191
O21   O     O_R   0.561420 0.500000 0.122030 -0.615709
O22   O     O_R   0.938570 1.000000 0.999140 -0.620408
O23   O     O_R   0.499990 0.060620 0.607330 -0.620044
O24   O     O_R   0.061430 0.000000 0.000860 -0.621959
O25   O     O_R   0.438570 0.500000 0.999140 -0.620422
O26   O     O_R   0.561430 0.500000 0.000860 -0.624288
O27   O     O_R   0.534690 0.892630 0.034650 -0.622437
O28   O     O_R   0.465310 0.107370 0.965350 -0.624701
O29   O     O_R   0.465310 0.892630 0.965350 -0.624673
O30   O     O_R   0.534690 0.107370 0.034650 -0.624170
O31   O     O_R   0.034690 0.392630 0.034650 -0.624220
O32   O     O_R   0.965310 0.607370 0.965350 -0.624672
O33   O     O_R   0.965310 0.392630 0.965350 -0.624099
O34   O     O_R   0.500010 0.939380 0.392670 -0.622950
O35   O     O_R   0.034690 0.607370 0.034650 -0.623753
O36   O     O_R   0.534680 0.000000 0.141990 -0.623350
O37   O     O_R   0.465320 1.000000 0.858010 -0.624961
O38   O     O_R   0.034680 0.500000 0.141990 -0.623237
O39   O     O_R   0.965320 0.500000 0.858010 -0.624778
O40   O     O_R   0.465320 1.000000 0.072630 -0.624007
O41   O     O_R   0.534680 0.000000 0.927370 -0.623734
O42   O     O_R   0.965320 0.500000 0.072630 -0.624201
O43   O     O_R   0.034680 0.500000 0.927370 -0.623686
O44   O     O_3   0.784785 0.075560 0.666075 -0.586638
O45   O     O_R   0.000010 0.560620 0.392670 -0.620430
O46   O     O_3   0.201679 0.947069 0.322238 -0.601828
O47   O     O_3   0.224959 0.078523 0.339134 -0.561485
O48   O     O_3   0.794011 0.935030 0.675254 -0.619154
O49   O     O_3   0.284757 0.570363 0.663063 -0.586533
O50   O     O_3   0.702293 0.436522 0.321997 -0.605145
O51   O     O_3   0.724984 0.565125 0.339257 -0.550570
O52   O     O_3   0.293937 0.429810 0.677680 -0.618942
O53   O     O_3   0.705039 0.087339 0.601118 -0.591315
O54   O     O_3   0.282782 0.973391 0.416922 -0.591588
O55   O     O_3   0.298411 0.110578 0.378534 -0.605049
O56   O     O_R   0.999990 0.439380 0.607330 -0.622418
O57   O     O_3   0.714460 0.947889 0.585644 -0.576396
O58   O     O_3   0.205044 0.583192 0.597889 -0.591407
O59   O     O_3   0.783303 0.465176 0.416064 -0.591477
O60   O     O_3   0.797364 0.606023 0.376958 -0.602239
O61   O     O_3   0.214486 0.442972 0.587598 -0.574959
O62   O     O_3   0.705729 0.869021 0.679912 -0.590277
O63   O     O_3   0.281505 0.128907 0.236280 -0.553012
O64   O     O_3   0.294610 0.876848 0.343183 -0.594080
O65   O     O_3   0.714837 0.136001 0.731069 -0.572684
O66   O     O_3   0.205607 0.367848 0.684426 -0.590621
O67   O     O_R   0.999990 0.560620 0.607330 -0.619809
O68   O     O_3   0.779347 0.624622 0.234275 -0.617867
O69   O     O_3   0.795960 0.371113 0.340860 -0.592970
O70   O     O_3   0.214988 0.636197 0.726094 -0.572330
O71   O     O_3   0.786065 0.865136 0.778768 -0.582738
O72   O     O_3   0.210739 0.149074 0.216807 -0.596329
O73   O     O_3   0.214995 0.869697 0.231801 -0.580347
O74   O     O_3   0.793715 0.135162 0.790964 -0.598758
O75   O     O_3   0.285917 0.364461 0.783847 -0.582715
O76   O     O_3   0.706599 0.642026 0.227135 -0.658638
O77   O     O_3   0.715900 0.360048 0.232675 -0.581660
O78   O     O_R   0.000010 0.439380 0.392670 -0.623233
O79   O     O_3   0.293831 0.634505 0.785631 -0.598575
O80   O     O_3   0.705516 0.044312 0.829499 -0.594358
O81   O     O_3   0.282292 0.900417 0.192719 -0.587979
O82   O     O_3   0.297128 0.021964 0.167107 -0.597326
O83   O     O_3   0.715677 0.916199 0.820780 -0.578795
O84   O     O_3   0.205483 0.548573 0.827631 -0.594617
O85   O     O_3   0.786121 0.396480 0.193563 -0.588785
O86   O     O_3   0.795828 0.520051 0.164492 -0.596444
O87   O     O_3   0.215681 0.419853 0.823690 -0.578720
O88   O     O_3   0.784886 0.065542 0.902646 -0.579809
O89   O     O_R   0.561430 0.060620 0.561430 -0.622576
O90   O     O_3   0.201729 0.930301 0.093289 -0.588703
O91   O     O_3   0.218125 0.057761 0.094757 -0.582224
O92   O     O_3   0.795069 0.936128 0.909169 -0.579308
O93   O     O_3   0.284845 0.569690 0.899837 -0.579523
O94   O     O_3   0.705272 0.413520 0.099661 -0.577154
O95   O     O_3   0.715107 0.539705 0.083954 -0.646010
O96   O     O_3   0.295061 0.440242 0.911501 -0.580206
Zn1   Zn    Zn3+2 0.500000 0.080950 0.500000 0.940224
Zn2   Zn    Zn3+2 0.453690 0.000000 0.953700 0.941579
Zn3   Zn    Zn3+2 0.046310 0.500000 0.046300 0.945840
Zn4   Zn    Zn3+2 0.953690 0.500000 0.953700 0.941684
Zn5   Zn    Zn3+2 0.500000 0.919050 0.500000 0.940098
Zn6   Zn    Zn3+2 0.000000 0.580950 0.500000 0.940633
Zn7   Zn    Zn3+2 0.000000 0.419050 0.500000 0.939065
Zn8   Zn    Zn3+2 0.000010 0.000000 0.919080 0.937507
Zn9   Zn    Zn3+2 0.999990 0.000000 0.080920 0.941233
Zn10  Zn    Zn3+2 0.500010 0.500000 0.919080 0.937392
Zn11  Zn    Zn3+2 0.499990 0.500000 0.080920 0.942379
Zn12  Zn    Zn3+2 0.546310 0.000000 0.046300 0.946452

loop_
_geom_bond_atom_site_label_1
_geom_bond_atom_site_label_2
_ccdc_geom_bond_type
C18   H143  S    
C63   C65   S    
C133  C137  S    
C24   C61   T    
C27   H169  S    
O33   Zn4   S    
C22   O68   S    
C34   O75   S    
C3    H98   S    
C136  C140  S    
O21   Zn11  S    
O42   Zn4   S    
C138  O81   S    
C80   O27   A    
O25   Zn11  S    
C133  O92   S    
C36   H16   S    
O13   Zn8   S    
O36   Zn12  S    
C30   O73   S    
C22   H156  S    
C74   C92   S    
C23   H161  S    
C117  C132  S    
C44   H38   S    
C40   H28   S    
C146  H24   S    
C24   C127  S    
C30   H176  S    
C15   H135  S    
C136  O95   S    
C112  C129  S    
C12   H128  S    
C76   O45   A    
C1    O1    A    
C88   O43   A    
C49   H52   S    
C14   H129  S    
C106  C118  S    
C84   O36   A    
C108  O60   S    
C56   H76   S    
C124  C137  S    
C65   O23   A    
O2    Zn5   S    
C17   O62   S    
C8    H113  S    
C17   H139  S    
C52   H63   S    
C20   H150  S    
C75   O22   A    
C6    H107  S    
C71   O9    A    
O22   Zn9   S    
C33   H9    S    
C3    H101  S    
C37   C38   S    
C102  C114  S    
C114  C128  S    
C3    C152  S    
C148  H79   S    
C73   C91   S    
C60   O96   S    
C44   O81   S    
C150  H91   S    
C53   H64   S    
C10   H119  S    
C14   H131  S    
C41   H30   S    
C32   O74   S    
C10   H121  S    
C115  O75   S    
C39   C40   S    
C5    H104  S    
C146  C147  S    
C113  O73   S    
C45   H42   S    
C28   C29   S    
C94   O3    A    
C59   H83   S    
C4    C5    S    
C110  O61   S    
C137  O80   S    
C6    C7    S    
C144  O46   S    
C125  C138  S    
C1    O34   A    
C144  C145  S    
C48   O84   S    
C107  C127  S    
C44   H40   S    
C109  C121  T    
C66   C70   T    
C21   O66   S    
C144  H144  S    
C16   O61   S    
O19   Zn9   S    
C149  H87   S    
C14   O59   S    
C58   H80   S    
O15   Zn11  S    
C28   H171  S    
C18   H145  S    
C116  O76   S    
C147  H46   S    
C113  C129  S    
C111  O48   S    
C118  O49   S    
C50   H56   S    
O45   Zn6   S    
C80   C97   S    
C4    H102  S    
C1    C62   S    
C151  H94   S    
C31   H4    S    
C135  O93   S    
C61   C96   S    
C18   O63   S    
C17   H141  S    
C7    H110  S    
C33   H11   S    
C3    H99   S    
C34   H12   S    
C38   H22   S    
C13   C57   T    
C25   H162  S    
C10   O55   S    
C48   H50   S    
C29   H174  S    
C115  O52   S    
C87   O67   A    
C46   C94   S    
C112  O47   S    
C81   O28   A    
C9    O54   S    
C86   O42   A    
C68   C85   S    
C47   H47   S    
C15   H132  S    
C59   H81   S    
C104  O55   S    
C136  O94   S    
C139  O84   S    
C8    H115  S    
C51   H60   S    
C51   O87   S    
C37   O76   S    
C53   H65   S    
C118  O79   S    
C126  C139  S    
O9    Zn8   S    
C39   H23   S    
C95   O8    A    
C104  C112  S    
C93   O4    A    
C54   H69   S    
C42   H32   S    
C105  O62   S    
C58   H78   S    
C72   C90   S    
C79   O26   A    
C114  O44   S    
C116  C132  S    
C6    O52   S    
C132  C136  S    
C102  O53   S    
C5    H105  S    
C23   H160  S    
C64   C69   T    
O23   Zn1   S    
C84   O40   A    
O20   Zn10  S    
C110  C126  S    
C145  H2    S    
C50   H54   S    
C74   O17   A    
C86   O38   A    
C146  H13   S    
C52   H62   S    
C79   O21   A    
C109  C129  S    
C127  C140  S    
O37   Zn2   S    
C42   H33   S    
O16   Zn11  S    
C103  O54   S    
C9    H117  S    
C63   C68   T    
C96   O7    A    
C83   C101  S    
C75   O18   A    
C55   O92   S    
C82   O31   A    
C38   H20   S    
C28   O72   S    
C25   H164  S    
C135  C139  S    
C32   H7    S    
C139  O87   S    
O27   Zn12  S    
C34   H14   S    
C141  H1    S    
C11   O57   S    
C98   C128  S    
C21   H154  S    
O34   Zn5   S    
C11   H125  S    
C7    H109  S    
C22   H157  S    
C34   C36   S    
C81   O30   A    
C105  C111  S    
C103  C125  S    
C11   H124  S    
C77   C121  S    
C83   O32   A    
C35   C142  T    
C2    C125  S    
C110  O66   S    
C114  O74   S    
C107  O59   S    
C111  C128  S    
C108  O68   S    
C150  C151  S    
C47   H45   S    
C105  O57   S    
C60   H85   S    
C19   O64   S    
C140  O86   S    
C134  O90   S    
C92   C99   T    
C115  C130  S    
C49   H51   S    
C41   C42   S    
C130  C135  S    
C93   O89   A    
C117  O50   S    
C54   H67   S    
C26   C27   S    
C48   H48   S    
O4    Zn5   S    
C141  C143  S    
C151  H95   S    
C30   C31   S    
C140  O85   S    
C141  O44   S    
O14   Zn10  S    
C59   O95   S    
C19   H148  S    
C6    H108  S    
O39   Zn4   S    
C77   O19   A    
C146  O47   S    
C104  C125  S    
C149  H90   S    
O3    Zn1   S    
O26   Zn10  S    
C80   O29   A    
C133  O88   S    
O89   Zn1   S    
O38   Zn3   S    
C112  O72   S    
C150  H92   S    
O78   Zn7   S    
C18   H142  S    
C27   H170  S    
C10   H120  S    
C41   H29   S    
C47   O83   S    
C102  C124  S    
C39   H25   S    
C16   H137  S    
C83   O35   A    
C45   H41   S    
C73   O14   A    
C143  H100  S    
C89   C100  T    
O28   Zn2   S    
C113  O46   S    
C47   H44   S    
C8    H114  S    
C27   H168  S    
O35   Zn3   S    
C45   O82   S    
C147  H35   S    
C37   H18   S    
C36   H15   S    
C72   O10   A    
C43   O80   S    
C105  C124  S    
C52   O88   S    
C37   H19   S    
C118  C130  S    
C104  O63   S    
C40   H27   S    
C8    O53   S    
C25   O70   S    
O29   Zn2   S    
O17   Zn10  S    
C50   O86   S    
C148  H68   S    
C12   H127  S    
C12   O58   S    
C13   C126  S    
C30   H3    S    
C28   H172  S    
C49   H53   S    
C74   O15   A    
C143  H111  S    
O12   Zn5   S    
C55   H71   S    
C82   O33   A    
O56   Zn7   S    
C56   H75   S    
C123  C131  T    
C15   O60   S    
O8    Zn7   S    
C151  H93   S    
C117  O77   S    
C135  O96   S    
C17   H140  S    
C145  H166  S    
C81   C99   S    
C106  C126  S    
C96   O6    A    
C20   H149  S    
C19   H146  S    
C111  O71   S    
C21   H152  S    
C32   C33   S    
C108  C116  S    
C152  O50   S    
C33   H10   S    
C51   H58   S    
C55   H73   S    
C43   H36   S    
C106  O70   S    
C29   H173  S    
C39   O77   S    
C141  H89   S    
C152  H96   S    
C31   H6    S    
C129  C134  S    
C150  O49   S    
C78   O20   A    
C147  H57   S    
C110  C115  S    
C107  C117  S    
C102  O65   S    
C20   O65   S    
C45   H43   S    
C26   H167  S    
C73   O16   A    
O5    Zn6   S    
C94   O2    A    
O18   Zn8   S    
O30   Zn12  S    
C60   H84   S    
C76   O78   A    
C70   C88   S    
C78   O25   A    
C98   C119  T    
C2    C46   T    
C36   H17   S    
C16   H138  S    
C62   C67   T    
C120  C130  S    
C103  C113  S    
C44   H39   S    
C54   H70   S    
C26   O71   S    
C149  H88   S    
C15   H134  S    
C106  O58   S    
C5    H106  S    
O40   Zn2   S    
C23   H159  S    
C41   O79   S    
C16   H136  S    
C77   O24   A    
O32   Zn4   S    
C50   H55   S    
C85   O41   A    
C134  C138  S    
C67   C84   S    
O31   Zn3   S    
O7    Zn6   S    
C124  C142  S    
C4    O51   S    
C14   H130  S    
C152  H97   S    
C120  C122  T    
C35   C93   S    
C58   O94   S    
C9    H116  S    
C20   H151  S    
O11   Zn9   S    
C75   C119  S    
C148  C149  S    
C55   H72   S    
O43   Zn3   S    
C66   C87   S    
C87   O56   A    
C23   O69   S    
C38   H21   S    
C25   H163  S    
C43   H34   S    
C79   C123  S    
C48   H49   S    
C91   C97   T    
C29   H175  S    
C90   C101  T    
C116  O51   S    
C143  H122  S    
C71   C89   S    
C21   H153  S    
C72   O13   A    
C64   C76   S    
C7    H112  S    
C22   H158  S    
C31   H5    S    
C11   H123  S    
C40   H26   S    
C26   H165  S    
C85   O37   A    
O6    Zn7   S    
C53   O90   S    
C59   H82   S    
C60   H86   S    
O1    Zn1   S    
C12   H126  S    
C134  O91   S    
C137  O83   S    
C53   H66   S    
O24   Zn8   S    
C103  O64   S    
C144  H133  S    
C88   O39   A    
C82   C100  S    
C65   O12   A    
C56   O93   S    
C95   O5    A    
C42   H31   S    
C107  O69   S    
C56   H74   S    
C58   H77   S    
C128  C133  S    
C49   O85   S    
O10   Zn9   S    
C52   H61   S    
C54   O91   S    
C19   H147  S    
C71   O11   A    
C108  C127  S    
C78   C122  S    
C138  O82   S    
C145  H155  S    
C51   H59   S    
C148  O48   S    
O41   Zn12  S    
C43   H37   S    
C57   C95   S    
O67   Zn6   S    
C4    H103  S    
C69   C86   S    
C131  C132  S    
C32   H8    S    
C9    H118  S    
