data_mof_unit_53108.cif
_audit_creation_date              2012-12-10T16:54:02-0500
_audit_creation_method            fapswitch 2.2
_symmetry_space_group_name_H-M    P1
_symmetry_Int_Tables_number       1
_space_group_crystal_system       triclinic
_cell_length_a                    9.753946
_cell_length_b                    10.93784
_cell_length_c                    13.405807
_cell_angle_alpha                 91.077673
_cell_angle_beta                  74.09979
_cell_angle_gamma                 89.434837
_cell_volume                      1375.0956337

loop_
_atom_site_label
_atom_site_type_symbol
_atom_type_description
_atom_site_fract_x
_atom_site_fract_y
_atom_site_fract_z
_atom_type_partial_charge
C1    C     C_R   0.501658 0.734924 0.493085 0.761272
C2    C     C_R   0.452064 0.429292 0.970062 0.054842
C3    C     C_R   0.496120 0.428394 0.860928 -0.019371
C4    C     C_R   0.551150 0.464262 0.025767 -0.015983
C5    C     C_R   0.697793 0.473472 0.971226 -0.015551
C6    C     C_R   0.742670 0.440352 0.866191 -0.072479
C7    C     C_R   0.642969 0.414916 0.812532 -0.093292
C8    C     C_R   0.508939 0.498398 0.131912 0.316366
C9    C     C_R   0.756482 0.521765 0.130965 -0.191695
C10   C     C_R   0.391433 0.432498 0.805068 -0.275697
C11   C     C_2   0.616589 0.068797 0.453092 -0.085657
C12   C     C_R   0.426641 0.478819 0.696939 0.839377
C13   C     C_2   0.502088 0.134605 0.505188 -0.301686
C14   C     C_2   0.622480 0.935226 0.460897 0.285233
C15   C     C_2   0.503266 0.867591 0.472667 0.221818
C16   C     C_2   0.051831 0.564591 0.565856 0.441617
C17   C     C_2   0.893595 0.550167 0.574764 0.565061
C18   C     C_R   0.500914 0.265854 0.499992 0.790930
C19   C     C_R   0.574621 0.505301 0.300453 0.857195
C20   C     C_R   0.796362 0.514359 0.023281 0.433365
C21   C     C_R   0.613710 0.508229 0.186505 -0.215070
C22   C     C_R   0.253889 0.388616 0.854437 0.468718
C23   C     C_R   0.219686 0.359304 0.960072 0.374549
C24   C     C_R   0.315535 0.384454 0.017976 -0.189733
Cu1   Cu    Cu3+1 0.361370 0.499980 0.499980 1.142472
Cu2   Cu    Cu3+1 0.638630 0.500020 0.500020 1.087576
H1    H     H_    0.836203 0.543268 0.170900 0.250310
H2    H     H_    0.409028 0.093062 0.555295 0.147813
H3    H     H_    0.854764 0.434204 0.824759 0.230576
H4    H     H_    0.285489 0.361185 0.099024 0.236355
H5    H     H_    0.682879 0.380483 0.733769 0.183895
H6    H     H_    0.711481 0.114529 0.408390 0.208669
N1    N     N_2   0.152660 0.501340 0.501130 -0.015488
N2    N     N_2   0.846520 0.501370 0.501160 -0.038146
O1    O     O_R   0.382960 0.678040 0.499980 -0.546649
O2    O     O_R   0.617100 0.678080 0.500020 -0.551362
O3    O     O_R   0.325800 0.499940 0.650950 -0.490871
O4    O     O_R   0.559930 0.499980 0.650990 -0.581784
O5    O     O_R   0.382900 0.321920 0.499980 -0.531281
O6    O     O_R   0.617040 0.321960 0.500020 -0.583844
O7    O     O_R   0.440070 0.500020 0.349010 -0.504153
O8    O     O_R   0.674200 0.500060 0.349050 -0.530106
Cl1   Cl    Cl    0.795014 0.874154 0.447581 -0.589316
O9    O     O_3   0.389681 0.920477 0.443193 -0.565522
C25   C     C_3   0.258286 0.909340 0.519689 -0.147775
H7    H     H_    0.269513 0.893162 0.598982 0.138869
H8    H     H_    0.195098 0.836429 0.495577 0.241317
H9    H     H_    0.196488 0.995900 0.523873 0.189527
Cl2   Cl    Cl    0.097548 0.666647 0.654325 -0.599723
Cl3   Cl    Cl    0.108247 0.354415 0.469277 -0.452438
O10   O     O_3   0.797762 0.582080 0.668439 -0.610801
C26   C     C_3   0.773056 0.709886 0.677549 -0.130137
H10   H     H_    0.848527 0.764414 0.618005 0.184376
H11   H     H_    0.781591 0.741498 0.754743 0.202153
H12   H     H_    0.662616 0.730468 0.674902 0.177155
Cl4   Cl    Cl    0.946141 0.540056 0.376870 -0.363234
Cl5   Cl    Cl    0.965174 0.568839 0.956473 -0.485344
Cl6   Cl    Cl    0.336271 0.563783 0.186957 -0.468033
O11   O     O_3   0.152594 0.374834 0.800467 -0.509965
C27   C     C_3   0.169130 0.257235 0.753345 -0.225048
H13   H     H_    0.141569 0.185004 0.812493 0.186015
H14   H     H_    0.279056 0.241032 0.702495 0.107055
H15   H     H_    0.094947 0.249576 0.703948 0.205142
Cl7   Cl    Cl    0.056444 0.291527 0.022122 -0.532389

loop_
_geom_bond_atom_site_label_1
_geom_bond_atom_site_label_2
_ccdc_geom_bond_type
C11   H6    S    
C2    C4    A    
C18   O5    A    
C19   O8    A    
C13   H2    S    
N2    Cl4   S    
C6    C7    A    
C1    C15   S    
C16   Cl2   S    
C16   N1    D    
C9    C20   A    
C26   H12   S    
C4    C8    A    
C14   Cl1   S    
Cu2   O6    S    
C17   O10   S    
Cu1   N1    S    
C2    C3    A    
N1    Cl3   S    
O11   C27   S    
C22   O11   S    
C3    C10   A    
C25   H7    S    
Cu1   O5    S    
C12   O4    A    
C11   C13   D    
C9    C21   A    
C16   C17   S    
C10   C12   S    
C13   C18   S    
Cu1   O1    S    
C27   H15   S    
Cu2   O2    S    
C23   Cl7   S    
C19   C21   S    
C26   H11   S    
C15   O9    S    
C8    C21   A    
C3    C7    A    
C25   H8    S    
Cu2   O8    S    
C2    C24   A    
C5    C6    A    
C11   C14   S    
C24   H4    S    
C7    H5    S    
C17   N2    D    
C23   C24   A    
O10   C26   S    
C4    C5    A    
C6    H3    S    
C26   H10   S    
C9    H1    S    
C27   H14   S    
C25   H9    S    
Cu1   O7    S    
C12   O3    A    
C5    C20   A    
C1    O1    A    
C18   O6    A    
C14   C15   D    
Cu2   O4    S    
C8    Cl6   S    
Cu1   Cu2   S    
C22   C23   A    
C20   Cl5   S    
Cu2   N2    S    
C10   C22   A    
O9    C25   S    
C19   O7    A    
C1    O2    A    
Cu1   O3    S    
C27   H13   S    
