data_mof_unit_21991.cif
_audit_creation_date              2013-03-05T15:46:22-0500
_audit_creation_method            fapswitch 2.2
_symmetry_space_group_name_H-M    P1
_symmetry_Int_Tables_number       1
_space_group_crystal_system       triclinic
_cell_length_a                    10.966955
_cell_length_b                    11.074389
_cell_length_c                    18.802008
_cell_angle_alpha                 90.220349
_cell_angle_beta                  90.132666
_cell_angle_gamma                 59.275646
_cell_volume                      1963.00318225

loop_
_atom_site_label
_atom_site_type_symbol
_atom_site_description
_atom_site_fract_x
_atom_site_fract_y
_atom_site_fract_z
_atom_type_partial_charge
O1    O     O_R   0.748800 0.497470 0.428000 -0.549257
O2    O     O_R   0.476420 0.724060 0.429470 -0.512718
C1    C     C_R   0.358860 0.772681 0.397942 0.541384
O3    O     O_R   0.264580 0.744340 0.416750 -0.507714
O4    O     O_R   0.309380 0.472470 0.418200 -0.492239
C2    C     C_R   0.379771 0.349182 0.391696 0.550519
O5    O     O_R   0.501710 0.260430 0.414300 -0.501572
O6    O     O_R   0.728090 0.305600 0.428960 -0.456139
C3    C     C_R   0.777928 0.379288 0.403429 0.535853
O7    O     O_R   0.738760 0.495930 0.588610 -0.533236
O8    O     O_R   0.467110 0.722640 0.578360 -0.510068
C4    C     C_R   0.344166 0.768400 0.604801 0.546192
O9    O     O_R   0.254530 0.742800 0.577360 -0.529214
O10   O     O_R   0.300070 0.471040 0.567100 -0.513304
C5    C     C_R   0.367642 0.350578 0.594995 0.540288
O11   O     O_R   0.491670 0.258900 0.574910 -0.525269
O12   O     O_R   0.718780 0.304180 0.577850 -0.504204
C6    C     C_R   0.756154 0.380645 0.612277 0.543819
Cr1   Cr    Cr6+3 0.601770 0.606860 0.505860 0.990162
Cr2   Cr    Cr6+3 0.291380 0.601660 0.495070 1.021292
Cr3   Cr    Cr6+3 0.606880 0.291510 0.499120 1.037173
O13   O     O_3   0.500010 0.500010 0.500020 -0.251685
C7    C     C_R   0.844160 0.849656 0.125004 0.182545
C8    C     C_R   0.847965 0.950475 0.168705 -0.073988
C9    C     C_R   0.723891 0.056411 0.201433 0.206808
C10   C     C_R   0.591281 0.070555 0.186463 0.056638
H1    H     H_    0.529254 0.111534 0.320261 0.180665
C11   C     C_R   0.328287 0.282131 0.177081 -0.003236
C12   C     C_R   0.442980 0.194197 0.289897 -0.101091
C13   C     C_R   0.451815 0.184715 0.216753 0.007743
C14   C     C_R   0.070095 0.676213 0.296780 -0.071297
C15   C     C_R   0.968983 0.795842 0.333096 -0.092240
C16   C     C_R   0.594885 0.959349 0.151770 -0.139276
C17   C     C_R   0.715882 0.852384 0.118663 -0.117272
C18   C     C_R   0.213556 0.395188 0.212614 -0.143724
C19   C     C_R   0.219172 0.415831 0.285305 -0.042434
C20   C     C_R   0.895887 0.784189 0.390828 -0.102494
C21   C     C_R   0.926067 0.651781 0.413379 -0.099559
C22   C     C_R   0.028830 0.531214 0.377945 -0.060056
C23   C     C_R   0.101506 0.542748 0.319230 0.047391
C24   C     C_R   0.339001 0.316657 0.323561 -0.001779
H2    H     H_    0.709807 0.770483 0.090182 0.150689
H3    H     H_    0.950114 0.897231 0.317493 0.166099
H4    H     H_    0.947936 0.942631 0.180127 0.156600
H5    H     H_    0.127942 0.687268 0.253143 0.154102
H6    H     H_    0.501161 0.958212 0.154657 0.156708
H7    H     H_    0.118452 0.468612 0.183858 0.182056
H8    H     H_    0.817818 0.877527 0.418812 0.121723
H9    H     H_    0.872011 0.642616 0.459275 0.129411
H10   H     H_    0.054922 0.429117 0.397638 0.093715
C25   C     C_R   0.957255 0.286349 0.308011 -0.126836
H11   H     H_    0.042703 0.236625 0.346304 0.086868
C26   C     C_R   0.987083 0.275598 0.235862 -0.120071
H12   H     H_    0.096483 0.220261 0.218504 0.092300
C27   C     C_R   0.876372 0.334336 0.186087 0.058152
C28   C     C_R   0.736024 0.416200 0.207781 -0.098448
H13   H     H_    0.650678 0.464541 0.169324 0.117916
C29   C     C_R   0.706116 0.430275 0.280000 -0.052901
H14   H     H_    0.596539 0.486551 0.297255 0.131535
C30   C     C_R   0.816381 0.361449 0.329705 0.096447
C31   C     C_R   0.473477 0.770505 0.285563 -0.137430
H15   H     H_    0.577568 0.706623 0.308794 0.141821
C32   C     C_R   0.461962 0.783771 0.212067 -0.168184
H16   H     H_    0.555809 0.729271 0.179214 0.106488
C33   C     C_R   0.328939 0.870430 0.182028 0.027610
C34   C     C_R   0.208199 0.937325 0.226067 -0.125649
H17   H     H_    0.104180 0.005914 0.204328 0.152869
C35   C     C_R   0.218366 0.915643 0.298230 -0.151741
H18   H     H_    0.123261 0.962887 0.330487 0.134753
C36   C     C_R   0.350399 0.828650 0.327910 0.027545
C37   C     C_R   0.389547 0.198211 0.693310 -0.134204
H19   H     H_    0.460919 0.105733 0.662522 0.124328
C38   C     C_R   0.380806 0.185450 0.765491 -0.123056
H20   H     H_    0.442471 0.081660 0.788280 0.136020
C39   C     C_R   0.297140 0.304772 0.807812 0.032290
C40   C     C_R   0.212392 0.435830 0.776252 -0.136091
H21   H     H_    0.143488 0.527689 0.807976 0.130436
C41   C     C_R   0.222966 0.449217 0.703425 -0.128484
H22   H     H_    0.165570 0.553177 0.680282 0.131377
C42   C     C_R   0.317728 0.331068 0.662648 0.031088
C43   C     C_R   0.741827 0.474915 0.731867 -0.121839
H23   H     H_    0.699264 0.578719 0.709696 0.135307
C44   C     C_R   0.754161 0.461581 0.804723 -0.127586
H24   H     H_    0.725705 0.554261 0.836425 0.131546
C45   C     C_R   0.815950 0.328590 0.835617 0.030860
C46   C     C_R   0.849850 0.210690 0.792974 -0.127071
H25   H     H_    0.898319 0.106607 0.815808 0.132694
C47   C     C_R   0.832608 0.225115 0.719307 -0.134294
H26   H     H_    0.861152 0.133612 0.686674 0.119627
C48   C     C_R   0.784196 0.356799 0.688298 0.035957
C49   C     C_R   0.203727 0.825531 0.714471 -0.138330
H27   H     H_    0.120303 0.819283 0.686865 0.124715
C50   C     C_R   0.196992 0.836183 0.787656 -0.138549
H28   H     H_    0.105235 0.845071 0.814266 0.131186
C51   C     C_R   0.303873 0.842343 0.825346 0.035976
C52   C     C_R   0.420057 0.832969 0.789000 -0.145831
H29   H     H_    0.503518 0.838438 0.817025 0.120609
C53   C     C_R   0.426227 0.823422 0.715583 -0.148300
H30   H     H_    0.516504 0.816835 0.688517 0.114993
C54   C     C_R   0.319489 0.816974 0.677979 0.036670
O14   O     O_R   0.186690 0.923650 0.086970 -0.470332
O15   O     O_R   0.957250 0.194250 0.084630 -0.505076
C55   C     C_R   0.912699 0.315846 0.112076 0.517397
O16   O     O_R   0.934970 0.407490 0.085330 -0.504644
O17   O     O_R   0.203780 0.365190 0.067090 -0.438268
C56   C     C_R   0.305812 0.260064 0.102244 0.542796
O18   O     O_R   0.417600 0.174890 0.067840 -0.506066
O19   O     O_R   0.375320 0.946260 0.070860 -0.548997
C57   C     C_R   0.305678 0.901255 0.106287 0.538527
O20   O     O_R   0.160600 0.919630 0.926660 -0.501535
O21   O     O_R   0.933060 0.190520 0.936020 -0.504690
C58   C     C_R   0.880156 0.310228 0.905661 0.538559
O22   O     O_R   0.908880 0.403460 0.925020 -0.509812
O23   O     O_R   0.179600 0.361450 0.918490 -0.476264
C59   C     C_R   0.292122 0.283666 0.883370 0.560741
O24   O     O_R   0.391510 0.170860 0.907530 -0.522498
O25   O     O_R   0.351130 0.942530 0.922260 -0.513828
C60   C     C_R   0.276594 0.893412 0.898047 0.552779
Cr4   Cr    Cr6+3 0.062440 0.063090 0.008210 1.063039
Cr5   Cr    Cr6+3 0.062880 0.375170 0.998920 1.108238
Cr6   Cr    Cr6+3 0.374700 0.061720 0.992470 1.014395
O26   O     O_3   0.166667 0.166667 0.999870 -0.292929
N1    N     N_R   0.970432 0.740779 0.091161 0.058161
O27   O     O_R   0.094279 0.722398 0.107137 -0.349904
O28   O     O_R   0.962203 0.660842 0.042821 -0.330166
Cl1   Cl    Cl    0.744030 0.146216 0.271535 -0.709220

loop_
_geom_bond_atom_site_label_1
_geom_bond_atom_site_label_2
_geom_bond_distance
_ccdc_geom_bond_type
C31   C36   1.408346 A    
C34   C35   1.373122 A    
C27   C28   1.389814 A    
C32   C33   1.392137 A    
C50   H28   1.083229 S    
H1    C12   1.084276 S    
C38   H20   1.081777 S    
C51   C52   1.403438 A    
C17   H2    1.082468 S    
C5    C42   1.445861 S    
O19   Cr6   1.952666 S    
C39   C40   1.395758 A    
C45   C58   1.457053 S    
C18   H7    1.084218 S    
O20   C60   1.271432 A    
O23   C59   1.270467 A    
N1    O27   1.300970 A    
C21   H9    1.082106 S    
C26   H12   1.081913 S    
C28   H13   1.083191 S    
C4    O9    1.262630 A    
O8    Cr1   1.934983 S    
C20   C21   1.395601 A    
C44   H24   1.083972 S    
C40   C41   1.389344 A    
C21   C22   1.398491 A    
C41   C42   1.409384 A    
N1    O28   1.301138 A    
C56   O18   1.276135 A    
O14   C57   1.250632 A    
C59   O24   1.251304 A    
C27   C55   1.433214 S    
O19   C57   1.292015 A    
O21   Cr4   1.951121 S    
C31   C32   1.388836 A    
O25   Cr6   1.971139 S    
C37   C42   1.392038 A    
C14   C23   1.401893 A    
C18   C19   1.391265 A    
C11   C18   1.408852 A    
C11   C56   1.468894 S    
C35   H18   1.082743 S    
C2    C24   1.459163 S    
C52   C53   1.383207 A    
C7    C8    1.401380 A    
O17   Cr5   1.964751 S    
C49   C54   1.404334 A    
O9    Cr2   2.083059 S    
C34   H17   1.077123 S    
C50   C51   1.399390 A    
Cr3   O13   1.984942 S    
C16   H6    1.035910 S    
C38   C39   1.406271 A    
C19   C24   1.406233 A    
C31   H15   1.081338 S    
C58   O22   1.275414 A    
C43   C44   1.377261 A    
Cr5   O26   1.985508 S    
C43   H23   1.080572 S    
C26   C27   1.401973 A    
C51   C60   1.449434 S    
O1    Cr1   2.052310 S    
O24   Cr6   2.071059 S    
C25   H11   1.082776 S    
O14   Cr4   2.071816 S    
O10   Cr2   1.951744 S    
C19   C23   1.480272 S    
Cr1   O13   2.001375 S    
O1    C3    1.263815 A    
C8    C9    1.404875 A    
C49   H27   1.083261 S    
O4    Cr2   1.967643 S    
C41   H22   1.083104 S    
O6    C3    1.286503 A    
C7    N1    1.438206 S    
C29   H14   1.082951 S    
C45   C46   1.408246 A    
C28   C29   1.387031 A    
O12   Cr3   1.970506 S    
C25   C26   1.386521 A    
C6    C48   1.457815 S    
C9    Cl1   1.728636 S    
C12   C13   1.378714 A    
C49   C50   1.379542 A    
O22   Cr5   2.081588 S    
C10   C16   1.374032 A    
C14   C15   1.395150 A    
O7    Cr1   2.074841 S    
C7    C17   1.396453 A    
C52   H29   1.083181 S    
C1    C36   1.439988 S    
O12   C6    1.285803 A    
C15   C20   1.395833 A    
C40   H21   1.083338 S    
C20   H8    1.082562 S    
C33   C57   1.456941 S    
Cr6   O26   1.966241 S    
C43   C48   1.403722 A    
C44   C45   1.396676 A    
Cr2   O13   1.969506 S    
C10   C13   1.511520 S    
C53   C54   1.398731 A    
C8    H4    1.075850 S    
C39   C59   1.446351 S    
O18   Cr6   2.094289 S    
C1    O3    1.275459 A    
C22   C23   1.406955 A    
C37   C38   1.373653 A    
Cr4   O26   1.997204 S    
O21   C58   1.279943 A    
C12   C24   1.398827 A    
O2    Cr1   1.954314 S    
C46   H25   1.082659 S    
C47   C48   1.400879 A    
O6    Cr3   1.937319 S    
O20   Cr4   2.067674 S    
O8    C4    1.274713 A    
O11   Cr3   2.058165 S    
C2    O5    1.261964 A    
O17   C56   1.309855 A    
C3    C30   1.433107 S    
C11   C13   1.436537 A    
O2    C1    1.262182 A    
C9    C10   1.408726 A    
C37   H19   1.084000 S    
O5    Cr3   2.094047 S    
O25   C60   1.273595 A    
O4    C2    1.275920 A    
O7    C6    1.272606 A    
C15   H3    1.074450 S    
C16   C17   1.394092 A    
C46   C47   1.396196 A    
C33   C34   1.409184 A    
O15   C55   1.281367 A    
C4    C54   1.450165 S    
C32   H16   1.081879 S    
O3    Cr2   2.071933 S    
C22   H10   1.081433 S    
C47   H26   1.083193 S    
C35   C36   1.382466 A    
C53   H30   1.082948 S    
C14   H5    1.083120 S    
C55   O16   1.265049 A    
O10   C5    1.263858 A    
C25   C30   1.390083 A    
C29   C30   1.405391 A    
O23   Cr5   1.938296 S    
O15   Cr4   1.945401 S    
C5    O11   1.269599 A    
O16   Cr5   2.056341 S    
