data_mof_unit_37768.cif
_audit_creation_date              2012-12-10T17:02:44-0500
_audit_creation_method            fapswitch 2.2
_symmetry_space_group_name_H-M    P1
_symmetry_Int_Tables_number       1
_space_group_crystal_system       triclinic
_cell_length_a                    18.59228
_cell_length_b                    19.31236
_cell_length_c                    18.617837
_cell_angle_alpha                 109.7593
_cell_angle_beta                  108.535249
_cell_angle_gamma                 109.823127
_cell_volume                      5164.15784391

loop_
_atom_site_label
_atom_site_type_symbol
_atom_type_description
_atom_site_fract_x
_atom_site_fract_y
_atom_site_fract_z
_atom_type_partial_charge
C1    C     C_R   0.383875 0.382526 0.503350 0.816303
C2    C     C_3   0.806208 0.495646 0.807349 -0.050273
C3    C     C_3   0.836201 0.511893 0.742960 -0.432859
C4    C     C_3   0.791090 0.568559 0.853325 -0.563943
C5    C     C_R   0.398242 0.383330 0.663229 -0.231781
C6    C     C_R   0.400838 0.392722 0.741931 0.565271
C7    C     C_R   0.327436 0.335061 0.738571 -0.263467
C8    C     C_R   0.255089 0.269012 0.658482 -0.223317
C9    C     C_R   0.253961 0.256185 0.578393 0.059337
C10   C     C_R   0.323150 0.318799 0.581230 -0.028539
C11   C     C_R   0.185374 0.183167 0.496339 -0.174931
C12   C     C_R   0.619856 0.501218 0.620201 0.819727
C13   C     C_R   0.178923 0.178541 0.415430 -0.024244
C14   C     C_R   0.240453 0.250629 0.421018 -0.043656
C15   C     C_R   0.315024 0.316543 0.502531 -0.112445
C16   C     C_R   0.113543 0.106516 0.329323 0.471388
C17   C     C_R   0.105231 0.116192 0.255041 -0.294511
C18   C     C_R   0.160644 0.190056 0.262115 0.464172
C19   C     C_R   0.226175 0.257542 0.345071 -0.266675
C20   C     C_R   0.230949 0.507334 0.400455 0.549138
C21   C     C_R   0.192380 0.552452 0.431378 -0.308590
C22   C     C_R   0.139032 0.568206 0.376823 -0.353508
C23   C     C_R   0.617680 0.617148 0.498184 0.780941
C24   C     C_R   0.122344 0.538110 0.290070 0.506350
C25   C     C_R   0.180326 0.514091 0.266127 -0.105203
C26   C     C_R   0.240618 0.504707 0.326445 -0.083810
C27   C     C_R   0.182101 0.501443 0.186477 -0.189010
C28   C     C_R   0.247406 0.487962 0.171195 0.061896
C29   C     C_R   0.315545 0.493152 0.237864 0.068720
C30   C     C_R   0.309391 0.496215 0.312845 -0.187227
C31   C     C_R   0.247477 0.471008 0.090748 -0.144462
C32   C     C_R   0.317618 0.468531 0.080436 -0.125945
C33   C     C_R   0.389644 0.484088 0.149901 -0.143485
C34   C     C_R   0.379005 0.498166 0.380350 0.831218
C35   C     C_R   0.389319 0.496947 0.227981 -0.161155
C36   C     C_R   0.577594 0.725420 0.440973 -0.150473
C37   C     C_R   0.561170 0.786871 0.429113 -0.127531
C38   C     C_R   0.629395 0.860436 0.447396 -0.154424
C39   C     C_R   0.712781 0.870116 0.471935 -0.160239
C40   C     C_R   0.729715 0.804657 0.476498 0.053213
C41   C     C_R   0.662845 0.735733 0.469202 0.067096
C42   C     C_R   0.811438 0.807347 0.491178 -0.198902
C43   C     C_R   0.827208 0.743745 0.504864 -0.023592
C44   C     C_R   0.765768 0.686951 0.515954 -0.058067
C45   C     C_3   0.647603 0.415221 0.686507 -0.568211
C46   C     C_R   0.683046 0.680685 0.493857 -0.119816
C47   C     C_R   0.901775 0.734408 0.509045 0.473188
C48   C     C_R   0.924191 0.688341 0.548809 -0.328892
C49   C     C_R   0.867377 0.639424 0.567593 0.492431
C50   C     C_R   0.787911 0.636951 0.549192 -0.245728
C51   C     C_R   0.995953 0.382903 0.875508 0.869605
C52   C     C_R   0.877265 0.497382 0.875836 0.912562
C53   C     C_R   0.994615 0.617967 0.114930 0.968403
C54   C     C_R   0.116373 0.502231 0.118771 0.896991
C55   C     C_R   0.999666 0.881518 0.381767 0.848195
C56   C     C_3   0.717850 0.407697 0.753714 0.957935
C57   C     C_R   0.118795 0.115975 0.497116 0.830260
C58   C     C_R   0.998115 0.116820 0.618884 0.846808
C59   C     C_R   0.880596 0.878869 0.497151 0.874394
C60   C     C_R   0.997583 0.386536 0.713536 0.507888
C61   C     C_R   0.000920 0.383951 0.638021 -0.235974
C62   C     C_R   0.020196 0.328088 0.590374 -0.220951
C63   C     C_R   0.027458 0.267741 0.611080 -0.147023
C64   C     C_R   0.010899 0.258761 0.677611 -0.000010
C65   C     C_R   0.003083 0.322721 0.735028 -0.018058
C66   C     C_R   0.002587 0.187012 0.687206 -0.148463
C67   C     C_3   0.765976 0.513344 0.673716 -0.464321
C68   C     C_R   0.003947 0.185962 0.763665 -0.029878
C69   C     C_R   0.016070 0.258591 0.830183 -0.058939
C70   C     C_R   0.004125 0.320614 0.811726 -0.127210
C71   C     C_R   0.994799 0.115972 0.777784 0.445248
C72   C     C_R   0.019096 0.127318 0.862121 -0.280503
C73   C     C_R   0.040929 0.202373 0.930858 0.474937
C74   C     C_R   0.039946 0.268030 0.914710 -0.273378
C75   C     C_R   0.159226 0.778343 0.257372 0.381172
C76   C     C_R   0.227205 0.862323 0.294806 0.363422
C77   C     C_R   0.218904 0.930851 0.341232 0.386677
C78   C     C_3   0.723249 0.577260 0.785030 0.941913
C79   C     C_R   0.144387 0.913419 0.351054 -0.324168
C80   C     C_R   0.072120 0.829906 0.304784 -0.089646
C81   C     C_R   0.074614 0.762213 0.247926 -0.100863
C82   C     C_R   0.996956 0.814106 0.313439 -0.087551
C83   C     C_R   0.918101 0.735943 0.255379 0.003413
C84   C     C_R   0.912066 0.672000 0.183769 -0.110722
C85   C     C_R   0.993395 0.683304 0.183760 -0.110160
C86   C     C_R   0.843907 0.722977 0.266618 -0.204246
C87   C     C_R   0.761606 0.656820 0.201910 -0.325126
C88   C     C_R   0.750268 0.598023 0.124943 0.478886
C89   C     C_3   0.687945 0.502286 0.690966 -0.032149
C90   C     C_R   0.824678 0.601861 0.116338 0.374016
Cu1   Cu    Cu3+1 0.500360 0.438220 0.438540 0.912001
Cu2   Cu    Cu3+1 0.499640 0.561780 0.561460 1.005537
Cu3   Cu    Cu3+1 0.935530 0.438290 0.997340 0.940438
Cu4   Cu    Cu3+1 0.059130 0.561800 0.997250 0.988650
Cu5   Cu    Cu3+1 0.937870 0.000030 0.437890 0.957059
Cu6   Cu    Cu3+1 0.062130 0.000000 0.562130 0.993921
H1    H     H_    0.613005 0.363633 0.617941 0.159202
H2    H     H_    0.855406 0.626948 0.900336 0.145888
H3    H     H_    0.795483 0.575018 0.676161 0.243173
H4    H     H_    0.455820 0.428083 0.667626 0.174506
H5    H     H_    0.325799 0.339372 0.797399 0.136300
H6    H     H_    0.199990 0.229282 0.661102 0.167445
H7    H     H_    0.055672 0.066310 0.188997 0.157054
H8    H     H_    0.593714 0.409486 0.702326 0.202925
H9    H     H_    0.445885 0.485781 0.143212 0.120147
H10   H     H_    0.193940 0.459774 0.034771 0.127199
H11   H     H_    0.317001 0.456710 0.019036 0.123069
H12   H     H_    0.523001 0.670342 0.428679 0.123604
H13   H     H_    0.496056 0.778717 0.408723 0.129095
H14   H     H_    0.763040 0.931166 0.490223 0.161945
H15   H     H_    0.984527 0.686863 0.563090 0.150852
H16   H     H_    0.060279 0.327365 0.969222 0.142926
H17   H     H_    0.743794 0.462342 0.607612 0.203790
H18   H     H_    0.847441 0.766621 0.324021 0.191813
H19   H     H_    0.706007 0.654331 0.210386 0.170380
H20   H     H_    0.849165 0.461576 0.709807 0.243853
O1    O     O_R   0.410140 0.357660 0.448100 -0.593091
O2    O     O_R   0.049980 0.462000 0.907580 -0.569369
O3    O     O_R   0.854480 0.447890 0.906670 -0.544566
O4    O     O_R   0.958860 0.552200 0.906600 -0.617159
O5    O     O_R   0.944670 0.538090 0.087010 -0.559787
O6    O     O_R   0.049050 0.642400 0.086940 -0.561642
O7    O     O_R   0.035800 0.447890 0.088000 -0.587010
O8    O     O_R   0.140170 0.552200 0.087920 -0.564350
O9    O     O_R   0.948030 0.909890 0.357850 -0.583129
O10   O     O_R   0.052970 0.909860 0.462770 -0.570419
O11   O     O_R   0.037700 0.090200 0.447550 -0.550134
O12   O     O_R   0.409530 0.462000 0.551910 -0.553578
O13   O     O_R   0.142640 0.090170 0.552470 -0.617386
O14   O     O_R   0.947030 0.090160 0.537260 -0.607787
O15   O     O_R   0.051970 0.090130 0.642170 -0.555656
O16   O     O_R   0.857360 0.909860 0.447560 -0.621758
O17   O     O_R   0.962300 0.909830 0.552480 -0.507784
O18   O     O_R   0.590960 0.447830 0.538760 -0.615401
O19   O     O_R   0.590350 0.552170 0.642570 -0.528392
O20   O     O_R   0.590470 0.538000 0.448090 -0.600731
O21   O     O_R   0.589860 0.642340 0.551900 -0.580641
O22   O     O_R   0.409650 0.447830 0.357430 -0.620473
O23   O     O_R   0.409040 0.552170 0.461240 -0.547944
O24   O     O_R   0.945600 0.357690 0.907660 -0.605545
H21   H     H_    0.898192 0.573715 0.778697 0.214489
O25   O     O_3   0.145040 0.194033 0.185737 -0.575041
C91   C     C_3   0.223444 0.239155 0.186650 -0.214338
H22   H     H_    0.276033 0.226908 0.218163 0.143888
H23   H     H_    0.246074 0.308170 0.218571 0.171495
H24   H     H_    0.209816 0.217825 0.118144 0.214854
O26   O     O_3   0.478013 0.456462 0.819340 -0.552529
C92   C     C_3   0.461957 0.493990 0.887604 -0.294172
H25   H     H_    0.448226 0.453553 0.917445 0.154556
H26   H     H_    0.408126 0.507951 0.865348 0.137225
H27   H     H_    0.522031 0.555334 0.939805 0.205959
O27   O     O_3   0.062668 0.028561 0.320767 -0.577409
C93   C     C_3   0.004768 0.961130 0.233324 -0.291743
H28   H     H_    0.041297 0.948406 0.198152 0.162201
H29   H     H_    0.953703 0.973324 0.198793 0.148868
H30   H     H_    0.969280 0.901866 0.232412 0.199443
H31   H     H_    0.264302 0.316926 0.349938 0.183447
O28   O     O_3   0.259525 0.467364 0.442780 -0.565492
C94   C     C_3   0.188260 0.408228 0.441941 -0.349288
H32   H     H_    0.138994 0.355223 0.374069 0.163695
H33   H     H_    0.156220 0.437242 0.473096 0.149194
H34   H     H_    0.212893 0.381903 0.481728 0.202238
H35   H     H_    0.197602 0.568846 0.495179 0.166666
H36   H     H_    0.104553 0.597639 0.399710 0.164578
O29   O     O_3   0.054452 0.539211 0.232385 -0.556477
C95   C     C_3   0.975383 0.495724 0.232058 -0.283115
H37   H     H_    0.966044 0.541864 0.277730 0.143373
H38   H     H_    0.971858 0.444375 0.248102 0.126294
H39   H     H_    0.919109 0.463726 0.165821 0.190039
H40   H     H_    0.448627 0.511672 0.280322 0.149426
O30   O     O_3   0.890222 0.594165 0.605030 -0.586815
C96   C     C_3   0.864761 0.514510 0.537695 -0.386647
H41   H     H_    0.901867 0.521683 0.501624 0.162723
H42   H     H_    0.792929 0.478103 0.491644 0.167186
H43   H     H_    0.879930 0.476835 0.567534 0.189379
O31   O     O_3   0.688653 0.396350 0.813202 -0.577893
C97   C     C_3   0.623616 0.311448 0.777614 -0.269668
H44   H     H_    0.653491 0.270455 0.777794 0.189535
H45   H     H_    0.570469 0.285054 0.710692 0.137342
H46   H     H_    0.592824 0.309949 0.819631 0.161364
H47   H     H_    0.617845 0.910495 0.442861 0.126782
O32   O     O_3   0.947231 0.766900 0.470359 -0.573502
C98   C     C_3   0.000528 0.732211 0.455276 -0.305779
H48   H     H_    0.963430 0.661476 0.419864 0.137614
H49   H     H_    0.060518 0.759138 0.517491 0.158124
H50   H     H_    0.023752 0.750399 0.413475 0.195421
H51   H     H_    0.744367 0.596255 0.562536 0.157690
O33   O     O_3   0.064511 0.208782 0.012593 -0.567906
C99   C     C_3   0.031126 0.251690 0.057999 -0.245721
H52   H     H_    0.963673 0.235232 0.014276 0.139515
H53   H     H_    0.076493 0.321264 0.094305 0.167114
H54   H     H_    0.027359 0.232508 0.107076 0.211726
O34   O     O_3   0.984394 0.448327 0.762618 -0.592796
C100  C     C_3   0.044548 0.530168 0.783050 -0.300770
H55   H     H_    0.016532 0.544589 0.731447 0.164507
H56   H     H_    0.109935 0.537882 0.793619 0.142474
H57   H     H_    0.056437 0.578847 0.844833 0.210343
H58   H     H_    0.992019 0.428093 0.617771 0.135665
O35   O     O_3   0.740282 0.343721 0.720528 -0.593161
C101  C     C_3   0.693441 0.287782 0.629503 -0.404199
H59   H     H_    0.705766 0.322255 0.593748 0.172754
H60   H     H_    0.622554 0.249068 0.606218 0.158078
H61   H     H_    0.718008 0.242663 0.615018 0.203761
H62   H     H_    0.028798 0.331024 0.536403 0.149904
H63   H     H_    0.045886 0.227941 0.573467 0.150943
O36   O     O_3   0.958859 0.035123 0.709779 -0.564770
C102  C     C_3   0.872092 0.986376 0.690779 -0.341892
H64   H     H_    0.866244 0.991224 0.749765 0.157853
H65   H     H_    0.849024 0.918674 0.649196 0.196037
H66   H     H_    0.828489 0.004746 0.655163 0.159470
H67   H     H_    0.016959 0.075198 0.873124 0.176654
O37   O     O_3   0.666894 0.540503 0.053272 -0.555694
C103  C     C_3   0.610709 0.493138 0.075928 -0.393456
H68   H     H_    0.579566 0.527609 0.101840 0.167297
H69   H     H_    0.644642 0.476796 0.123236 0.148543
H70   H     H_    0.557544 0.432294 0.015825 0.192162
O38   O     O_3   0.177877 0.713158 0.234464 -0.519400
C104  C     C_3   0.234750 0.720463 0.311606 -0.249782
H71   H     H_    0.202120 0.711441 0.351042 0.149089
H72   H     H_    0.297160 0.781778 0.352738 0.144712
H73   H     H_    0.253887 0.671690 0.293341 0.183968
O39   O     O_3   0.297634 0.873266 0.279211 -0.540640
C105  C     C_3   0.379271 0.930328 0.356830 -0.249521
H74   H     H_    0.376887 0.933346 0.416832 0.110230
H75   H     H_    0.405522 0.994659 0.364205 0.210843
H76   H     H_    0.426350 0.908688 0.350957 0.159229
O40   O     O_3   0.280364 0.013362 0.370264 -0.551844
C106  C     C_3   0.315941 0.064999 0.461171 -0.331784
H77   H     H_    0.329935 0.031982 0.498099 0.135493
H78   H     H_    0.272270 0.088306 0.474843 0.185631
H79   H     H_    0.379062 0.121631 0.485921 0.181637
H80   H     H_    0.140879 0.966633 0.390225 0.208186
O41   O     O_3   0.809720 0.541596 0.038248 -0.582064
C107  C     C_3   0.760807 0.457957 0.022122 -0.104970
H81   H     H_    0.690973 0.428938 0.974211 0.209775
H82   H     H_    0.766766 0.454688 0.082300 0.057985
H83   H     H_    0.784433 0.417111 0.992024 0.181558
O42   O     O_3   0.754594 0.653938 0.780113 -0.592688
C108  C     C_3   0.837478 0.723017 0.848578 -0.394747
H84   H     H_    0.890378 0.710224 0.844515 0.182152
H85   H     H_    0.841815 0.740551 0.913682 0.153164
H86   H     H_    0.847377 0.779090 0.840123 0.205956
O43   O     O_3   0.650328 0.564304 0.800071 -0.579643
C109  C     C_3   0.667886 0.637146 0.871332 -0.184735
H87   H     H_    0.673515 0.688718 0.855633 0.175616
H88   H     H_    0.727000 0.659916 0.932402 0.129324
H89   H     H_    0.611723 0.620225 0.883817 0.195393
H90   H     H_    0.765218 0.554329 0.895851 0.248366

loop_
_geom_bond_atom_site_label_1
_geom_bond_atom_site_label_2
_ccdc_geom_bond_type
C8    C9    A    
C91   H24   S    
C66   C68   A    
C54   O7    A    
C109  H88   S    
O29   C95   S    
C21   H35   S    
C4    H2    S    
C36   H12   S    
Cu5   Cu6   S    
C11   C13   A    
C73   C74   A    
C100  H56   S    
C108  H84   S    
C3    H21   S    
C92   H27   S    
O30   C96   S    
C49   C50   A    
C106  H78   S    
C27   C54   S    
C7    C8    A    
C103  H68   S    
C94   H34   S    
Cu1   O18   S    
C28   C29   A    
Cu3   Cu4   S    
C38   H47   S    
C84   C90   A    
C23   O20   A    
C56   O31   S    
C57   O13   A    
C36   C37   A    
C92   H26   S    
C7    H5    S    
C3    H20   S    
C98   H49   S    
C94   H32   S    
C74   H16   S    
C5    C6    A    
C32   H11   S    
C91   H22   S    
C100  H57   S    
C50   H51   S    
O43   C109  S    
C34   O23   A    
C67   C89   S    
C51   O2    A    
C109  H87   S    
C18   C19   A    
C71   O36   S    
C42   C43   A    
C99   H53   S    
O40   C106  S    
O32   C98   S    
C4    H90   S    
O26   C92   S    
C68   C69   A    
Cu4   O4    S    
C84   C85   A    
C58   C66   S    
C39   H14   S    
Cu1   O20   S    
C83   C84   A    
C45   C56   S    
C44   C46   A    
C101  H59   S    
C97   H45   S    
C12   O19   A    
C102  H66   S    
C41   C46   A    
Cu1   O1    S    
C1    C15   S    
C51   C70   S    
C93   H29   S    
C29   C30   A    
C45   C89   S    
O41   C107  S    
C37   H13   S    
Cu1   Cu2   S    
C96   H43   S    
C67   H3    S    
C72   C73   A    
C56   O35   S    
C51   O24   A    
C40   C42   A    
C100  H55   S    
O35   C101  S    
C78   O42   S    
C23   C46   S    
C12   O18   A    
C13   C14   A    
C95   H38   S    
C36   C41   A    
C99   H52   S    
C107  H82   S    
C47   O32   S    
Cu2   O21   S    
Cu2   O12   S    
C106  H77   S    
C96   H42   S    
C60   O34   S    
C77   C79   A    
C78   C89   S    
C59   O16   A    
C105  H76   S    
C30   C34   S    
C102  H64   S    
C19   H31   S    
C47   C48   A    
C55   O9    A    
C12   C89   S    
C18   O25   S    
C33   H9    S    
C24   C25   A    
C105  H74   S    
C16   O27   S    
C98   H50   S    
C39   C40   A    
C49   O30   S    
O36   C102  S    
C16   C17   A    
C76   O39   S    
C25   C26   A    
C11   C57   S    
C34   O22   A    
C63   C64   A    
C90   O41   S    
O33   C99   S    
C55   C82   S    
C107  H83   S    
C64   C66   A    
C61   H58   S    
C99   H54   S    
C2    C4    S    
C75   C76   A    
C98   H48   S    
C4    C78   S    
C37   C38   A    
C45   H8    S    
Cu5   O14   S    
Cu1   O22   S    
C22   H36   S    
Cu5   O9    S    
C104  H72   S    
C31   C32   A    
C14   C15   A    
C5    H4    S    
C8    H6    S    
C58   O15   A    
C97   H46   S    
C48   H15   S    
C62   C63   A    
C94   H33   S    
C17   C18   A    
C17   H7    S    
C55   O10   A    
Cu6   O10   S    
C69   C74   A    
C108  H85   S    
C1    O1    A    
C76   C77   A    
C93   H30   S    
C9    C11   A    
C62   H62   S    
Cu6   O17   S    
C2    C52   S    
C2    C56   S    
Cu6   O15   S    
Cu4   O6    S    
C1    O12   A    
C80   C82   A    
C40   C41   A    
C88   C90   A    
C60   C65   A    
C97   H44   S    
C82   C83   A    
C43   C44   A    
C63   H63   S    
O28   C94   S    
C31   H10   S    
C22   C24   A    
Cu2   O19   S    
C107  H81   S    
C52   O4    A    
Cu5   O16   S    
C73   O33   S    
C96   H41   S    
C104  H73   S    
C20   O28   S    
C9    C10   A    
C103  H70   S    
C44   C50   A    
C91   H23   S    
C54   O8    A    
O42   C108  S    
O31   C97   S    
C10   C15   A    
C86   C87   A    
C87   H19   S    
C14   C19   A    
C23   O21   A    
C28   C31   A    
C3    C67   S    
Cu3   O7    S    
C95   H39   S    
Cu3   O5    S    
C80   C81   A    
C42   C59   S    
C57   O11   A    
C105  H75   S    
C77   O40   S    
C6    C7    A    
C75   C81   A    
C25   C27   A    
C29   C35   A    
C78   O43   S    
C109  H89   S    
C86   H18   S    
C53   O6    A    
C64   C65   A    
C2    C3    S    
O38   C104  S    
C103  H69   S    
C71   C72   A    
Cu3   O24   S    
C45   H1    S    
C32   C33   A    
C6    O26   S    
Cu4   O2    S    
C104  H71   S    
C38   C39   A    
C95   H37   S    
C20   C26   A    
C58   O14   A    
C68   C71   A    
C48   C49   A    
C33   C35   A    
C59   O17   A    
C24   O29   S    
C108  H86   S    
C92   H25   S    
C67   H17   S    
C61   C62   A    
C69   C70   A    
C79   H80   S    
C53   O5    A    
C79   C80   A    
C72   H67   S    
C52   O3    A    
Cu5   O11   S    
C5    C10   A    
C83   C86   A    
C20   C21   A    
C87   C88   A    
C101  H60   S    
O34   C100  S    
C88   O37   S    
C13   C16   A    
C27   C28   A    
C102  H65   S    
C35   H40   S    
C75   O38   S    
O25   C91   S    
C60   C61   A    
C53   C85   S    
O27   C93   S    
Cu3   O3    S    
C101  H61   S    
C93   H28   S    
C21   C22   A    
Cu2   O23   S    
C43   C47   A    
O39   C105  S    
C106  H79   S    
C81   C85   A    
C65   C70   A    
O37   C103  S    
Cu6   O13   S    
C26   C30   A    
Cu4   O8    S    
