data_mof_unit_38605.cif
_audit_creation_date              2012-12-10T19:12:30-0500
_audit_creation_method            fapswitch 2.2
_symmetry_space_group_name_H-M    P1
_symmetry_Int_Tables_number       1
_space_group_crystal_system       triclinic
_cell_length_a                    15.741979
_cell_length_b                    10.664911
_cell_length_c                    9.722483
_cell_angle_alpha                 89.613077
_cell_angle_beta                  89.725539
_cell_angle_gamma                 89.944424
_cell_volume                      1632.21994384

loop_
_atom_site_label
_atom_site_type_symbol
_atom_type_description
_atom_site_fract_x
_atom_site_fract_y
_atom_site_fract_z
_atom_type_partial_charge
C1    C     C_R   0.500868 0.257574 0.500267 0.956977
C2    C     C_3   0.083307 0.496252 0.499872 0.058719
C3    C     C_3   0.971806 0.602304 0.553877 0.333630
C4    C     C_3   0.916630 0.496222 0.498713 0.021418
C5    C     C_3   0.027717 0.592683 0.425890 0.357776
C6    C     C_3   0.972131 0.486763 0.367711 -0.245612
C7    C     C_1   0.174010 0.497607 0.500652 0.088239
C8    C     C_1   0.825957 0.497676 0.498829 0.074074
C9    C     C_3   0.585382 0.070138 0.567813 0.266102
C10   C     C_3   0.578873 0.926391 0.586021 0.193127
C11   C     C_3   0.419510 0.069606 0.571514 0.290363
C12   C     C_R   0.337925 0.499967 0.500247 0.889632
C13   C     C_3   0.501356 0.073593 0.348776 -0.656630
C14   C     C_3   0.501867 0.121106 0.500421 -0.109931
C15   C     C_3   0.502816 0.878037 0.498175 -0.042033
C16   C     C_3   0.418865 0.924800 0.564889 -0.673829
C17   C     C_3   0.506769 0.930357 0.347128 0.299233
C18   C     C_3   0.540976 0.385315 0.083120 0.396532
C19   C     C_3   0.546624 0.388004 0.920029 0.319372
C20   C     C_3   0.410367 0.498528 0.082704 -0.585137
C21   C     C_3   0.540411 0.613203 0.078670 0.417299
C22   C     C_3   0.410591 0.494257 0.919588 0.268946
C23   C     C_R   0.501150 0.742106 0.499274 0.919308
C24   C     C_3   0.539203 0.612230 0.916157 -0.404879
C25   C     C_R   0.662066 0.500012 0.499752 0.910554
C26   C     C_3   0.971058 0.397098 0.574417 -0.253436
C27   C     C_3   0.028522 0.388278 0.443736 -0.240391
C28   C     C_1   0.249178 0.498827 0.500770 -0.139105
C29   C     C_1   0.750794 0.498922 0.499156 -0.108661
C30   C     C_3   0.026688 0.505231 0.627523 0.365796
H1    H     H_    0.565791 0.903709 0.696488 0.097545
H2    H     H_    0.441952 0.103995 0.296210 0.183178
H3    H     H_    0.946184 0.317339 0.636472 0.185396
H4    H     H_    0.604512 0.622572 0.873490 0.244043
H5    H     H_    0.375547 0.583574 0.117496 0.186309
N1    N     N_3   0.498170 0.499750 0.138610 -0.085547
N2    N     N_3   0.498850 0.496730 0.861320 -0.101525
O1    O     O_R   0.499980 0.314910 0.616040 -0.524842
O2    O     O_R   0.500040 0.314680 0.383960 -0.651430
O3    O     O_R   0.376750 0.500100 0.616020 -0.559032
O4    O     O_R   0.376810 0.499870 0.383940 -0.645688
O5    O     O_R   0.499960 0.685320 0.616040 -0.675380
O6    O     O_R   0.500020 0.685090 0.383960 -0.588515
O7    O     O_R   0.623190 0.500130 0.616060 -0.579520
O8    O     O_R   0.623250 0.499900 0.383980 -0.505652
Zn1   Zn    Zn3+2 0.499960 0.500150 0.654960 1.014310
Zn2   Zn    Zn3+2 0.500040 0.499850 0.345040 1.005510
H6    H     H_    0.053817 0.300427 0.398572 0.185045
O9    O     O_3   0.408213 0.115229 0.706282 -0.730681
H7    H     H_    0.436151 0.057869 0.772581 0.319929
H8    H     H_    0.409653 0.882274 0.668742 0.210244
H9    H     H_    0.554983 0.114945 0.288692 0.212559
O10   O     O_3   0.579137 0.888268 0.274730 -0.748094
H10   H     H_    0.629568 0.934497 0.307745 0.377835
H11   H     H_    0.450268 0.895716 0.290214 0.140561
H12   H     H_    0.363987 0.104007 0.511454 0.148911
H13   H     H_    0.363740 0.893618 0.502386 0.180212
H14   H     H_    0.502197 0.301772 0.113482 -0.005368
O11   O     O_3   0.621781 0.371336 0.142219 -0.642162
H15   H     H_    0.637718 0.281589 0.133891 0.296809
O12   O     O_3   0.631752 0.392178 0.875195 -0.674963
H16   H     H_    0.654982 0.305922 0.883677 0.348863
H17   H     H_    0.518148 0.299829 0.880575 0.084192
H18   H     H_    0.374559 0.417917 0.127146 0.213896
O13   O     O_3   0.364607 0.390903 0.869703 -0.679357
H19   H     H_    0.379385 0.315637 0.924985 0.326552
H20   H     H_    0.505068 0.697931 0.113916 0.098836
O14   O     O_3   0.624203 0.622294 0.126550 -0.629257
H21   H     H_    0.644835 0.707329 0.101182 0.340087
H22   H     H_    0.504086 0.696387 0.879136 0.109168
H23   H     H_    0.948160 0.480333 0.260796 0.186048
H24   H     H_    0.376341 0.579223 0.882361 0.165509
O15   O     O_3   0.059522 0.694463 0.350445 -0.743071
H25   H     H_    0.008813 0.738743 0.314458 0.354035
O16   O     O_3   0.940308 0.713110 0.610838 -0.729631
H26   H     H_    0.991179 0.762211 0.636512 0.356934
O17   O     O_3   0.057424 0.516114 0.761553 -0.726698
H27   H     H_    0.006231 0.518893 0.821206 0.351262
O18   O     O_3   0.607683 0.130839 0.690748 -0.759572
H28   H     H_    0.570574 0.100492 0.766088 0.323393
H29   H     H_    0.638340 0.090510 0.494637 0.172809
O19   O     O_3   0.656158 0.870091 0.546765 -0.746084
H30   H     H_    0.661767 0.790859 0.600158 0.344637

loop_
_geom_bond_atom_site_label_1
_geom_bond_atom_site_label_2
_ccdc_geom_bond_type
C27   H6    S    
C12   O3    A    
C25   O8    A    
O15   H25   S    
C13   H2    S    
C2    C7    S    
C16   H8    S    
C4    C8    S    
C24   H22   S    
C21   N1    S    
O17   H27   S    
O3    Zn1   S    
C26   C27   S    
C23   O5    A    
C12   C28   S    
C8    C29   T    
C10   C15   S    
O5    Zn1   S    
C5    C6    S    
C11   C14   S    
C15   C16   S    
C23   O6    A    
N1    Zn2   S    
C18   C19   S    
C9    O18   S    
C19   N2    S    
C30   O17   S    
C10   H1    S    
C18   H14   S    
C19   H17   S    
O14   H21   S    
C2    C27   S    
C3    O16   S    
C9    C10   S    
C17   H11   S    
C15   C23   S    
O11   H15   S    
C13   C14   S    
C21   H20   S    
C20   H5    S    
C25   O7    A    
C22   H24   S    
O7    Zn1   S    
O8    Zn2   S    
C25   C29   S    
C6    H23   S    
C4    C6    S    
C9    C14   S    
O10   H10   S    
C22   N2    S    
C10   O19   S    
C24   H4    S    
C7    C28   T    
C20   H18   S    
C3    C30   S    
O16   H26   S    
C22   O13   S    
C12   O4    A    
C11   O9    S    
C13   H9    S    
C11   C16   S    
C26   H3    S    
C6    C27   S    
C24   N2    S    
O4    Zn2   S    
C1    O1    A    
C20   C22   S    
O19   H30   S    
C21   O14   S    
C2    C5    S    
C3    C4    S    
C17   O10   S    
O2    Zn2   S    
C15   C17   S    
C3    C5    S    
C4    C26   S    
C26   C30   S    
C13   C17   S    
C2    C30   S    
O6    Zn2   S    
C19   O12   S    
C16   H13   S    
O13   H19   S    
C5    O15   S    
O12   H16   S    
O1    Zn1   S    
C1    O2    A    
O18   H28   S    
C20   N1    S    
C18   O11   S    
O9    H7    S    
C21   C24   S    
C1    C14   S    
N2    Zn1   S    
C18   N1    S    
C11   H12   S    
C9    H29   S    
