data_mof_unit_39679.cif
_audit_creation_date              2012-12-10T17:14:42-0500
_audit_creation_method            fapswitch 2.2
_symmetry_space_group_name_H-M    P1
_symmetry_Int_Tables_number       1
_space_group_crystal_system       triclinic
_cell_length_a                    10.629646
_cell_length_b                    12.980642
_cell_length_c                    11.757902
_cell_angle_alpha                 99.163278
_cell_angle_beta                  93.648057
_cell_angle_gamma                 92.010433
_cell_volume                      1596.71795274

loop_
_atom_site_label
_atom_site_type_symbol
_atom_type_description
_atom_site_fract_x
_atom_site_fract_y
_atom_site_fract_z
_atom_type_partial_charge
C1    C     C_R   0.499394 0.299506 0.479077 0.837314
C2    C     C_R   0.500606 0.700494 0.520923 0.837311
C3    C     C_R   0.482907 0.138016 0.562672 -0.230640
C4    C     C_R   0.517088 0.861984 0.437327 -0.230685
C5    C     C_R   0.486743 0.029992 0.553405 -0.008512
C6    C     C_R   0.513261 0.970008 0.446597 -0.008551
C7    C     C_R   0.359321 0.422101 0.027698 -0.286365
C8    C     C_R   0.640679 0.577899 0.972302 -0.286359
C9    C     C_R   0.375774 0.426583 0.147874 0.017739
C10   C     C_R   0.624226 0.573417 0.852126 0.017740
C11   C     C_R   0.564944 0.531017 0.153077 0.544541
C12   C     C_R   0.435056 0.468983 0.846923 0.544541
C13   C     C_R   0.552308 0.526997 0.031617 -0.012492
C14   C     C_R   0.447692 0.473003 0.968383 -0.012490
C15   C     C_R   0.259744 0.499803 0.499969 0.943920
C16   C     C_R   0.740256 0.500198 0.500032 0.943920
C17   C     C_3   0.040812 0.417552 0.545861 0.301943
C18   C     C_3   0.959188 0.582451 0.454139 0.301949
C19   C     C_3   0.950461 0.410484 0.436911 0.297926
C20   C     C_3   0.049540 0.589519 0.563090 0.297931
C21   C     C_3   0.876612 0.500141 0.500845 -0.345011
C22   C     C_3   0.123388 0.499862 0.499155 -0.345009
C23   C     C_3   0.968888 0.507216 0.610065 0.319914
C24   C     C_3   0.031113 0.492787 0.389936 0.319914
C25   C     C_R   0.496875 0.813458 0.532688 -0.129318
C26   C     C_R   0.503126 0.186542 0.467312 -0.129354
C27   C     C_R   0.536408 0.019262 0.351177 0.502601
C28   C     C_R   0.463614 0.980740 0.648829 0.502597
C29   C     C_R   0.528488 0.127240 0.361611 -0.254442
C30   C     C_R   0.471532 0.872762 0.638394 -0.254462
Cu1   Cu    Cu3+1 0.509400 0.507730 0.615930 0.976838
Cu2   Cu    Cu3+1 0.490600 0.492270 0.384070 0.976837
H1    H     H_    0.537313 0.815384 0.356139 0.207769
H2    H     H_    0.462672 0.184616 0.643857 0.207773
H3    H     H_    0.456011 0.835508 0.712801 0.184178
H4    H     H_    0.544035 0.164494 0.287209 0.184202
H5    H     H_    0.693171 0.612819 0.808318 0.171823
H6    H     H_    0.306829 0.387181 0.191682 0.171821
H7    H     H_    0.277461 0.378790 0.981906 0.188938
H8    H     H_    0.722539 0.621210 0.018094 0.188939
N1    N     N_R   0.523540 0.519360 0.790140 -0.228197
N2    N     N_R   0.476460 0.480640 0.209860 -0.228196
O1    O     O_R   0.506670 0.354460 0.582000 -0.621295
O2    O     O_R   0.493330 0.645540 0.418000 -0.621299
O3    O     O_R   0.490800 0.341410 0.386200 -0.589400
O4    O     O_R   0.509200 0.658590 0.613800 -0.589402
O5    O     O_R   0.324790 0.506500 0.597880 -0.554405
O6    O     O_R   0.675210 0.493500 0.402120 -0.554404
O7    O     O_R   0.308910 0.493440 0.402080 -0.570723
O8    O     O_R   0.691090 0.506560 0.597920 -0.570722
O9    O     O_3   0.887772 0.319084 0.374628 -0.576034
C31   C     C_3   0.975152 0.255882 0.314307 -0.289556
H9    H     H_    0.065206 0.250816 0.366456 0.179694
H10   H     H_    0.995008 0.284109 0.232828 0.188846
H11   H     H_    0.932532 0.175472 0.290817 0.158523
O10   O     O_3   0.112231 0.680919 0.625372 -0.576035
C32   C     C_3   0.024853 0.744122 0.685694 -0.289575
H12   H     H_    0.004994 0.715894 0.767171 0.188845
H13   H     H_    0.934801 0.749192 0.633544 0.179699
H14   H     H_    0.067478 0.824530 0.709186 0.158535
O11   O     O_3   0.095038 0.334759 0.593413 -0.572721
C33   C     C_3   0.999175 0.265203 0.617757 -0.273065
H15   H     H_    0.963916 0.211403 0.538386 0.186313
H16   H     H_    0.918877 0.305709 0.658612 0.187591
H17   H     H_    0.040113 0.216797 0.679231 0.163715
O12   O     O_3   0.904962 0.665244 0.406588 -0.572722
C34   C     C_3   0.000824 0.734800 0.382243 -0.273089
H18   H     H_    0.081122 0.694293 0.341386 0.187594
H19   H     H_    0.036084 0.788600 0.461614 0.186317
H20   H     H_    0.959886 0.783206 0.320769 0.163704
O13   O     O_3   0.926293 0.516055 0.722452 -0.584629
C35   C     C_3   0.028541 0.509381 0.803200 -0.237739
H21   H     H_    0.114738 0.554826 0.787655 0.212825
H22   H     H_    0.050956 0.426783 0.804296 0.209027
H23   H     H_    0.000470 0.541823 0.890519 0.146170
O14   O     O_3   0.073707 0.483948 0.277548 -0.584630
C36   C     C_3   0.971459 0.490622 0.196800 -0.237738
H24   H     H_    0.949044 0.573220 0.195705 0.209026
H25   H     H_    0.885263 0.445176 0.212345 0.212828
H26   H     H_    0.999530 0.458180 0.109481 0.146172
O15   O     O_3   0.559585 0.961567 0.245796 -0.577868
C37   C     C_3   0.690770 0.965805 0.233997 -0.330394
H27   H     H_    0.743348 0.934736 0.305271 0.157617
H28   H     H_    0.726256 0.046690 0.229757 0.165738
H29   H     H_    0.710066 0.915929 0.151798 0.198286
O16   O     O_3   0.440499 0.038445 0.754222 -0.577874
C38   C     C_3   0.309337 0.034143 0.766139 -0.330366
H30   H     H_    0.273938 0.953250 0.770455 0.165748
H31   H     H_    0.256644 0.065152 0.694884 0.157586
H32   H     H_    0.290091 0.084037 0.848341 0.198291
O17   O     O_3   0.331455 0.413788 0.788428 -0.749374
H33   H     H_    0.358045 0.377134 0.714952 0.372455
O18   O     O_3   0.668545 0.586212 0.211572 -0.749376
H34   H     H_    0.641955 0.622866 0.285048 0.372454

loop_
_geom_bond_atom_site_label_1
_geom_bond_atom_site_label_2
_ccdc_geom_bond_type
C38   H30   S    
C16   C21   S    
C27   C29   A    
C18   C21   S    
Cu2   O3    S    
C12   O17   S    
C15   O5    A    
C20   O10   S    
C16   O6    A    
C4    C25   A    
C15   C22   S    
C36   H24   S    
C2    O4    A    
C29   H4    S    
C9    N2    A    
C17   C23   S    
Cu1   O1    S    
C30   H3    S    
C10   H5    S    
C18   C24   S    
C19   C21   S    
C16   O8    A    
C5    C6    A    
C32   H13   S    
O10   C32   S    
C11   N2    A    
C33   H16   S    
C17   O11   S    
C1    O1    A    
C7    C14   A    
Cu1   Cu2   S    
C2    O2    A    
Cu1   O4    S    
C31   H11   S    
C11   O18   S    
O12   C34   S    
Cu1   O5    S    
C13   C14   A    
C10   N1    A    
Cu2   O6    S    
C35   H23   S    
C31   H10   S    
O15   C37   S    
C36   H25   S    
O9    C31   S    
C23   O13   S    
C27   O15   S    
O14   C36   S    
C35   H22   S    
O17   H33   S    
O16   C38   S    
C24   O14   S    
C32   H14   S    
C3    H2    S    
C34   H18   S    
C34   H19   S    
C12   N1    A    
C5    C28   A    
C6    C27   A    
C20   C23   S    
C33   H15   S    
Cu2   O2    S    
O18   H34   S    
C4    C6    A    
C20   C22   S    
C37   H28   S    
C21   C23   S    
C28   O16   S    
C1    C26   S    
C22   C24   S    
Cu1   O8    S    
C31   H9    S    
C36   H26   S    
C25   C30   A    
C7    C9    A    
C4    H1    S    
C7    H7    S    
Cu1   N1    S    
C33   H17   S    
C3    C26   A    
C12   C14   A    
C35   H21   S    
C3    C5    A    
C18   O12   S    
C37   H29   S    
C17   C22   S    
C34   H20   S    
C28   C30   A    
C19   C24   S    
O13   C35   S    
C11   C13   A    
C1    O3    A    
C32   H12   S    
C9    H6    S    
C17   C19   S    
C2    C25   S    
C18   C20   S    
C15   O7    A    
O11   C33   S    
Cu2   O7    S    
C8    C13   A    
C19   O9    S    
C26   C29   A    
C8    C10   A    
C37   H27   S    
C38   H32   S    
C38   H31   S    
Cu2   N2    S    
C8    H8    S    
