data_mof_unit_23321.cif
_audit_creation_date              2012-12-10T17:03:56-0500
_audit_creation_method            fapswitch 2.2
_symmetry_space_group_name_H-M    P1
_symmetry_Int_Tables_number       1
_space_group_crystal_system       triclinic
_cell_length_a                    9.833785
_cell_length_b                    11.058207
_cell_length_c                    15.837366
_cell_angle_alpha                 95.327753
_cell_angle_beta                  79.578393
_cell_angle_gamma                 111.567716
_cell_volume                      1574.55984861

loop_
_atom_site_label
_atom_site_type_symbol
_atom_type_description
_atom_site_fract_x
_atom_site_fract_y
_atom_site_fract_z
_atom_type_partial_charge
C1    C     C_R   0.557803 0.745411 0.504037 0.837790
C2    C     C_R   0.442185 0.254591 0.495945 0.845435
C3    C     C_R   0.320412 0.387042 0.069141 -0.230488
C4    C     C_R   0.672294 0.483886 0.920129 -0.211484
C5    C     C_R   0.218734 0.354501 0.012567 -0.209941
C6    C     C_R   0.771660 0.495523 0.975513 -0.163234
C7    C     C_2   0.586271 0.883881 0.513237 -0.386469
C8    C     C_2   0.413641 0.116120 0.486652 -0.386742
C9    C     C_2   0.506067 0.938262 0.480172 0.188997
C10   C     C_2   0.493563 0.061577 0.519803 0.184343
C11   C     C_2   0.922663 0.489896 0.492050 0.207806
C12   C     C_2   0.077111 0.509615 0.508285 0.203134
C13   C     C_R   0.412616 0.488197 0.662905 0.817082
C14   C     C_R   0.587924 0.514117 0.336999 0.819433
C15   C     C_R   0.360068 0.467604 0.755418 -0.169159
C16   C     C_R   0.637345 0.515062 0.243053 -0.155881
C17   C     C_R   0.161726 0.360329 0.869608 0.465469
C18   C     C_R   0.830398 0.515268 0.120903 0.471056
C19   C     C_R   0.210315 0.398062 0.784403 -0.317213
C20   C     C_R   0.779316 0.514086 0.210292 -0.355519
C21   C     C_R   0.462107 0.506039 0.814111 0.099978
C22   C     C_R   0.541197 0.511198 0.185448 0.094695
C23   C     C_R   0.418611 0.453368 0.896690 0.023935
C24   C     C_R   0.578898 0.484280 0.097636 0.018864
C25   C     C_R   0.265404 0.389037 0.926489 0.007157
C26   C     C_R   0.727761 0.498189 0.064761 0.018981
C27   C     C_R   0.522900 0.466562 0.951803 0.102488
C28   C     C_R   0.473299 0.449537 0.040697 0.112218
Cu1   Cu    Cu3+1 0.362980 0.479380 0.485080 0.949917
Cu2   Cu    Cu3+1 0.637020 0.520620 0.514920 0.953156
H1    H     H_    0.102835 0.304482 0.037214 0.190910
H2    H     H_    0.883934 0.504672 0.947718 0.216067
H3    H     H_    0.849733 0.515268 0.255366 0.171010
H4    H     H_    0.130413 0.372198 0.740710 0.176439
H5    H     H_    0.278447 0.354689 0.134156 0.156864
H6    H     H_    0.711675 0.478527 0.852248 0.162454
H7    H     H_    0.339311 0.062644 0.441901 0.152507
H8    H     H_    0.660736 0.937493 0.557895 0.150372
H9    H     H_    0.114693 0.384971 0.414122 0.156841
H10   H     H_    0.885590 0.615447 0.585639 0.157990
N1    N     N_2   0.842890 0.551600 0.537350 -0.279434
N2    N     N_2   0.157110 0.448400 0.462650 -0.281239
O1    O     O_R   0.426810 0.668300 0.492040 -0.527543
O2    O     O_R   0.573190 0.331700 0.507960 -0.525548
O3    O     O_R   0.658240 0.703130 0.517240 -0.581580
O4    O     O_R   0.341760 0.296870 0.482760 -0.579912
O5    O     O_R   0.319390 0.472820 0.610170 -0.548794
O6    O     O_R   0.680610 0.527180 0.389830 -0.547820
O7    O     O_R   0.550820 0.507640 0.635370 -0.593485
O8    O     O_R   0.449180 0.492360 0.364630 -0.594580
N3    N     N_3   0.418216 0.554668 0.211832 -0.608962
H11   H     H_    0.453129 0.643223 0.246119 0.223869
H12   H     H_    0.331542 0.485649 0.249629 0.233873
N4    N     N_3   0.599494 0.614408 0.796414 -0.594893
H13   H     H_    0.579235 0.690268 0.772653 0.221767
H14   H     H_    0.675463 0.587644 0.751208 0.235446
O9    O     O_3   0.011585 0.299034 0.897301 -0.612211
C29   C     C_3   0.973805 0.162248 0.891332 0.039905
H15   H     H_    0.888462 0.120589 0.947699 0.170832
H16   H     H_    0.067915 0.129924 0.894431 0.121379
C30   C     C_3   0.907591 0.106932 0.809389 -0.350251
H17   H     H_    0.815806 0.141440 0.806221 0.231807
H18   H     H_    0.993804 0.141590 0.752244 0.209109
C31   C     C_3   0.848170 0.958437 0.806864 -0.905268
H19   H     H_    0.938453 0.921657 0.809053 0.256588
H20   H     H_    0.802368 0.921685 0.746425 0.251647
H21   H     H_    0.758563 0.920585 0.862069 0.264279
O10   O     O_3   0.973911 0.522604 0.084510 -0.621390
C32   C     C_3   0.085226 0.588117 0.135751 0.072695
H22   H     H_    0.190724 0.583674 0.099030 0.202179
H23   H     H_    0.068658 0.536717 0.195828 0.122463
C33   C     C_3   0.107432 0.732979 0.151662 -0.381732
H24   H     H_    0.130190 0.780021 0.089003 0.225939
H25   H     H_    0.006370 0.744837 0.189617 0.216550
C34   C     C_3   0.236754 0.801904 0.200544 -0.900904
H26   H     H_    0.215609 0.756888 0.263770 0.264636
H27   H     H_    0.250186 0.906025 0.211612 0.253728
H28   H     H_    0.341135 0.795854 0.162976 0.261929
N5    N     N_3   0.564908 0.119379 0.593846 -0.576521
H29   H     H_    0.527813 0.048300 0.640357 0.195029
H30   H     H_    0.526148 0.191064 0.624274 0.222846
N6    N     N_3   0.434270 0.880214 0.406310 -0.579549
H31   H     H_    0.471068 0.951085 0.359676 0.198411
H32   H     H_    0.472940 0.808507 0.375881 0.215421
N7    N     N_3   0.137916 0.597736 0.575621 -0.499246
H33   H     H_    0.141878 0.690329 0.563330 0.201128
H34   H     H_    0.068238 0.566720 0.633766 0.181064
N8    N     N_3   0.861543 0.400948 0.425159 -0.500117
H35   H     H_    0.857039 0.308502 0.438249 0.202564
H36   H     H_    0.931725 0.430755 0.367024 0.166640

loop_
_geom_bond_atom_site_label_1
_geom_bond_atom_site_label_2
_ccdc_geom_bond_type
C6    H2    S    
C4    H6    S    
Cu1   N2    S    
C32   C33   S    
Cu2   O3    S    
C18   C26   A    
C14   O8    A    
N7    H33   S    
C2    O4    A    
C15   C19   A    
C12   N7    S    
Cu1   O5    S    
C22   C24   A    
Cu2   O6    S    
C3    C28   A    
C24   C26   A    
C21   N4    S    
C29   H16   S    
C32   H23   S    
C30   H18   S    
C12   N2    D    
C1    O1    A    
C2    O2    A    
O10   C32   S    
Cu2   N1    S    
C23   C27   A    
C9    C10   S    
C9    N6    S    
C29   C30   S    
Cu1   O1    S    
Cu2   O2    S    
C30   H17   S    
C33   C34   S    
H9    N2    S    
Cu1   O8    S    
N7    H34   S    
N4    H14   S    
N3    H11   S    
C31   H21   S    
C33   H25   S    
N5    H30   S    
C14   O6    A    
C29   H15   S    
N3    H12   S    
C31   H20   S    
C30   C31   S    
C34   H26   S    
Cu1   Cu2   S    
C3    H5    S    
C11   N8    S    
C16   C20   A    
C34   H27   S    
C13   O7    A    
C5    C25   A    
C20   H3    S    
C4    C6    A    
H10   N1    S    
Cu2   O7    S    
N8    H36   S    
N6    H32   S    
C13   C15   S    
C14   C16   S    
C8    H7    S    
C4    C27   A    
C13   O5    A    
C7    C9    D    
N4    H13   S    
C16   C22   A    
C1    C7    S    
C2    C8    S    
C24   C28   A    
C33   H24   S    
C3    C5    A    
C19   H4    S    
C10   N5    S    
Cu1   O4    S    
C17   C25   A    
C31   H19   S    
C21   C23   A    
C1    O3    A    
O9    C29   S    
C6    C26   A    
C17   C19   A    
C7    H8    S    
C11   N1    D    
C18   C20   A    
C23   C25   A    
C32   H22   S    
C34   H28   S    
N5    H29   S    
C15   C21   A    
N8    H35   S    
C8    C10   D    
N6    H31   S    
C27   C28   A    
C18   O10   S    
C11   C12   S    
C17   O9    S    
C22   N3    S    
C5    H1    S    
