data_mof_unit_27520.cif
_audit_creation_date              2012-12-11T17:29:52-0500
_audit_creation_method            fapswitch 2.2
_symmetry_space_group_name_H-M    P1
_symmetry_Int_Tables_number       1
_space_group_crystal_system       triclinic
_cell_length_a                    18.8289
_cell_length_b                    18.945
_cell_length_c                    20.403503
_cell_angle_alpha                 107.270024
_cell_angle_beta                  106.330672
_cell_angle_gamma                 111.214421
_cell_volume                      5829.14581984

loop_
_atom_site_label
_atom_site_type_symbol
_atom_type_description
_atom_site_fract_x
_atom_site_fract_y
_atom_site_fract_z
_atom_type_partial_charge
C1    C     C_R   0.085245 0.088681 0.354083 -0.120997
C2    C     C_R   0.246252 0.071074 0.543056 -0.132004
C3    C     C_R   0.152777 0.222900 0.709921 -0.128622
C4    C     C_R   0.761929 0.925678 0.506150 -0.138685
C5    C     C_R   0.023035 0.777428 0.452839 -0.136016
C6    C     C_R   0.228995 0.273574 0.712011 0.038877
C7    C     C_R   0.996122 0.739334 0.495748 0.079458
C8    C     C_R   0.255843 0.999616 0.530692 0.074787
C9    C     C_R   0.013712 0.979987 0.727477 0.033830
C10   C     C_R   0.013525 0.670959 0.581731 -0.259113
C11   C     C_R   0.028250 0.688908 0.523261 0.119545
C12   C     C_R   0.758544 0.993988 0.551580 0.065470
C13   C     C_R   0.081237 0.665813 0.496291 -0.265101
C14   C     C_R   0.113655 0.619320 0.522392 0.144455
C15   C     C_R   0.093087 0.595526 0.576526 0.028404
C16   C     C_R   0.838809 0.817448 0.281130 -0.126744
C17   C     C_R   0.045445 0.623942 0.608418 0.140390
C18   C     C_R   0.161664 0.591557 0.491374 -0.210196
C19   C     C_R   0.180478 0.532153 0.507008 -0.205483
C20   C     C_R   0.151464 0.500769 0.553836 0.134363
C21   C     C_R   0.113002 0.536687 0.592984 0.034178
C22   C     C_R   0.085408 0.506284 0.641381 0.115456
C23   C     C_R   0.756668 0.794576 0.273746 0.038786
C24   C     C_R   0.047026 0.542322 0.679959 -0.201682
C25   C     C_R   0.026581 0.600695 0.663121 -0.200805
C26   C     C_R   0.148360 0.426208 0.552809 -0.247835
C27   C     C_R   0.104111 0.386233 0.587702 0.139384
C28   C     C_R   0.004006 0.238040 0.569766 0.505879
C29   C     C_R   0.085995 0.433073 0.641756 -0.263428
C30   C     C_R   0.331635 0.918364 0.550059 -0.254355
C31   C     C_R   0.332872 0.996561 0.568310 0.115808
C32   C     C_R   0.409642 0.071819 0.617023 -0.257831
C33   C     C_R   0.485799 0.070080 0.635594 0.141932
C34   C     C_R   0.063784 0.293371 0.555831 -0.073630
C35   C     C_R   0.484438 0.991883 0.606409 0.026479
C36   C     C_R   0.407158 0.915496 0.566985 0.139737
C37   C     C_R   0.562987 0.145711 0.675437 -0.206277
C38   C     C_R   0.637382 0.144428 0.678739 -0.205886
C39   C     C_R   0.634692 0.067547 0.641807 0.142167
C40   C     C_R   0.760863 0.811486 0.346304 -0.130846
C41   C     C_R   0.559038 0.990631 0.609075 0.026676
C42   C     C_R   0.555815 0.913142 0.571350 0.141795
C43   C     C_R   0.480408 0.836887 0.539612 -0.208075
C44   C     C_R   0.406267 0.838042 0.537776 -0.201364
C45   C     C_R   0.230118 0.228705 0.645453 -0.140137
C46   C     C_R   0.703588 0.067050 0.629763 -0.258738
C47   C     C_R   0.696460 0.991215 0.582634 0.117520
C48   C     C_R   0.625115 0.913906 0.558894 -0.260537
C49   C     C_R   0.288303 0.363678 0.764756 0.148138
C50   C     C_R   0.266166 0.411342 0.814150 -0.185626
C51   C     C_R   0.325703 0.493943 0.868798 -0.164267
C52   C     C_R   0.084173 0.243658 0.508263 -0.224866
C53   C     C_R   0.408593 0.530157 0.874765 0.226200
C54   C     C_R   0.427919 0.485323 0.821097 -0.182163
C55   C     C_R   0.368759 0.402541 0.766961 -0.182094
C56   C     C_R   0.947445 0.771643 0.519320 -0.139039
C57   C     C_R   0.615641 0.726108 0.068930 -0.164849
C58   C     C_R   0.687805 0.764921 0.137406 -0.188970
C59   C     C_R   0.534691 0.684263 0.065548 0.224439
C60   C     C_R   0.680556 0.762791 0.203533 0.146346
C61   C     C_R   0.599597 0.727836 0.201281 -0.177917
C62   C     C_R   0.527463 0.689502 0.132871 -0.183990
C63   C     C_R   0.106220 0.030067 0.236328 0.146532
C64   C     C_R   0.831553 0.065415 0.570811 -0.145094
C65   C     C_R   0.111934 0.961427 0.192254 -0.189382
C66   C     C_R   0.142944 0.966272 0.138510 -0.167022
C67   C     C_R   0.178385 0.930802 0.475406 -0.125319
C68   C     C_R   0.168360 0.040054 0.127816 0.224476
C69   C     C_R   0.170819 0.111117 0.177121 -0.182018
C70   C     C_R   0.139296 0.106161 0.230613 -0.185585
C71   C     C_R   0.163463 0.042290 0.926955 -0.165368
C72   C     C_R   0.128483 0.045221 0.858716 -0.185968
C73   C     C_R   0.125043 0.968052 0.934681 0.224612
C74   C     C_R   0.055005 0.974291 0.797141 0.149978
C75   C     C_R   0.022108 0.898032 0.802708 -0.179589
C76   C     C_R   0.017801 0.948428 0.289923 -0.141417
C77   C     C_R   0.057519 0.895032 0.870925 -0.181124
C78   C     C_R   0.030212 0.053584 0.719064 -0.122313
C79   C     C_R   0.065714 0.022562 0.287770 0.039519
C80   C     C_3   0.901929 0.267788 0.583535 0.210384
C81   C     C_3   0.872442 0.303661 0.641114 -0.915632
C82   C     C_R   0.958434 0.912733 0.655605 -0.120909
H1    H     H_    0.132515 0.154083 0.377067 0.087845
H2    H     H_    0.095857 0.681342 0.453186 0.113609
H3    H     H_    0.179596 0.611322 0.451145 0.123914
H4    H     H_    0.722518 0.859882 0.490405 0.087419
H5    H     H_    0.211599 0.506007 0.477817 0.127223
H6    H     H_    0.169555 0.394503 0.515681 0.117869
H7    H     H_    0.062338 0.408196 0.676888 0.184356
H8    H     H_    0.026849 0.520567 0.718351 0.127245
H9    H     H_    0.991805 0.623773 0.689459 0.127242
H10   H     H_    0.272616 0.859463 0.516865 0.118407
H11   H     H_    0.411403 0.132425 0.635015 0.117532
H12   H     H_    0.906835 0.747144 0.544204 0.084993
H13   H     H_    0.564982 0.206077 0.699318 0.129435
H14   H     H_    0.695636 0.203862 0.705152 0.132128
H15   H     H_    0.759319 0.126967 0.651504 0.115518
H16   H     H_    0.859503 0.813611 0.236580 0.094935
H17   H     H_    0.619806 0.854574 0.525038 0.116565
H18   H     H_    0.477510 0.776827 0.511760 0.128180
H19   H     H_    0.347344 0.778828 0.508521 0.128184
H20   H     H_    0.748999 0.793960 0.137525 0.116537
H21   H     H_    0.623496 0.724909 0.018103 0.124903
H22   H     H_    0.491345 0.512311 0.825049 0.118823
H23   H     H_    0.165126 0.866668 0.448474 0.087006
H24   H     H_    0.387871 0.367934 0.729541 0.110960
H25   H     H_    0.591275 0.725844 0.251125 0.111687
H26   H     H_    0.308135 0.527649 0.908590 0.124064
H27   H     H_    0.465717 0.657804 0.131193 0.119293
H28   H     H_    0.203896 0.384572 0.812400 0.119992
H29   H     H_    0.157892 0.103917 0.855328 0.117113
H30   H     H_    0.217201 0.099388 0.974832 0.124617
H31   H     H_    0.190209 0.168218 0.169506 0.119504
H32   H     H_    0.136731 0.160495 0.264454 0.114209
H33   H     H_    0.966513 0.841695 0.756041 0.108618
H34   H     H_    0.070487 0.117873 0.763031 0.094753
H35   H     H_    0.142161 0.910760 0.102333 0.123459
H36   H     H_    0.027516 0.837494 0.876054 0.117951
H37   H     H_    0.090398 0.903000 0.197388 0.112993
H38   H     H_    0.709851 0.803832 0.362677 0.095313
H39   H     H_    0.135937 0.265138 0.493213 0.122933
H40   H     H_    0.857390 0.127514 0.615846 0.145447
H41   H     H_    0.001845 0.885181 0.253200 0.087936
H42   H     H_    0.272160 0.254316 0.621861 0.088362
H43   H     H_    0.848754 0.204794 0.538385 0.104228
H44   H     H_    0.917548 0.311046 0.556617 0.105125
H45   H     H_    0.930875 0.847005 0.642537 0.085596
H46   H     H_    0.922799 0.368520 0.684481 0.247978
H47   H     H_    0.814835 0.306305 0.611517 0.218258
H48   H     H_    0.857504 0.263373 0.670417 0.248090
H49   H     H_    0.293390 0.135821 0.581997 0.094868
H50   H     H_    0.124811 0.242371 0.746453 0.102752
H51   H     H_    0.051106 0.759236 0.416231 0.082690
H52   H     H_    0.976108 0.691891 0.605622 0.117378
N1    N     N_R   0.052570 0.055840 0.395080 -0.036664
N2    N     N_2   0.461645 0.624644 0.995886 -0.105914
N3    N     N_2   0.174779 0.040387 0.060428 -0.105652
N4    N     N_R   0.834730 0.954500 0.499860 -0.042929
N5    N     N_2   0.139786 0.968280 0.006722 -0.105501
N6    N     N_R   0.890190 0.849120 0.355200 -0.040686
N7    N     N_R   0.997110 0.161210 0.539740 -0.087278
N8    N     N_R   0.841940 0.845190 0.395070 -0.041051
N9    N     N_R   0.045360 0.165140 0.499870 -0.064538
N10   N     N_R   0.877490 0.041590 0.539730 -0.042834
N11   N     N_R   0.009810 0.968740 0.355210 -0.039085
N12   N     N_R   0.954640 0.834860 0.500130 -0.038554
N13   N     N_R   0.158060 0.154810 0.604930 -0.037532
N14   N     N_R   0.122510 0.958410 0.460270 -0.040619
N15   N     N_R   0.990190 0.031260 0.644790 -0.038114
N16   N     N_R   0.947430 0.944160 0.604920 -0.040143
N17   N     N_R   0.165270 0.045500 0.500140 -0.040651
N18   N     N_R   0.109810 0.150880 0.644800 -0.039780
N19   N     N_R   0.002890 0.838790 0.460260 -0.038172
N20   N     N_2   0.477437 0.603360 0.940032 -0.105908
Ni1   Ni    Ni4+2 0.104370 0.104380 0.500010 0.203119
Ni2   Ni    Ni4+2 0.895630 0.895620 0.499990 0.210055
Ni3   Ni    Ni4+2 0.006290 0.904630 0.408560 0.210449
Ni4   Ni    Ni4+2 0.993710 0.095370 0.591440 0.241146
O1    O     O_3   0.972462 0.260273 0.621080 -0.660292

loop_
_geom_bond_atom_site_label_1
_geom_bond_atom_site_label_2
_ccdc_geom_bond_type
C66   C68   A    
C63   C65   A    
C6    C45   A    
C40   N8    A    
C27   C29   A    
C41   C42   A    
C14   C18   A    
C35   C36   A    
N14   N17   A    
C3    C6    A    
C1    N1    A    
C29   H7    S    
C57   C58   A    
C39   C41   A    
C63   C79   S    
C53   C54   A    
C70   H32   S    
C5    H51   S    
N3    N5    D    
C13   H2    S    
C69   H31   S    
C3    N18   A    
C20   C26   A    
C54   H22   S    
C22   C29   A    
N6    N8    A    
C19   H5    S    
N7    N9    A    
C30   C31   A    
C12   C64   A    
C5    N19   A    
C57   C59   A    
C4    H4    S    
C80   H43   S    
C10   C17   A    
C58   C60   A    
C23   C40   A    
C59   N2    S    
C50   H28   S    
N1    Ni1   S    
C37   H13   S    
C18   C19   A    
C46   C47   A    
C81   H47   S    
C47   C48   A    
C68   C69   A    
N1    N11   A    
C66   H35   S    
C76   C79   A    
C58   H20   S    
N17   Ni1   S    
C4    C12   A    
N13   Ni1   S    
N15   Ni4   S    
C61   C62   A    
C62   H27   S    
C9    C82   A    
C9    C78   A    
C32   H11   S    
C72   H29   S    
C28   C34   A    
C53   N20   S    
C45   H42   S    
N16   Ni2   S    
C13   C14   A    
N19   Ni3   S    
C76   H41   S    
C68   N3    S    
C16   N6    A    
C7    C56   A    
C12   C47   S    
C35   C41   A    
C7    C11   S    
C78   H34   S    
C27   C34   S    
C23   C60   S    
C57   H21   S    
N18   Ni4   S    
C25   H9    S    
C52   N9    A    
C2    H49   S    
C74   C75   A    
C55   H24   S    
C3    H50   S    
C18   H3    S    
C43   H18   S    
C30   H10   S    
C77   H36   S    
C5    C7    A    
C67   H23   S    
C80   O1    S    
C64   N10   A    
C49   C55   A    
C28   O1    S    
C33   C37   A    
C60   C61   A    
C51   C53   A    
C56   H12   S    
C43   C44   A    
C37   C38   A    
N6    Ni3   S    
N2    N20   D    
C52   H39   S    
N9    Ni1   S    
C31   C32   A    
C63   C70   A    
C71   H30   S    
C50   C51   A    
C65   H37   S    
C42   C48   A    
C24   C25   A    
C75   C77   A    
C82   N16   A    
C39   C46   A    
C72   C74   A    
C40   H38   S    
C46   H15   S    
C76   N11   A    
C51   H26   S    
C16   C23   A    
C81   H46   S    
C26   C27   A    
C1    C79   A    
C22   C24   A    
C36   C44   A    
C75   H33   S    
C42   C43   A    
N10   Ni4   S    
C71   C73   A    
N4    Ni2   S    
C2    N17   A    
C15   C17   A    
C48   H17   S    
C54   C55   A    
C59   C62   A    
C45   N13   A    
C8    C31   S    
C2    C8    A    
C10   H52   S    
C80   C81   S    
C24   H8    S    
C44   H19   S    
C1    H1    S    
C73   N5    S    
N11   Ni3   S    
C34   C52   A    
C30   C36   A    
C17   C25   A    
C32   C33   A    
C19   C20   A    
N13   N18   A    
C71   C72   A    
N4    N10   A    
N15   N16   A    
C11   C13   A    
C16   H16   S    
C81   H48   S    
C38   C39   A    
N12   N19   A    
C80   H44   S    
C64   H40   S    
C33   C35   A    
N14   Ni3   S    
C65   C66   A    
C6    C49   S    
C56   N12   A    
C69   C70   A    
C61   H25   S    
C82   H45   S    
C10   C11   A    
C4    N4    A    
N7    Ni4   S    
C15   C21   A    
N12   Ni2   S    
C20   C21   A    
C8    C67   A    
C26   H6    S    
C49   C50   A    
C9    C74   S    
C38   H14   S    
C67   N14   A    
C73   C77   A    
C14   C15   A    
C28   N7    A    
N8    Ni2   S    
C21   C22   A    
C78   N15   A    
