data_mof_unit_64164.cif
_audit_creation_date              2012-12-10T19:27:18-0500
_audit_creation_method            fapswitch 2.2
_symmetry_space_group_name_H-M    P1
_symmetry_Int_Tables_number       1
_space_group_crystal_system       triclinic
_cell_length_a                    13.901721
_cell_length_b                    16.492392
_cell_length_c                    17.725646
_cell_angle_alpha                 90.424907
_cell_angle_beta                  90.902979
_cell_angle_gamma                 85.363108
_cell_volume                      4050.1242036

loop_
_atom_site_label
_atom_site_type_symbol
_atom_type_description
_atom_site_fract_x
_atom_site_fract_y
_atom_site_fract_z
_atom_type_partial_charge
C1    C     C_R   0.500185 0.500195 0.644743 0.809066
C2    C     C_R   0.499815 0.499805 0.355257 0.809066
C3    C     C_R   0.497588 0.573203 0.154117 -0.135650
C4    C     C_R   0.502412 0.426797 0.845882 -0.135650
C5    C     C_R   0.499611 0.499621 0.114408 0.132962
C6    C     C_R   0.500389 0.500379 0.885592 0.132962
C7    C     C_1   0.499876 0.499828 0.033824 -0.039218
C8    C     C_1   0.500124 0.500172 0.966176 -0.039218
C9    C     C_R   0.440477 0.173273 0.453138 -0.329863
C10   C     C_R   0.559523 0.826727 0.546862 -0.329863
C11   C     C_R   0.439949 0.258708 0.452760 0.554409
C12   C     C_R   0.560051 0.741292 0.547240 0.554409
C13   C     C_R   0.561030 0.254128 0.548099 -0.048541
C14   C     C_R   0.438970 0.745872 0.451901 -0.048541
C15   C     C_R   0.563454 0.168111 0.550051 0.312149
C16   C     C_R   0.436546 0.831889 0.449949 0.312149
C17   C     C_R   0.502218 0.126526 0.501770 -0.024586
C18   C     C_R   0.497782 0.873474 0.498230 -0.024586
C19   C     C_1   0.501016 0.037107 0.500809 0.115367
C20   C     C_1   0.498984 0.962893 0.499191 0.115366
C21   C     C_R   0.683222 0.487233 0.500109 0.840379
C22   C     C_R   0.316778 0.512767 0.499890 0.840378
C23   C     C_1   0.213888 0.520206 0.499726 -0.125832
C24   C     C_1   0.786112 0.479794 0.500274 -0.125832
C25   C     C_2   0.023849 0.533444 0.499444 -0.142411
C26   C     C_2   0.976151 0.466556 0.500556 -0.142411
C27   C     C_1   0.872754 0.473347 0.500416 0.034865
C28   C     C_1   0.127246 0.526653 0.499584 0.034865
C29   C     C_R   0.501512 0.425963 0.153124 -0.142888
C30   C     C_R   0.498488 0.574037 0.846876 -0.142888
C31   C     C_R   0.501508 0.425826 0.231801 -0.144178
C32   C     C_R   0.498492 0.574174 0.768199 -0.144178
C33   C     C_R   0.499603 0.499541 0.272290 -0.047927
C34   C     C_R   0.500397 0.500459 0.727710 -0.047927
C35   C     C_R   0.497572 0.573268 0.232730 -0.178081
C36   C     C_R   0.502428 0.426731 0.767270 -0.178081
Cu1   Cu    Cu3+1 0.500000 0.419580 0.500020 1.006142
Cu2   Cu    Cu3+1 0.500000 0.580420 0.499980 1.006143
H1    H     H_    0.014438 0.406446 0.501565 0.175402
H2    H     H_    0.985562 0.593553 0.498435 0.175402
H3    H     H_    0.503087 0.368755 0.122528 0.147320
H4    H     H_    0.496912 0.631245 0.877471 0.147320
H5    H     H_    0.503166 0.368159 0.260804 0.187435
H6    H     H_    0.496834 0.631841 0.739196 0.187435
H7    H     H_    0.495971 0.630982 0.262426 0.167089
H8    H     H_    0.504029 0.369018 0.737574 0.167089
H9    H     H_    0.496077 0.630448 0.124331 0.146990
H10   H     H_    0.503923 0.369552 0.875668 0.146990
H11   H     H_    0.392353 0.143454 0.415239 0.213137
H12   H     H_    0.607647 0.856546 0.584761 0.213137
H13   H     H_    0.608343 0.285293 0.585426 0.175436
H14   H     H_    0.391657 0.714707 0.414574 0.175436
N1    N     N_R   0.500030 0.298780 0.500030 -0.226415
N2    N     N_R   0.499970 0.701220 0.499970 -0.226415
O1    O     O_R   0.500010 0.432070 0.608760 -0.598127
O2    O     O_R   0.499990 0.567930 0.391240 -0.598128
O3    O     O_R   0.500000 0.567880 0.608730 -0.540839
O4    O     O_R   0.500000 0.432120 0.391270 -0.540839
O5    O     O_R   0.637850 0.422490 0.500000 -0.588237
O6    O     O_R   0.362150 0.577510 0.500000 -0.588237
O7    O     O_R   0.637840 0.558310 0.499970 -0.524485
O8    O     O_R   0.362160 0.441690 0.500030 -0.524485
Cl1   Cl    Cl    0.359310 0.311165 0.389425 -0.594433
Cl2   Cl    Cl    0.640689 0.688835 0.610575 -0.594433
Cl3   Cl    Cl    0.643570 0.114631 0.613319 -0.586436
Cl4   Cl    Cl    0.356429 0.885369 0.386681 -0.586435

loop_
_geom_bond_atom_site_label_1
_geom_bond_atom_site_label_2
_ccdc_geom_bond_type
C2    O4    A    
Cu1   O1    S    
C36   H8    S    
Cu1   Cu2   S    
C1    O3    A    
C22   O8    A    
Cu2   O3    S    
C5    C29   A    
C19   C20   T    
C11   N1    A    
C24   C27   T    
C3    C35   A    
Cu2   O7    S    
Cu1   N1    S    
C31   C33   A    
Cu1   O8    S    
C1    O1    A    
C9    H11   S    
C7    C8    T    
C29   C31   A    
C16   C18   A    
C2    O2    A    
C23   C28   T    
C25   C28   S    
C30   C32   A    
C9    C11   A    
C26   C27   S    
Cu1   O5    S    
C31   H5    S    
C10   C18   A    
Cu2   N2    S    
Cu2   O6    S    
C13   H13   S    
C10   C12   A    
C2    C33   S    
C3    H9    S    
C17   C19   S    
C34   C36   A    
C1    C34   S    
C21   O5    A    
C13   N1    A    
C13   C15   A    
C25   H2    S    
C22   O6    A    
C33   C35   A    
C14   C16   A    
C26   H1    S    
C16   Cl4   S    
C12   N2    A    
C15   Cl3   S    
Cu2   O2    S    
C4    C36   A    
C32   H6    S    
C18   C20   S    
C4    C6    A    
C4    H10   S    
C21   C24   S    
C9    C17   A    
C5    C7    S    
C12   Cl2   S    
C22   C23   S    
C30   H4    S    
C6    C8    S    
C35   H7    S    
C29   H3    S    
C25   C26   D    
C15   C17   A    
C11   Cl1   S    
C21   O7    A    
C6    C30   A    
C14   H14   S    
Cu1   O4    S    
C14   N2    A    
C32   C34   A    
C3    C5    A    
C10   H12   S    
