data_mof_unit_50692.cif
_audit_creation_date              2013-03-05T16:46:56-0500
_audit_creation_method            fapswitch 2.2
_symmetry_space_group_name_H-M    P1
_symmetry_Int_Tables_number       1
_space_group_crystal_system       triclinic
_cell_length_a                    18.197345
_cell_length_b                    18.27037
_cell_length_c                    18.397177
_cell_angle_alpha                 120.125226
_cell_angle_beta                  89.976966
_cell_angle_gamma                 119.882198
_cell_volume                      4325.41830461

loop_
_atom_site_label
_atom_site_type_symbol
_atom_site_description
_atom_site_fract_x
_atom_site_fract_y
_atom_site_fract_z
_atom_type_partial_charge
Zn1   Zn    Zn3+2 0.456040 0.586770 0.543190 0.984125
Zn2   Zn    Zn3+2 0.456820 0.413240 0.543960 0.974017
Zn3   Zn    Zn3+2 0.631110 0.586750 0.543190 1.000787
Zn4   Zn    Zn3+2 0.456040 0.413240 0.369660 1.034125
O1    O     O_3   0.500000 0.500000 0.500000 -0.498994
O2    O     O_R   0.383400 0.268380 0.323710 -0.628811
O3    O     O_R   0.555060 0.731630 0.615290 -0.645573
O4    O     O_R   0.383950 0.439280 0.616600 -0.643604
O5    O     O_R   0.677590 0.560710 0.444390 -0.642346
O6    O     O_R   0.556370 0.439260 0.616600 -0.651913
O7    O     O_R   0.382640 0.439290 0.322940 -0.650832
O8    O     O_R   0.678360 0.560700 0.616060 -0.641020
O9    O     O_R   0.382640 0.560750 0.444390 -0.635208
O10   O     O_R   0.383400 0.560740 0.616060 -0.643194
O11   O     O_R   0.555060 0.439270 0.322940 -0.593203
O12   O     O_R   0.383950 0.268380 0.445700 -0.636703
O13   O     O_R   0.677590 0.731610 0.615290 -0.607808
C1    C     C_R   0.360272 0.220050 0.361018 0.815910
C2    C     C_R   0.641039 0.780985 0.639771 0.836715
C3    C     C_R   0.359422 0.500767 0.640842 0.797776
C4    C     C_R   0.640716 0.499302 0.359442 0.811608
C5    C     C_R   0.641978 0.500365 0.640183 0.797783
C6    C     C_R   0.357816 0.500051 0.359484 0.817882
C7    C     C_3   0.350340 0.536195 0.246190 0.491288
H1    H     H_    0.367849 0.482190 0.202420 0.092891
C8    C     C_3   0.290390 0.537067 0.187302 -0.442685
H2    H     H_    0.323902 0.616454 0.204182 0.202474
H3    H     H_    0.281597 0.485824 0.116189 0.135643
H4    H     H_    0.228926 0.334704 0.195033 0.195411
H5    H     H_    0.141373 0.334947 0.106528 0.190587
C9    C     C_3   0.212378 0.390149 0.237709 -0.512948
C10   C     C_3   0.272827 0.574349 0.360217 -0.354119
C11   C     C_3   0.299862 0.500503 0.302368 0.072946
H6    H     H_    0.235567 0.549244 0.400173 0.167796
H7    H     H_    0.333776 0.654643 0.407868 0.227953
C12   C     C_3   0.197559 0.500079 0.200806 0.111272
C13   C     C_3   0.152539 0.389813 0.177658 -0.406865
C14   C     C_3   0.213180 0.574198 0.300928 -0.368624
H8    H     H_    0.246077 0.654426 0.319990 0.200251
H9    H     H_    0.147656 0.549691 0.313038 0.190021
H10   H     H_    0.174541 0.362945 0.276323 0.193363
H11   H     H_    0.085631 0.361744 0.186841 0.178595
C15   C     C_3   0.674662 0.940588 0.656122 -0.354646
H12   H     H_    0.603207 0.913459 0.647072 0.183955
H13   H     H_    0.681458 0.910430 0.588732 0.245974
C16   C     C_3   0.735741 0.060543 0.715620 0.496180
H14   H     H_    0.693517 0.090267 0.730526 0.181565
H15   H     H_    0.611433 0.905577 0.780310 0.239283
C17   C     C_3   0.683704 0.936616 0.790383 -0.586217
C18   C     C_3   0.800639 0.941764 0.715622 0.551725
C19   C     C_3   0.699022 0.897410 0.698937 -0.092546
H16   H     H_    0.819677 0.913081 0.747845 0.064989
C20   C     C_3   0.799360 0.102361 0.803585 -0.165024
C21   C     C_3   0.743886 0.057007 0.853002 0.074152
C22   C     C_3   0.859134 0.061205 0.777139 -0.416454
H17   H     H_    0.901672 0.092560 0.743083 0.282961
H18   H     H_    0.905873 0.088451 0.837864 0.129891
H19   H     H_    0.700056 0.905997 0.822212 0.153627
H20   H     H_    0.792937 0.080838 0.910081 0.119204
C23   C     C_3   0.679511 0.388892 0.239995 0.146874
H21   H     H_    0.700249 0.372507 0.284008 0.103602
C24   C     C_3   0.738583 0.389777 0.179270 -0.359128
H22   H     H_    0.780662 0.365851 0.190194 0.147176
H23   H     H_    0.696291 0.332576 0.107639 0.279633
H24   H     H_    0.610434 0.485018 0.205930 0.249973
C25   C     C_3   0.682506 0.533977 0.245930 -0.390786
C26   C     C_3   0.799297 0.576379 0.360088 -0.405639
C27   C     C_3   0.698169 0.498592 0.301831 -0.058871
H25   H     H_    0.816437 0.655992 0.405772 0.249120
H26   H     H_    0.813936 0.554877 0.402245 0.229708
C28   C     C_3   0.799950 0.499613 0.200623 -0.030571
C29   C     C_3   0.740769 0.532234 0.184873 0.498097
C30   C     C_3   0.858793 0.576677 0.300857 -0.447034
H27   H     H_    0.901796 0.555095 0.314629 0.242549
H28   H     H_    0.904206 0.656435 0.318331 0.223184
H29   H     H_    0.700778 0.614114 0.291394 0.141483
H30   H     H_    0.784627 0.610768 0.199538 0.066718
H31   H     H_    0.445271 0.223719 0.684878 0.146656
C31   C     C_R   0.460030 0.177088 0.555927 -0.085963
H32   H     H_    0.528678 0.202775 0.577981 0.145414
C32   C     C_R   0.418627 0.132441 0.467269 -0.171743
H33   H     H_    0.455881 0.123618 0.421255 0.143693
C33   C     C_R   0.329764 0.099471 0.437879 0.013590
C34   C     C_R   0.281650 0.111356 0.498953 0.346424
C35   C     C_R   0.324579 0.155866 0.587889 -0.172448
H34   H     H_    0.289898 0.166667 0.636124 0.179529
C36   C     C_R   0.413065 0.188713 0.616066 -0.144158
C37   C     C_R   0.232584 0.943959 0.286967 -0.188437
H35   H     H_    0.222561 0.901079 0.315018 0.175888
C38   C     C_R   0.190987 0.892279 0.196313 -0.058266
C39   C     C_R   0.204407 0.949025 0.160372 -0.012061
C40   C     C_R   0.261992 0.055979 0.215714 -0.212296
H36   H     H_    0.271873 0.099083 0.187923 0.183990
C41   C     C_R   0.304008 0.107628 0.306228 -0.026103
C42   C     C_R   0.288472 0.050900 0.342636 0.058577
C43   C     C_R   0.206955 0.903381 0.007930 -0.118362
H37   H     H_    0.278420 0.938845 0.030205 0.158732
C44   C     C_R   0.163498 0.859279 0.919858 -0.100502
H38   H     H_    0.201269 0.860692 0.874538 0.162798
C45   C     C_R   0.071383 0.813643 0.890348 -0.112051
H39   H     H_    0.038001 0.779807 0.822221 0.141352
C46   C     C_R   0.022488 0.811852 0.948813 -0.129946
H40   H     H_    0.951213 0.776771 0.925940 0.131123
C47   C     C_R   0.065586 0.855382 0.036830 -0.103863
H41   H     H_    0.027157 0.853695 0.081637 0.121754
C48   C     C_R   0.158094 0.901050 0.066779 0.134577
C49   C     C_R   0.922641 0.639870 0.579996 0.526169
C50   C     C_R   0.873527 0.579893 0.610517 -0.359471
H42   H     H_    0.859041 0.503554 0.579040 0.191644
C51   C     C_R   0.843251 0.618512 0.681510 0.072456
C52   C     C_R   0.864076 0.718386 0.722816 -0.260572
H43   H     H_    0.842218 0.749680 0.778516 0.160958
C53   C     C_R   0.912139 0.777556 0.691430 -0.269134
H44   H     H_    0.926733 0.853774 0.722801 0.225340
C54   C     C_R   0.941326 0.738382 0.619966 0.662339
C55   C     C_R   0.841448 0.551320 0.767669 -0.273643
H45   H     H_    0.913389 0.591929 0.780691 0.183281
C56   C     C_R   0.799225 0.496299 0.804038 -0.050459
C57   C     C_R   0.705099 0.441175 0.784660 0.029253
C58   C     C_R   0.656320 0.445501 0.731560 -0.282483
H46   H     H_    0.584266 0.404261 0.718011 0.179921
C59   C     C_R   0.698616 0.501800 0.696393 -0.049749
C60   C     C_R   0.792636 0.555926 0.714829 0.055340
C61   C     C_R   0.616561 0.271405 0.764294 -0.273240
H47   H     H_    0.632543 0.239176 0.704095 0.188192
C62   C     C_R   0.554306 0.205709 0.785236 0.262483
C63   C     C_R   0.532279 0.248966 0.863003 0.274581
C64   C     C_R   0.568611 0.355073 0.914109 -0.148920
H48   H     H_    0.550603 0.388863 0.972275 0.226393
C65   C     C_R   0.628409 0.418686 0.891179 -0.196527
H49   H     H_    0.654113 0.499850 0.930563 0.159438
C66   C     C_R   0.653189 0.377411 0.816626 0.089931
H50   H     H_    0.351948 0.822411 0.627128 0.195082
C67   C     C_R   0.396128 0.804262 0.721830 -0.075443
H51   H     H_    0.458589 0.880666 0.759056 0.199185
C68   C     C_R   0.375701 0.738345 0.748012 -0.139194
H52   H     H_    0.422967 0.764189 0.805398 0.131359
C69   C     C_R   0.294894 0.638866 0.699366 0.142275
C70   C     C_R   0.234274 0.606732 0.625329 -0.132182
H53   H     H_    0.171581 0.530328 0.587429 0.138102
C71   C     C_R   0.254884 0.673020 0.599564 -0.150367
H54   H     H_    0.208106 0.648024 0.542373 0.155297
C72   C     C_R   0.335919 0.771494 0.647507 -0.051825
C73   C     C_R   0.220438 0.565291 0.779339 -0.242337
H55   H     H_    0.197364 0.614899 0.799558 0.178591
C74   C     C_R   0.196463 0.499747 0.806628 -0.056471
C75   C     C_R   0.227272 0.435512 0.779609 0.013660
C76   C     C_R   0.280112 0.437848 0.725494 -0.227318
H56   H     H_    0.302830 0.387858 0.704881 0.179137
C77   C     C_R   0.303832 0.503056 0.698010 -0.058656
C78   C     C_R   0.273747 0.568045 0.725612 -0.008248
C79   C     C_R   0.254933 0.399911 0.887508 -0.113408
H57   H     H_    0.307950 0.481379 0.934806 0.127664
C80   C     C_R   0.235958 0.330931 0.909502 -0.174804
H58   H     H_    0.274286 0.358929 0.973358 0.149151
C81   C     C_R   0.168142 0.225538 0.848911 -0.176615
H59   H     H_    0.154793 0.173601 0.867470 0.179850
C82   C     C_R   0.118661 0.187701 0.765047 0.321628
C83   C     C_R   0.138067 0.257666 0.743436 -0.192442
H60   H     H_    0.101142 0.230152 0.679060 0.196037
C84   C     C_R   0.205640 0.363580 0.804559 0.081700
Zn5   Zn    Zn3+2 0.041710 0.413240 0.959030 0.979514
Zn6   Zn    Zn3+2 0.866640 0.413270 0.959030 1.057097
Zn7   Zn    Zn3+2 0.040930 0.586780 0.958260 0.976136
Zn8   Zn    Zn3+2 0.041710 0.586770 0.132560 0.973665
O14   O     O_3   0.997750 0.500010 0.002220 -0.498931
O15   O     O_R   0.942690 0.560750 0.179280 -0.657083
O16   O     O_R   0.114340 0.439270 0.886160 -0.633500
O17   O     O_R   0.820160 0.268410 0.886930 -0.602926
O18   O     O_R   0.113800 0.731630 0.056520 -0.638519
O19   O     O_R   0.819390 0.439310 0.886160 -0.624902
O20   O     O_R   0.115110 0.560720 0.179280 -0.644291
O21   O     O_R   0.941380 0.560750 0.885620 -0.650096
O22   O     O_R   0.115110 0.439270 0.057830 -0.647845
O23   O     O_R   0.942690 0.268390 0.886930 -0.647876
O24   O     O_R   0.114340 0.731630 0.178520 -0.639980
O25   O     O_R   0.820160 0.439310 0.057830 -0.570935
O26   O     O_R   0.113800 0.560730 0.885620 -0.645767
C85   C     C_R   0.857194 0.500033 0.142910 0.805324
C86   C     C_R   0.138915 0.499867 0.861924 0.808192
C87   C     C_R   0.856879 0.218985 0.862497 0.859869
C88   C     C_R   0.136726 0.779911 0.141235 0.790075
C89   C     C_R   0.855794 0.499201 0.861621 0.808664
C90   C     C_R   0.139580 0.499791 0.142951 0.773391
F1    F     F_    0.785644 0.095648 0.669418 -0.639108
N1    N     N_R   0.690285 0.097180 0.889410 0.236631
O27   O     O_R   0.620564 0.070935 0.837296 -0.369128
O28   O     O_R   0.709632 0.155652 0.975293 -0.390523
F2    F     F_    0.429849 0.634104 0.301499 -0.665141
F3    F     F_    0.817663 0.908715 0.635517 -0.579361
N2    N     N_R   0.584173 0.305731 0.186600 0.239167
O29   O     O_R   0.539728 0.234385 0.200216 -0.387321
O30   O     O_R   0.544454 0.298465 0.122136 -0.291170
F4    F     F_    0.685668 0.464625 0.096800 -0.651773
N3    N     N_R   0.190723 0.080144 0.472778 0.197822
O31   O     O_R   0.161183 0.079975 0.408267 -0.392314
O32   O     O_R   0.139335 0.060929 0.519029 -0.335530
F5    F     F_    0.988033 0.796076 0.589727 -0.571225
F6    F     F_    0.952210 0.602424 0.511716 -0.655965
N4    N     N_R   0.508155 0.095482 0.723001 0.236327
O33   O     O_R   0.544613 0.058178 0.667740 -0.410839
O34   O     O_R   0.423698 0.033423 0.709735 -0.362172
N5    N     N_R   0.474960 0.187247 0.891770 0.255720
O35   O     O_R   0.481999 0.117228 0.886134 -0.264781
O36   O     O_R   0.424934 0.210617 0.935213 -0.356395
N6    N     N_R   0.049877 0.078964 0.702008 0.228563
O37   O     O_R   0.002518 0.043979 0.625187 -0.267958
O38   O     O_R   0.034202 0.013789 0.720738 -0.365104

loop_
_geom_bond_atom_site_label_1
_geom_bond_atom_site_label_2
_geom_bond_distance
_ccdc_geom_bond_type
H31   C36   1.081450 S    
O15   C85   1.278613 A    
C22   H17   1.112648 S    
C62   C63   1.418580 A    
C55   C60   1.377796 A    
C30   H27   1.113532 S    
Zn7   O18   1.932082 S    
C52   H43   1.083214 S    
N5    O35   1.301474 A    
C15   C19   1.552967 S    
C64   H48   1.082488 S    
C17   C19   1.552428 S    
C47   C48   1.404743 A    
C32   H33   1.083352 S    
C38   C39   1.416840 A    
C20   C21   1.566571 S    
C50   H42   1.083124 S    
Zn8   O24   1.932757 S    
O24   C88   1.289830 A    
N5    O36   1.301517 A    
O9    C6    1.279229 A    
C8    H2    1.112988 S    
Zn8   O14   1.955790 S    
Zn1   O1    1.945058 S    
C57   C66   1.478537 S    
O19   C89   1.270165 A    
C12   C13   1.551038 S    
O7    C6    1.280124 A    
C76   C77   1.397652 A    
C74   C75   1.417239 A    
C73   C78   1.386040 A    
C20   C87   1.506936 S    
C71   C72   1.397852 A    
C83   H60   1.083196 S    
C29   F4    1.383723 S    
C14   H8    1.113439 S    
N6    O38   1.300529 A    
C25   C27   1.551807 S    
C34   N3    1.442119 S    
C62   N4    1.439759 S    
C17   C21   1.556233 S    
O8    C5    1.270455 A    
C55   H45   1.084300 S    
C61   C66   1.401703 A    
C23   C24   1.550402 S    
C28   C85   1.487217 S    
C13   H11   1.112916 S    
C56   C57   1.412944 A    
C40   H36   1.084850 S    
C24   H23   1.112669 S    
Zn3   O8    1.952482 S    
C67   C72   1.397987 A    
Zn5   O14   1.945058 S    
C25   C29   1.543899 S    
C75   C76   1.385102 A    
C3    C77   1.458894 S    
N4    O33   1.301054 A    
O25   C85   1.283636 A    
C43   C44   1.398413 A    
Zn6   O25   1.943521 S    
C18   H16   1.113095 S    
C49   C50   1.398636 A    
C9    C11   1.552509 S    
Zn3   O13   1.930281 S    
C7    F2    1.387017 S    
C12   C90   1.495242 S    
C10   C14   1.537147 S    
Zn6   O19   1.952337 S    
C80   C81   1.397146 A    
C79   C84   1.401781 A    
O23   C87   1.282179 A    
Zn8   O20   1.947904 S    
C35   C36   1.395400 A    
C37   C42   1.383091 A    
C33   C42   1.482607 S    
Zn8   O15   1.940864 S    
O18   C88   1.278660 A    
C30   H28   1.113469 S    
C39   C48   1.481028 S    
Zn1   O10   1.944951 S    
C41   C42   1.416871 A    
C18   F3    1.387514 S    
C31   C36   1.394212 A    
C47   H41   1.083072 S    
C32   C33   1.404726 A    
C58   C59   1.395613 A    
C5    C59   1.441879 S    
C21   H20   1.115152 S    
C20   C22   1.559682 S    
O2    C1    1.290644 A    
C54   F5    1.355928 S    
H50   C72   1.081980 S    
C26   C27   1.556150 S    
C82   N6    1.438467 S    
C10   H7    1.113254 S    
C38   C88   1.452338 S    
Zn6   O14   1.950674 S    
C34   C35   1.407493 A    
C73   C74   1.399705 A    
C75   C84   1.477406 S    
O22   C90   1.282609 A    
C39   C40   1.384400 A    
C31   C32   1.395158 A    
N6    O37   1.301522 A    
C73   H55   1.084799 S    
C67   C68   1.398811 A    
Zn5   O23   1.933041 S    
C6    C11   1.494879 S    
O16   C86   1.275340 A    
O6    C5    1.281723 A    
C17   H19   1.113191 S    
C51   C52   1.403587 A    
H5    C13   1.113139 S    
C23   H21   1.115247 S    
C26   H25   1.113753 S    
C10   H6    1.112920 S    
C65   C66   1.397611 A    
C15   H12   1.113243 S    
N2    O30   1.301385 A    
C29   H30   1.113128 S    
Zn3   O5    1.943521 S    
O10   C3    1.274268 A    
C51   C60   1.478268 S    
O20   C90   1.277130 A    
C33   C34   1.421244 A    
O11   C4    1.281214 A    
C57   C58   1.377167 A    
C18   C22   1.543799 S    
C25   H29   1.113411 S    
C43   H37   1.083163 S    
C24   H22   1.113402 S    
C45   C46   1.398282 A    
C18   C19   1.558172 S    
C80   H58   1.081731 S    
C74   C86   1.459708 S    
Zn7   O21   1.949177 S    
C52   C53   1.396817 A    
O4    C3    1.287119 A    
C7    H1    1.113114 S    
Zn4   O7    1.947908 S    
C46   C47   1.398724 A    
C15   H13   1.112664 S    
O17   C87   1.287458 A    
C35   H34   1.082854 S    
C55   C56   1.397741 A    
C26   C30   1.535813 S    
C69   C78   1.478610 S    
Zn4   O2    1.932802 S    
H15   C17   1.112250 S    
C37   C38   1.397904 A    
H24   C25   1.110321 S    
O3    C2    1.284911 A    
C22   H18   1.113516 S    
C4    C27   1.488426 S    
C82   C83   1.406065 A    
C1    C41   1.452687 S    
Zn5   O16   1.944849 S    
Zn2   O1    1.956872 S    
Zn1   O9    1.953395 S    
N1    O28   1.301154 A    
C63   C64   1.404670 A    
Zn2   O6    1.949279 S    
Zn7   O26   1.939019 S    
C58   H46   1.084608 S    
C68   C69   1.404217 A    
C61   C62   1.407641 A    
C53   H44   1.080577 S    
C8    C12   1.550069 S    
N2    O29   1.301201 A    
C43   C48   1.404389 A    
C16   H14   1.107521 S    
C81   H59   1.082335 S    
C9    H10   1.112999 S    
Zn1   O3    1.933143 S    
C49   F6    1.356144 S    
C8    H3    1.111367 S    
Zn2   O4    1.938975 S    
C7    C8    1.549078 S    
C79   C80   1.396230 A    
C68   H52   1.083053 S    
Zn3   O1    1.950674 S    
C64   C65   1.394430 A    
O26   C86   1.286507 A    
C70   H53   1.083090 S    
C67   H51   1.081465 S    
Zn5   O22   1.953292 S    
Zn2   O12   1.932184 S    
N3    O31   1.301031 A    
C44   C45   1.397659 A    
C7    C11   1.554360 S    
C26   H26   1.112248 S    
C10   C11   1.553911 S    
Zn4   O11   1.940868 S    
Zn7   O14   1.957020 S    
C65   H49   1.083214 S    
N1    O27   1.300824 A    
C28   C29   1.553118 S    
H4    C9    1.112966 S    
C71   H54   1.082228 S    
C12   C14   1.555800 S    
C14   H9    1.113447 S    
C70   C71   1.398439 A    
O5    C4    1.281424 A    
C40   C41   1.397410 A    
C23   N2    1.469673 S    
C16   C20   1.556260 S    
C81   C82   1.406893 A    
C45   H39   1.081995 S    
O13   C2    1.284068 A    
C50   C51   1.403192 A    
C24   C28   1.550619 S    
C49   C54   1.399169 A    
C2    C19   1.504398 S    
C76   H56   1.085068 S    
C16   F1    1.387348 S    
C46   H40   1.082355 S    
Zn6   O17   1.930280 S    
C15   C16   1.549982 S    
C23   C27   1.568446 S    
C69   C70   1.403556 A    
C31   H32   1.081898 S    
C56   C89   1.440442 S    
C9    C13   1.547188 S    
Zn4   O1    1.955790 S    
C37   H35   1.084779 S    
O21   C89   1.281463 A    
O12   C1    1.277889 A    
C44   H38   1.082453 S    
C21   N1    1.469070 S    
C28   C30   1.556458 S    
C77   C78   1.417632 A    
C79   H57   1.083113 S    
N3    O32   1.301465 A    
C59   C60   1.413548 A    
C83   C84   1.402484 A    
C63   N5    1.437433 S    
N4    O34   1.301275 A    
C61   H47   1.083340 S    
C53   C54   1.398776 A    
