data_mof_unit_12785.cif
_audit_creation_date              2012-12-11T17:07:34-0500
_audit_creation_method            fapswitch 2.2
_symmetry_space_group_name_H-M    P1
_symmetry_Int_Tables_number       1
_space_group_crystal_system       triclinic
_cell_length_a                    6.981246
_cell_length_b                    14.593761
_cell_length_c                    16.037524
_cell_angle_alpha                 90.037368
_cell_angle_beta                  90.242313
_cell_angle_gamma                 90.312938
_cell_volume                      1633.90585794

loop_
_atom_site_label
_atom_site_type_symbol
_atom_type_description
_atom_site_fract_x
_atom_site_fract_y
_atom_site_fract_z
_atom_type_partial_charge
O1    O     O_R   0.505720 0.583900 0.413310 -0.540907
O2    O     O_R   0.175940 0.594920 0.586080 -0.556544
O3    O     O_R   0.005640 0.416100 0.586690 -0.548878
C1    C     C_R   0.345051 0.615426 0.616059 0.716172
O4    O     O_R   0.176000 0.594930 0.413930 -0.551416
O5    O     O_R   0.005700 0.416110 0.413310 -0.538152
C2    C     C_R   0.345117 0.617486 0.385686 0.709101
O6    O     O_R   0.505660 0.583890 0.586690 -0.514132
O7    O     O_3   0.339200 0.441330 0.500000 -0.371252
V1    V     V_3+5 0.064350 0.510880 0.500000 1.407828
O8    O     O_R   0.675980 0.405080 0.413920 -0.541856
C3    C     C_R   0.844618 0.382814 0.385448 0.694244
O9    O     O_R   0.675920 0.405070 0.586070 -0.522780
C4    C     C_R   0.845386 0.383060 0.614588 0.751083
V2    V     V_3+5 0.564340 0.489120 0.500000 1.470064
O10   O     O_3   0.839360 0.558670 0.500000 -0.385115
H1    H     H_    0.536642 0.093787 0.529952 0.113714
C5    C     C_R   0.056790 0.421043 0.768437 -0.058574
C6    C     C_R   0.156579 0.441761 0.841408 -0.040907
C7    C     C_R   0.157087 0.380509 0.907335 -0.116887
C8    C     C_R   0.061785 0.296982 0.899927 -0.140527
C9    C     C_R   0.968492 0.271364 0.824622 0.061543
C10   C     C_R   0.961868 0.335634 0.757840 0.048094
C11   C     C_R   0.879971 0.184128 0.815873 -0.182076
C12   C     C_R   0.785543 0.160988 0.739972 0.074441
C13   C     C_R   0.773842 0.226203 0.674018 0.063549
C14   C     C_R   0.858698 0.314363 0.683347 -0.192193
C15   C     C_R   0.707273 0.072207 0.727030 -0.147196
C16   C     C_R   0.616514 0.049036 0.652441 -0.124909
C17   C     C_R   0.604795 0.112565 0.588319 -0.115233
C18   C     C_R   0.683963 0.199695 0.598259 -0.142412
H2    H     H_    0.053134 0.474187 0.721822 0.144181
H3    H     H_    0.228312 0.507231 0.847783 0.192074
H4    H     H_    0.229788 0.398215 0.964946 0.139805
H5    H     H_    0.061766 0.253589 0.954443 0.120101
H6    H     H_    0.717863 0.018809 0.773401 0.115575
H7    H     H_    0.557424 0.980900 0.643943 0.117108
H8    H     H_    0.676917 0.244771 0.544959 0.103921
C19   C     C_R   0.733905 0.251278 0.186001 0.049880
C20   C     C_R   0.883275 0.187704 0.181177 -0.102669
C21   C     C_R   0.031015 0.195518 0.241049 -0.185595
H9    H     H_    0.151512 0.149315 0.239267 0.123945
C22   C     C_R   0.017913 0.258747 0.307458 -0.198880
H10   H     H_    0.129601 0.259823 0.354438 0.132213
C23   C     C_R   0.857314 0.316365 0.315672 -0.162816
C24   C     C_R   0.721959 0.314182 0.251044 0.161064
C25   C     C_3   0.509105 0.307595 0.253374 0.173673
C26   C     C_3   0.521950 0.238611 0.182047 -0.430823
H11   H     H_    0.453617 0.279775 0.313196 0.077969
H12   H     H_    0.460477 0.263449 0.122160 0.192949
H13   H     H_    0.477762 0.168173 0.200201 0.138932
C27   C     C_R   0.520479 0.735760 0.699262 -0.010477
C28   C     C_R   0.354905 0.684400 0.684222 -0.067190
C29   C     C_R   0.199341 0.700061 0.736984 -0.135310
H14   H     H_    0.077854 0.655176 0.732795 0.159533
C30   C     C_R   0.208629 0.766594 0.800625 -0.111336
H15   H     H_    0.091141 0.771770 0.843917 0.146114
C31   C     C_R   0.374655 0.820490 0.812706 -0.049345
C32   C     C_R   0.526936 0.807611 0.757292 -0.002817
C33   C     C_3   0.728616 0.787518 0.780500 -0.449617
C34   C     C_3   0.710078 0.701350 0.728396 0.370950
H16   H     H_    0.749566 0.775690 0.848390 0.228528
H17   H     H_    0.828400 0.838983 0.753343 0.116762
H18   H     H_    0.811571 0.695600 0.675727 0.023057
C35   C     C_R   0.514219 0.688437 0.263118 0.100199
C36   C     C_R   0.354684 0.683913 0.315658 -0.077173
C37   C     C_R   0.202452 0.743582 0.298327 -0.184511
H19   H     H_    0.080899 0.744962 0.339188 0.165500
C38   C     C_R   0.212398 0.806875 0.232221 -0.164405
H20   H     H_    0.096126 0.854608 0.223674 0.131512
C39   C     C_R   0.376313 0.812976 0.181515 -0.090596
C40   C     C_R   0.524003 0.750547 0.196832 0.060026
C41   C     C_3   0.730020 0.770931 0.212863 -0.379184
C42   C     C_3   0.718236 0.705892 0.286419 0.163689
H21   H     H_    0.754985 0.843786 0.230478 0.182705
H22   H     H_    0.822556 0.745162 0.161818 0.150743
H23   H     H_    0.811609 0.644463 0.280943 0.085368
O11   O     O_R   0.229140 0.916090 0.913340 -0.544899
O12   O     O_R   0.558860 0.905090 0.086080 -0.538831
O13   O     O_R   0.729100 0.083920 0.086690 -0.537108
C43   C     C_R   0.389790 0.883112 0.114783 0.703664
O14   O     O_R   0.558860 0.905090 0.913930 -0.539977
O15   O     O_R   0.729100 0.083920 0.913310 -0.537141
C44   C     C_R   0.389259 0.884672 0.884152 0.707325
O16   O     O_R   0.229140 0.916080 0.086720 -0.541325
O17   O     O_3   0.395570 0.058660 0.000020 -0.370490
V3    V     V_3+5 0.670450 0.989140 0.000000 1.421592
O18   O     O_R   0.058810 0.094980 0.913910 -0.540953
C45   C     C_R   0.890013 0.116328 0.885089 0.692992
O19   O     O_R   0.058810 0.094980 0.086060 -0.547615
C46   C     C_R   0.890480 0.117188 0.114603 0.693321
V4    V     V_3+5 0.170450 0.010950 0.999970 1.407613
O20   O     O_3   0.895460 0.941370 0.999990 -0.370633
O21   O     O_3   0.425835 0.390435 0.228718 -0.630560
H24   H     H_    0.285535 0.379556 0.228873 0.303838
S1    S     S_3+6 0.688377 0.602452 0.795759 -0.050456
O22   O     O_2   0.869456 0.591133 0.845306 -0.358460
O23   O     O_2   0.526063 0.616051 0.855740 -0.344390
O24   O     O_3   0.645702 0.507780 0.739189 -0.526422
H25   H     H_    0.605765 0.460730 0.780174 0.347475
O25   O     O_3   0.732807 0.753380 0.362408 -0.642752
H26   H     H_    0.773196 0.707952 0.404781 0.300973

loop_
_geom_bond_atom_site_label_1
_geom_bond_atom_site_label_2
_ccdc_geom_bond_type
O15   V3    S    
O25   H26   S    
C1    C28   S    
C21   C22   A    
C21   H9    S    
C6    C7    A    
C1    O6    A    
C11   C45   S    
O12   V3    S    
C34   S1    S    
C25   H11   S    
C28   C29   A    
C12   C15   A    
C13   C14   A    
C33   H17   S    
C15   C16   A    
O13   V3    S    
C27   C34   S    
O5    C3    A    
C17   C18   A    
O14   V3    S    
S1    O24   S    
C30   H15   S    
C33   H16   S    
C5    C6    A    
C41   C42   S    
C38   C39   A    
C29   H14   S    
O8    V2    S    
C26   H13   S    
O24   H25   S    
C42   H23   S    
S1    O23   D    
O1    V2    S    
C10   C14   A    
C4    C14   S    
O7    V1    S    
C7    H4    S    
C26   H12   S    
C36   C37   A    
C32   C33   S    
C8    C9    A    
H1    C17   S    
C41   H21   S    
C38   H20   S    
O16   V4    S    
O15   C45   A    
C29   C30   A    
C5    C10   A    
O18   V4    S    
C11   C12   A    
C6    H3    S    
C19   C20   A    
O12   C43   A    
O17   V3    S    
C3    C23   S    
O11   V4    S    
C31   C32   A    
C23   C24   A    
C35   C42   S    
C37   H19   S    
C33   C34   S    
C37   C38   A    
C34   H18   S    
O2    C1    A    
C22   H10   S    
C16   C17   A    
C27   C32   A    
C31   C44   S    
O19   V4    S    
C25   C26   S    
S1    O22   D    
O18   C45   A    
C22   C23   A    
O3    C4    A    
C19   C24   A    
C20   C21   A    
O6    V2    S    
O14   C44   A    
C42   O25   S    
C41   H22   S    
C9    C11   A    
C5    H2    S    
O2    V1    S    
C27   C28   A    
O4    C2    A    
C24   C25   S    
O1    C2    A    
C40   C41   S    
O5    V1    S    
O8    C3    A    
C8    H5    S    
C35   C40   A    
C18   H8    S    
O13   C46   A    
O9    V2    S    
C12   C13   A    
O4    V1    S    
O3    V1    S    
V1    O10   S    
C2    C36   S    
O19   C46   A    
V3    O20   S    
V4    O20   S    
C25   O21   S    
C30   C31   A    
C20   C46   S    
O7    V2    S    
O21   H24   S    
O11   C44   A    
C13   C18   A    
C39   C40   A    
C7    C8    A    
C15   H6    S    
C35   C36   A    
C16   H7    S    
C9    C10   A    
O17   V4    S    
O9    C4    A    
C43   O16   A    
V2    O10   S    
C19   C26   S    
C39   C43   S    
