data_mof_unit_61946.cif
_audit_creation_date              2012-12-10T20:21:55-0500
_audit_creation_method            fapswitch 2.2
_symmetry_space_group_name_H-M    P1
_symmetry_Int_Tables_number       1
_space_group_crystal_system       triclinic
_cell_length_a                    35.516396
_cell_length_b                    35.516202
_cell_length_c                    38.765661
_cell_angle_alpha                 89.998773
_cell_angle_beta                  89.999647
_cell_angle_gamma                 90.000261
_cell_volume                      48899.2953077

loop_
_atom_site_label
_atom_site_type_symbol
_atom_type_description
_atom_site_fract_x
_atom_site_fract_y
_atom_site_fract_z
_atom_type_partial_charge
C1    C     C_R   0.073383 0.500000 0.500000 0.932077
C2    C     C_R   0.500000 0.614540 0.499999 -0.455637
C3    C     C_R   0.500000 0.000000 0.567369 0.945864
C4    C     C_R   0.500000 0.000000 0.932631 0.945867
C5    C     C_R   0.000000 0.500000 0.932631 0.945870
C6    C     C_R   0.500000 1.000000 0.067369 0.945866
C7    C     C_R   1.000000 0.500000 0.067369 0.945869
C8    C     C_R   0.006453 0.533518 0.376727 -0.266471
C9    C     C_R   0.533516 0.993545 0.376727 -0.266474
C10   C     C_R   0.993546 0.466484 0.376727 -0.266465
C11   C     C_R   0.466483 0.006453 0.376727 -0.266469
C12   C     C_R   0.006454 0.466482 0.623273 -0.266466
C13   C     C_R   0.614542 0.499999 0.500000 -0.455644
C14   C     C_R   0.533516 0.006455 0.623273 -0.266469
C15   C     C_R   0.993546 0.533515 0.623273 -0.266469
C16   C     C_R   0.466483 0.993548 0.623273 -0.266472
C17   C     C_R   0.506453 0.033518 0.876727 -0.266476
C18   C     C_R   0.033516 0.493545 0.876727 -0.266472
C19   C     C_R   0.493546 0.966484 0.876727 -0.266474
C20   C     C_R   0.966483 0.506453 0.876727 -0.266470
C21   C     C_R   0.506454 0.966482 0.123273 -0.266476
C22   C     C_R   0.033516 0.506455 0.123273 -0.266470
C23   C     C_R   0.493546 0.033515 0.123272 -0.266476
C24   C     C_R   0.500000 0.385467 0.500001 -0.455358
C25   C     C_R   0.966483 0.493548 0.123273 -0.266471
C26   C     C_R   0.006644 0.533574 0.340848 0.613395
C27   C     C_R   0.533571 0.993353 0.340848 0.613389
C28   C     C_R   0.993355 0.466430 0.340848 0.613394
C29   C     C_R   0.466428 0.006644 0.340848 0.613390
C30   C     C_R   0.006645 0.466426 0.659152 0.613398
C31   C     C_R   0.533571 0.006647 0.659152 0.613390
C32   C     C_R   0.993354 0.533570 0.659152 0.613393
C33   C     C_R   0.466427 0.993358 0.659152 0.613388
C34   C     C_R   0.506644 0.033574 0.840847 0.613387
C35   C     C_R   0.885461 1.000000 0.000000 -0.455644
C36   C     C_R   0.033571 0.493353 0.840848 0.613392
C37   C     C_R   0.493355 0.966430 0.840848 0.613388
C38   C     C_R   0.966428 0.506643 0.840848 0.613393
C39   C     C_R   0.506645 0.966426 0.159152 0.613393
C40   C     C_R   0.033571 0.506646 0.159152 0.613392
C41   C     C_R   0.493354 0.033570 0.159152 0.613384
C42   C     C_R   0.966428 0.493357 0.159152 0.613392
C43   C     C_R   0.999999 0.500002 0.322625 -0.209747
C44   C     C_R   0.500000 0.999998 0.322625 -0.209748
C45   C     C_R   1.000000 0.499998 0.677375 -0.209748
C46   C     C_R   0.000000 0.114543 0.999999 -0.455762
C47   C     C_R   0.499999 0.000002 0.677375 -0.209748
C48   C     C_R   0.499999 0.000002 0.822625 -0.209743
C49   C     C_R   1.000000 0.499998 0.822625 -0.209743
C50   C     C_R   0.500000 0.999998 0.177375 -0.209742
C51   C     C_R   0.999999 0.500002 0.177375 -0.209744
C52   C     C_R   1.000000 0.500001 0.394881 -0.230567
C53   C     C_R   0.500000 0.999999 0.394881 -0.230569
C54   C     C_R   1.000000 0.499999 0.605118 -0.230568
C55   C     C_R   0.500000 0.000001 0.605118 -0.230569
C56   C     C_R   0.500000 0.000001 0.894881 -0.230566
C57   C     C_R   0.114542 1.000000 1.000000 -0.455756
C58   C     C_R   1.000000 0.499999 0.894881 -0.230564
C59   C     C_R   0.500000 0.999999 0.105118 -0.230565
C60   C     C_R   1.000000 0.500001 0.105118 -0.230565
C61   C     C_R   0.999999 0.500003 0.215139 0.367951
C62   C     C_R   0.499999 0.999997 0.215139 0.367944
C63   C     C_R   0.999999 0.499997 0.784861 0.367949
C64   C     C_R   0.499999 0.000003 0.784861 0.367947
C65   C     C_R   0.499999 0.000003 0.715139 0.367947
C66   C     C_R   0.999999 0.499997 0.715139 0.367949
C67   C     C_R   0.499999 0.999998 0.284861 0.367944
C68   C     C_R   0.000000 0.885457 0.000001 -0.455756
C69   C     C_R   0.999999 0.500003 0.284861 0.367953
C70   C     C_R   0.326340 0.516316 0.527701 0.391906
C71   C     C_R   0.516335 0.673659 0.527690 0.391898
C72   C     C_R   0.673662 0.483725 0.527723 0.391888
C73   C     C_R   0.483440 0.326350 0.527582 0.392120
C74   C     C_R   0.326340 0.483681 0.472302 0.391931
C75   C     C_R   0.516564 0.326351 0.472422 0.392116
C76   C     C_R   0.673663 0.516271 0.472277 0.391867
C77   C     C_R   0.483667 0.673659 0.472306 0.391896
C78   C     C_R   0.826341 0.016357 0.027681 0.391926
C79   C     C_R   0.306876 0.499999 0.500001 -0.299314
C80   C     C_R   0.016243 0.173664 0.027734 0.391835
C81   C     C_R   0.173662 0.983725 0.027722 0.391857
C82   C     C_R   0.983752 0.826336 0.027735 0.391847
C83   C     C_R   0.826341 0.983641 0.972321 0.391927
C84   C     C_R   0.016248 0.826337 0.972268 0.391834
C85   C     C_R   0.173663 0.016272 0.972277 0.391858
C86   C     C_R   0.983759 0.173664 0.972262 0.391840
C87   C     C_R   0.365645 0.516858 0.527332 0.495260
C88   C     C_R   0.516875 0.634354 0.527322 0.495189
C89   C     C_R   0.634357 0.483182 0.527354 0.495406
C90   C     C_R   0.500000 0.693123 0.499998 -0.299315
C91   C     C_R   0.482909 0.365657 0.527211 0.495013
C92   C     C_R   0.365645 0.483140 0.472670 0.495347
C93   C     C_R   0.517094 0.365658 0.472792 0.494976
C94   C     C_R   0.634358 0.516815 0.472646 0.495283
C95   C     C_R   0.483126 0.634354 0.472675 0.495221
C96   C     C_R   0.865647 0.016897 0.027312 0.495177
C97   C     C_R   0.016787 0.134358 0.027367 0.495283
C98   C     C_R   0.134357 0.983182 0.027354 0.495249
C99   C     C_R   0.983208 0.865642 0.027367 0.495314
C100  C     C_R   0.865647 0.983102 0.972689 0.495156
C101  C     C_R   0.693126 0.499998 0.500000 -0.299316
C102  C     C_R   0.016792 0.865642 0.972635 0.495297
C103  C     C_R   0.134358 0.016816 0.972646 0.495247
C104  C     C_R   0.983214 0.134359 0.972630 0.495333
C105  C     C_3   0.302023 0.508192 0.581191 -0.198695
C106  C     C_3   0.508246 0.697968 0.581187 -0.198751
C107  C     C_3   0.697978 0.491939 0.581202 -0.198723
C108  C     C_3   0.491066 0.302030 0.581137 -0.199092
C109  C     C_3   0.302028 0.491801 0.418809 -0.198786
C110  C     C_3   0.508951 0.302037 0.418865 -0.199079
C111  C     C_3   0.697968 0.508063 0.418792 -0.198621
C112  C     C_R   0.500000 0.926617 0.500000 0.932086
C113  C     C_R   0.500002 0.306885 0.500002 -0.299370
C114  C     C_3   0.491757 0.697976 0.418811 -0.198755
C115  C     C_3   0.802022 0.008314 0.081183 -0.198828
C116  C     C_3   0.007967 0.197974 0.081205 -0.198661
C117  C     C_3   0.197977 0.991935 0.081203 -0.198716
C118  C     C_3   0.992018 0.802025 0.081209 -0.198681
C119  C     C_3   0.802032 0.991674 0.918815 -0.198824
C120  C     C_3   0.007979 0.802019 0.918799 -0.198665
C121  C     C_3   0.197979 0.008058 0.918798 -0.198717
C122  C     C_3   0.992040 0.197982 0.918793 -0.198682
C123  C     C_3   0.196300 0.572531 0.548054 -0.226456
C124  C     C_R   0.806877 0.999999 0.000001 -0.299335
C125  C     C_3   0.572579 0.803695 0.547989 -0.226480
C126  C     C_3   0.803698 0.427469 0.548057 -0.226430
C127  C     C_3   0.427594 0.196327 0.548194 -0.226202
C128  C     C_3   0.196308 0.427474 0.451946 -0.226391
C129  C     C_3   0.572411 0.196328 0.451810 -0.226218
C130  C     C_3   0.803703 0.572533 0.451946 -0.226490
C131  C     C_3   0.427415 0.803706 0.452009 -0.226472
C132  C     C_3   0.696310 0.072483 0.048108 -0.226428
C133  C     C_3   0.072520 0.303698 0.048067 -0.226521
C134  C     C_3   0.303698 0.927501 0.048098 -0.226491
C135  C     C_R   0.000001 0.193127 0.999998 -0.299314
C136  C     C_3   0.927462 0.696294 0.048051 -0.226501
C137  C     C_3   0.696314 0.927520 0.951892 -0.226418
C138  C     C_3   0.072538 0.696300 0.951954 -0.226527
C139  C     C_3   0.303697 0.072495 0.951902 -0.226499
C140  C     C_3   0.927478 0.303704 0.951930 -0.226500
C141  C     C_R   0.193126 0.999999 1.000000 -0.299335
C142  C     C_R   0.000000 0.806873 0.000002 -0.299313
C143  C     C_1   0.266802 0.499999 0.500001 0.183838
C144  C     C_1   0.500000 0.733197 0.499998 0.183825
C145  C     C_1   0.733200 0.499998 0.500000 0.183846
C146  C     C_1   0.500001 0.266810 0.500003 0.183875
C147  C     C_1   0.766803 1.000000 0.000001 0.183826
C148  C     C_R   0.926617 0.500000 0.500000 0.932080
C149  C     C_1   0.000000 0.233201 0.999998 0.183812
C150  C     C_1   0.233200 0.999999 0.000000 0.183805
C151  C     C_1   0.000001 0.766799 0.000003 0.183811
C152  C     C_1   0.233205 0.499999 0.500001 0.076353
C153  C     C_1   0.499999 0.766795 0.499998 0.076371
C154  C     C_1   0.766797 0.499998 0.500000 0.076362
C155  C     C_1   0.500001 0.233211 0.500002 0.076357
C156  C     C_1   0.733206 1.000000 0.000000 0.076336
C157  C     C_1   1.000000 0.266798 0.999998 0.076343
C158  C     C_1   0.266797 0.999999 0.000000 0.076337
C159  C     C_R   0.500000 0.073383 0.500000 0.932035
C160  C     C_1   0.000001 0.733202 0.000003 0.076351
C161  C     C_R   0.173647 0.533536 0.506795 0.493461
C162  C     C_R   0.533542 0.826352 0.506765 0.493448
C163  C     C_R   0.826354 0.466462 0.506797 0.493447
C164  C     C_R   0.466480 0.173650 0.506860 0.493502
C165  C     C_R   0.173646 0.466464 0.493205 0.493450
C166  C     C_R   0.533522 0.173650 0.493143 0.493506
C167  C     C_R   0.826354 0.533535 0.493204 0.493452
C168  C     C_R   0.466457 0.826353 0.493233 0.493455
C169  C     C_R   0.673647 0.033530 0.006820 0.493477
C170  C     C_R   0.573383 0.000000 1.000000 0.932067
C171  C     C_R   0.033534 0.326355 0.006801 0.493448
C172  C     C_R   0.326354 0.966467 0.006815 0.493459
C173  C     C_R   0.966464 0.673645 0.006795 0.493447
C174  C     C_R   0.673647 0.966470 0.993180 0.493468
C175  C     C_R   0.033537 0.673646 0.993209 0.493449
C176  C     C_R   0.326354 0.033531 0.993185 0.493459
C177  C     C_R   0.966465 0.326355 0.993197 0.493452
C178  C     C_R   0.134367 0.533546 0.506004 -0.277776
C179  C     C_R   0.533551 0.865632 0.505975 -0.277772
C180  C     C_R   0.865634 0.466453 0.506005 -0.277761
C181  C     C_R   1.000000 0.426617 1.000000 0.932083
C182  C     C_R   0.466468 0.134370 0.506066 -0.277770
C183  C     C_R   0.134367 0.466454 0.493996 -0.277759
C184  C     C_R   0.533533 0.134370 0.493935 -0.277778
C185  C     C_R   0.865633 0.533545 0.493996 -0.277774
C186  C     C_R   0.466448 0.865632 0.494024 -0.277786
C187  C     C_R   0.634368 0.033541 0.006028 -0.277774
C188  C     C_R   0.033544 0.365634 0.006010 -0.277767
C189  C     C_R   0.365634 0.966457 0.006023 -0.277772
C190  C     C_R   0.966454 0.634366 0.006003 -0.277774
C191  C     C_R   0.634367 0.966460 0.993972 -0.277764
C192  C     C_R   0.426617 1.000000 0.000000 0.932074
C193  C     C_R   0.033547 0.634366 0.994000 -0.277772
C194  C     C_R   0.365634 0.033542 0.993977 -0.277769
C195  C     C_R   0.966455 0.365634 0.993989 -0.277772
C196  C     C_R   0.114575 0.500000 0.500000 -0.185996
C197  C     C_R   0.500000 0.885425 0.500000 -0.185997
C198  C     C_R   0.885426 0.500000 0.500000 -0.185993
C199  C     C_R   0.500000 0.114577 0.500000 -0.185984
C200  C     C_R   0.614575 0.000000 1.000000 -0.185994
C201  C     C_R   1.000000 0.385426 1.000000 -0.185992
C202  C     C_R   0.385426 1.000000 0.000000 -0.185990
C203  C     C_R   1.000000 0.573382 0.000000 0.932086
C204  C     C_R   0.000000 0.614574 0.000001 -0.185992
C205  C     C_R   0.193139 0.500000 0.500000 -0.128050
C206  C     C_R   0.499999 0.806860 0.499999 -0.128030
C207  C     C_R   0.806862 0.499999 0.500001 -0.128037
C208  C     C_R   0.500001 0.193144 0.500002 -0.128159
C209  C     C_R   0.693140 0.000000 1.000000 -0.128077
C210  C     C_R   1.000000 0.306862 0.999999 -0.128029
C211  C     C_R   0.306862 0.999999 0.000000 -0.128045
C212  C     C_R   0.000001 0.693138 0.000002 -0.128022
C213  C     C_R   0.500000 0.573353 0.500000 1.022302
C214  C     C_R   0.385460 0.499999 0.500000 -0.455595
C215  C     C_R   0.573354 0.500000 0.500000 1.022433
C216  C     C_R   0.500000 0.426649 0.500000 1.022972
C217  C     C_R   0.426647 0.500000 0.500000 1.022562
C218  C     C_R   0.000000 0.073354 1.000000 1.022083
C219  C     C_R   0.073354 1.000000 1.000000 1.022030
C220  C     C_R   0.000000 0.926646 0.000000 1.022102
C221  C     C_R   0.926647 1.000000 0.000000 1.022281
C222  C     C_R   1.000000 0.500000 0.432631 0.945874
C223  C     C_R   0.500000 1.000000 0.432631 0.945864
C224  C     C_R   0.000000 0.500000 0.567369 0.945873
F1    F     F_    0.012430 0.566616 0.324046 -0.624351
F2    F     F_    0.066613 0.487566 0.824047 -0.624356
F3    F     F_    0.487569 0.933388 0.824048 -0.624356
F4    F     F_    0.933386 0.512430 0.824047 -0.624353
F5    F     F_    0.512432 0.933384 0.175953 -0.624354
F6    F     F_    0.066613 0.512433 0.175953 -0.624354
F7    F     F_    0.487568 0.066612 0.175952 -0.624364
F8    F     F_    0.933385 0.487572 0.175953 -0.624356
F9    F     F_    0.384254 0.534469 0.553358 -0.602659
F10   F     F_    0.534501 0.615744 0.553340 -0.602695
F11   F     F_    0.615749 0.465612 0.553405 -0.602588
F12   F     F_    0.566613 0.987566 0.324047 -0.624357
F13   F     F_    0.465078 0.384274 0.553106 -0.602890
F14   F     F_    0.384253 0.465529 0.446643 -0.602641
F15   F     F_    0.534926 0.384276 0.446898 -0.602914
F16   F     F_    0.615752 0.534386 0.446595 -0.602643
F17   F     F_    0.465500 0.615745 0.446657 -0.602680
F18   F     F_    0.884257 0.034544 0.053317 -0.602688
F19   F     F_    0.034329 0.115753 0.053435 -0.602588
F20   F     F_    0.115750 0.965612 0.053404 -0.602618
F21   F     F_    0.965660 0.884247 0.053431 -0.602582
F22   F     F_    0.884257 0.965454 0.946685 -0.602710
F23   F     F_    0.987568 0.433388 0.324048 -0.624350
F24   F     F_    0.034339 0.884248 0.946570 -0.602582
F25   F     F_    0.115751 0.034387 0.946595 -0.602612
F26   F     F_    0.965672 0.115753 0.946562 -0.602565
F27   F     F_    0.433386 0.012430 0.324047 -0.624349
F28   F     F_    0.012432 0.433384 0.675953 -0.624348
F29   F     F_    0.566613 0.012433 0.675953 -0.624352
F30   F     F_    0.987567 0.566612 0.675952 -0.624353
F31   F     F_    0.433385 0.987572 0.675953 -0.624355
F32   F     F_    0.512430 0.066617 0.824047 -0.624361
H1    H     H_    0.011488 0.559716 0.390267 0.205801
H2    H     H_    0.059714 0.488510 0.890268 0.205800
H3    H     H_    0.831797 0.576013 0.439618 0.151825
H4    H     H_    0.787595 0.598847 0.447500 0.212564
H5    H     H_    0.450785 0.787884 0.439477 0.163761
H6    H     H_    0.423919 0.831801 0.439688 0.151818
H7    H     H_    0.401098 0.787596 0.447587 0.212574
H8    H     H_    0.712143 0.049088 0.060589 0.163690
H9    H     H_    0.668220 0.075943 0.060447 0.151790
H10   H     H_    0.712415 0.098794 0.052573 0.212587
H11   H     H_    0.049134 0.287870 0.060568 0.163846
H12   H     H_    0.075994 0.331790 0.060398 0.151834
H13   H     H_    0.488512 0.940286 0.890268 0.205802
H14   H     H_    0.098833 0.287591 0.052517 0.212556
H15   H     H_    0.287869 0.950893 0.060588 0.163793
H16   H     H_    0.331790 0.924034 0.060431 0.151820
H17   H     H_    0.287591 0.901190 0.052559 0.212563
H18   H     H_    0.950844 0.712118 0.060562 0.163841
H19   H     H_    0.923981 0.668199 0.060377 0.151831
H20   H     H_    0.901148 0.712402 0.052495 0.212561
H21   H     H_    0.712150 0.950915 0.939413 0.163697
H22   H     H_    0.668225 0.924063 0.939549 0.151790
H23   H     H_    0.712418 0.901209 0.947426 0.212589
H24   H     H_    0.940285 0.511489 0.890268 0.205801
H25   H     H_    0.049157 0.712127 0.939445 0.163845
H26   H     H_    0.076017 0.668207 0.939625 0.151834
H27   H     H_    0.098853 0.712407 0.947511 0.212555
H28   H     H_    0.287866 0.049104 0.939413 0.163799
H29   H     H_    0.331788 0.075960 0.939566 0.151818
H30   H     H_    0.287591 0.098807 0.947440 0.212563
H31   H     H_    0.950864 0.287879 0.939427 0.163837
H32   H     H_    0.924003 0.331798 0.939601 0.151831
H33   H     H_    0.901165 0.287597 0.947479 0.212562
H34   H     H_    0.511489 0.940284 0.109732 0.205801
H35   H     H_    0.059714 0.511489 0.109732 0.205800
H36   H     H_    0.488511 0.059714 0.109732 0.205800
H37   H     H_    0.940285 0.488513 0.109732 0.205800
H38   H     H_    0.119502 0.559716 0.510540 0.193141
H39   H     H_    0.559726 0.880497 0.510489 0.193151
H40   H     H_    0.880499 0.440283 0.510542 0.193147
H41   H     H_    0.559714 0.988510 0.390268 0.205803
H42   H     H_    0.440308 0.119504 0.510652 0.193136
H43   H     H_    0.119501 0.440284 0.489460 0.193150
H44   H     H_    0.559693 0.119504 0.489349 0.193133
H45   H     H_    0.880499 0.559716 0.489459 0.193139
H46   H     H_    0.440273 0.880498 0.489510 0.193149
H47   H     H_    0.619502 0.059707 0.010583 0.193137
H48   H     H_    0.059714 0.380499 0.010551 0.193140
H49   H     H_    0.380499 0.940290 0.010575 0.193136
H50   H     H_    0.940283 0.619500 0.010536 0.193141
H51   H     H_    0.619502 0.940293 0.989416 0.193140
H52   H     H_    0.988511 0.440286 0.390268 0.205804
H53   H     H_    0.059717 0.619501 0.989465 0.193141
H54   H     H_    0.380499 0.059709 0.989425 0.193136
H55   H     H_    0.940286 0.380500 0.989449 0.193139
H56   H     H_    0.329543 0.499104 0.592119 0.199951
H57   H     H_    0.285404 0.483263 0.572730 0.140531
H58   H     H_    0.285996 0.522215 0.602122 0.185615
H59   H     H_    0.483305 0.714580 0.572742 0.140516
H60   H     H_    0.522280 0.714000 0.602109 0.185627
H61   H     H_    0.499175 0.670445 0.592121 0.199958
H62   H     H_    0.714594 0.516856 0.572705 0.140516
H63   H     H_    0.440286 0.011489 0.390268 0.205806
H64   H     H_    0.714007 0.477952 0.602153 0.185659
H65   H     H_    0.670457 0.501042 0.592119 0.199925
H66   H     H_    0.500049 0.329549 0.592139 0.199980
H67   H     H_    0.516074 0.285414 0.572869 0.140353
H68   H     H_    0.476849 0.285998 0.601956 0.185486
H69   H     H_    0.285417 0.516736 0.427266 0.140498
H70   H     H_    0.285996 0.477779 0.397881 0.185639
H71   H     H_    0.329551 0.500879 0.407878 0.199950
H72   H     H_    0.483936 0.285428 0.427127 0.140355
H73   H     H_    0.523170 0.286001 0.398051 0.185470
H74   H     H_    0.011489 0.440284 0.609732 0.205804
H75   H     H_    0.499979 0.329558 0.407859 0.200012
H76   H     H_    0.714566 0.483132 0.427284 0.140545
H77   H     H_    0.714010 0.522045 0.397847 0.185609
H78   H     H_    0.670443 0.498981 0.407870 0.199997
H79   H     H_    0.500835 0.670455 0.407877 0.199930
H80   H     H_    0.516692 0.714593 0.427258 0.140509
H81   H     H_    0.477721 0.714005 0.397888 0.185640
H82   H     H_    0.829540 0.999241 0.092123 0.199943
H83   H     H_    0.785402 0.983374 0.072752 0.140471
H84   H     H_    0.785994 0.022369 0.102096 0.185600
H85   H     H_    0.559714 0.011489 0.609732 0.205805
H86   H     H_    0.983057 0.214587 0.072686 0.140543
H87   H     H_    0.021928 0.214005 0.102168 0.185659
H88   H     H_    0.998856 0.170451 0.092113 0.199959
H89   H     H_    0.214591 0.016853 0.072708 0.140509
H90   H     H_    0.214007 0.977947 0.102152 0.185638
H91   H     H_    0.170456 0.001036 0.092120 0.199946
H92   H     H_    0.016930 0.785414 0.072694 0.140534
H93   H     H_    0.978053 0.785992 0.102169 0.185672
H94   H     H_    0.001125 0.829548 0.092118 0.199945
H95   H     H_    0.785426 0.016626 0.927238 0.140466
H96   H     H_    0.988510 0.559713 0.609731 0.205802
H97   H     H_    0.785996 0.977619 0.897907 0.185588
H98   H     H_    0.829556 0.000728 0.907870 0.199988
H99   H     H_    0.998861 0.829539 0.907891 0.199933
H100  H     H_    0.983074 0.785399 0.927318 0.140546
H101  H     H_    0.021946 0.785991 0.897837 0.185665
H102  H     H_    0.170458 0.998954 0.907883 0.199939
H103  H     H_    0.214596 0.983142 0.927294 0.140512
H104  H     H_    0.214007 0.022045 0.897846 0.185639
H105  H     H_    0.001159 0.170462 0.907887 0.199925
H106  H     H_    0.016945 0.214600 0.927316 0.140531
H107  H     H_    0.440285 0.988513 0.609732 0.205804
H108  H     H_    0.978079 0.214012 0.897828 0.185676
H109  H     H_    0.212127 0.549147 0.560561 0.163755
H110  H     H_    0.168207 0.576008 0.560384 0.151810
H111  H     H_    0.212408 0.598845 0.552500 0.212575
H112  H     H_    0.549209 0.787867 0.560515 0.163775
H113  H     H_    0.576070 0.831787 0.560317 0.151816
H114  H     H_    0.598897 0.787587 0.552411 0.212570
H115  H     H_    0.787868 0.450851 0.560560 0.163801
H116  H     H_    0.831790 0.423994 0.560389 0.151813
H117  H     H_    0.787592 0.401153 0.552503 0.212588
H118  H     H_    0.511488 0.059716 0.890267 0.205801
H119  H     H_    0.451006 0.212171 0.560636 0.163407
H120  H     H_    0.424160 0.168242 0.560550 0.151711
H121  H     H_    0.401287 0.212430 0.552690 0.212654
H122  H     H_    0.212143 0.450857 0.439446 0.163756
H123  H     H_    0.168218 0.424003 0.439609 0.151797
H124  H     H_    0.212413 0.401158 0.447500 0.212600
H125  H     H_    0.548998 0.212170 0.439366 0.163402
H126  H     H_    0.575848 0.168243 0.439456 0.151715
H127  H     H_    0.598716 0.212434 0.447315 0.212651
H128  H     H_    0.787878 0.549150 0.439437 0.163815
N1    N     N_R   0.976751 0.476708 0.267136 -0.081524
N2    N     N_R   0.976705 0.523245 0.767135 -0.081523
N3    N     N_R   0.523246 0.023297 0.767135 -0.081529
N4    N     N_R   0.023293 0.476750 0.767136 -0.081524
N5    N     N_R   0.476752 0.023292 0.232864 -0.081527
N6    N     N_R   0.976705 0.476755 0.232865 -0.081526
N7    N     N_R   0.523246 0.976703 0.232864 -0.081527
N8    N     N_R   0.023293 0.523250 0.232864 -0.081524
N9    N     N_R   0.476706 0.023245 0.267136 -0.081530
N10   N     N_R   0.023246 0.523297 0.267135 -0.081525
N11   N     N_R   0.523293 0.976750 0.267136 -0.081523
N12   N     N_R   0.976752 0.523292 0.732864 -0.081522
N13   N     N_R   0.476704 0.976756 0.732865 -0.081523
N14   N     N_R   0.023246 0.476703 0.732864 -0.081524
N15   N     N_R   0.523293 0.023250 0.732864 -0.081532
N16   N     N_R   0.476751 0.976709 0.767136 -0.081527
O1    O     O_R   0.055380 0.468760 0.500060 -0.621092
O2    O     O_R   0.968760 0.444620 0.000060 -0.621095
O3    O     O_R   0.444620 0.031240 0.000060 -0.621092
O4    O     O_R   0.031240 0.555380 0.000060 -0.621099
O5    O     O_R   0.555380 0.031240 0.999940 -0.621086
O6    O     O_R   0.968760 0.555380 0.999940 -0.621099
O7    O     O_R   0.444620 0.968760 0.999940 -0.621091
O8    O     O_R   0.031240 0.444620 0.999940 -0.621097
O9    O     O_R   0.999950 0.468760 0.449130 -0.620598
O10   O     O_R   0.468760 0.000050 0.449130 -0.620591
O11   O     O_R   0.000050 0.531240 0.449130 -0.620602
O12   O     O_R   0.468760 0.944620 0.500060 -0.621103
O13   O     O_R   0.531240 0.999950 0.449130 -0.620605
O14   O     O_R   0.999950 0.531240 0.550870 -0.620601
O15   O     O_R   0.468760 0.999950 0.550870 -0.620605
O16   O     O_R   0.000050 0.468760 0.550870 -0.620598
O17   O     O_R   0.531240 0.000050 0.550870 -0.620592
O18   O     O_R   0.499950 0.968760 0.949130 -0.620601
O19   O     O_R   0.968760 0.500050 0.949130 -0.620601
O20   O     O_R   0.500050 0.031240 0.949130 -0.620602
O21   O     O_R   0.031240 0.499950 0.949130 -0.620600
O22   O     O_R   0.499950 0.031240 0.050870 -0.620603
O23   O     O_R   0.944620 0.531240 0.500060 -0.621097
O24   O     O_R   0.968760 0.499950 0.050870 -0.620600
O25   O     O_R   0.500050 0.968760 0.050870 -0.620601
O26   O     O_R   0.031240 0.500050 0.050870 -0.620602
O27   O     O_R   0.499940 0.555400 0.471320 -0.575690
O28   O     O_R   0.555400 0.500060 0.471320 -0.575480
O29   O     O_R   0.500060 0.444600 0.471320 -0.575979
O30   O     O_R   0.444600 0.499940 0.471320 -0.575702
O31   O     O_R   0.499940 0.444600 0.528680 -0.576011
O32   O     O_R   0.555400 0.499940 0.528680 -0.575639
O33   O     O_R   0.500060 0.555400 0.528680 -0.575654
O34   O     O_R   0.531240 0.055380 0.500060 -0.621065
O35   O     O_R   0.444600 0.500060 0.528680 -0.575543
O36   O     O_R   0.999940 0.055400 0.971320 -0.575550
O37   O     O_R   0.055400 0.000060 0.971320 -0.575573
O38   O     O_R   0.000060 0.944600 0.971320 -0.575494
O39   O     O_R   0.944600 0.999940 0.971320 -0.575697
O40   O     O_R   0.999940 0.944600 0.028680 -0.575558
O41   O     O_R   0.055400 0.999940 0.028680 -0.575577
O42   O     O_R   0.000060 0.055400 0.028680 -0.575486
O43   O     O_R   0.944600 0.000060 0.028680 -0.575692
O44   O     O_3   0.306977 0.534093 0.554013 -0.555106
O45   O     O_R   0.055380 0.531240 0.499940 -0.621095
O46   O     O_3   0.534127 0.693023 0.553993 -0.555118
O47   O     O_3   0.693025 0.465993 0.554062 -0.555077
O48   O     O_3   0.465420 0.306987 0.553758 -0.554864
O49   O     O_3   0.306975 0.465904 0.445990 -0.555058
O50   O     O_3   0.534589 0.306988 0.446251 -0.554883
O51   O     O_3   0.693028 0.534003 0.445939 -0.555152
O52   O     O_3   0.465874 0.693023 0.446002 -0.555091
O53   O     O_3   0.806979 0.034174 0.053972 -0.555047
O54   O     O_3   0.033943 0.193028 0.054088 -0.555161
O55   O     O_3   0.193026 0.965992 0.054060 -0.555115
O56   O     O_R   0.468760 0.055380 0.499940 -0.621064
O57   O     O_3   0.966047 0.806972 0.054087 -0.555137
O58   O     O_3   0.806977 0.965821 0.946033 -0.555064
O59   O     O_3   0.033954 0.806973 0.945916 -0.555153
O60   O     O_3   0.193027 0.034004 0.945938 -0.555117
O61   O     O_3   0.966059 0.193028 0.945906 -0.555128
O62   O     O_3   0.192951 0.566812 0.512201 -0.589609
O63   O     O_3   0.566823 0.807048 0.512141 -0.589620
O64   O     O_3   0.807051 0.433186 0.512203 -0.589620
O65   O     O_3   0.433216 0.192953 0.512329 -0.589401
O66   O     O_3   0.192950 0.433188 0.487799 -0.589591
O67   O     O_R   0.944620 0.468760 0.499940 -0.621094
O68   O     O_3   0.566786 0.192953 0.487675 -0.589402
O69   O     O_3   0.807049 0.566811 0.487799 -0.589642
O70   O     O_3   0.433176 0.807048 0.487858 -0.589615
O71   O     O_3   0.692951 0.066802 0.012250 -0.589569
O72   O     O_3   0.066809 0.307051 0.012212 -0.589659
O73   O     O_3   0.307050 0.933195 0.012241 -0.589631
O74   O     O_3   0.933187 0.692949 0.012198 -0.589655
O75   O     O_3   0.692950 0.933199 0.987750 -0.589570
O76   O     O_3   0.066814 0.692950 0.987807 -0.589660
O77   O     O_3   0.307051 0.066803 0.987759 -0.589630
O78   O     O_R   0.531240 0.944620 0.499940 -0.621104
O79   O     O_3   0.933191 0.307051 0.987785 -0.589653
O80   O     O_R   0.555380 0.968760 0.000060 -0.621086
Zn1   Zn    Zn3+2 0.000000 0.458270 0.500000 0.992202
Zn2   Zn    Zn3+2 0.500000 0.500000 0.538340 1.148815
Zn3   Zn    Zn3+2 0.000000 0.000000 0.961660 1.149077
Zn4   Zn    Zn3+2 0.000000 0.000000 0.038340 1.149076
Zn5   Zn    Zn3+2 0.458270 0.000000 0.500000 0.992207
Zn6   Zn    Zn3+2 0.000000 0.541730 0.500000 0.992186
Zn7   Zn    Zn3+2 0.541730 0.000000 0.500000 0.992204
Zn8   Zn    Zn3+2 0.500000 0.958270 0.000000 0.992192
Zn9   Zn    Zn3+2 0.958270 0.500000 0.000000 0.992180
Zn10  Zn    Zn3+2 0.500000 0.041730 0.000000 0.992186
Zn11  Zn    Zn3+2 0.041730 0.500000 0.000000 0.992176
Zn12  Zn    Zn3+2 0.500000 0.500000 0.461660 1.148806

loop_
_geom_bond_atom_site_label_1
_geom_bond_atom_site_label_2
_ccdc_geom_bond_type
C62   N7    A    
O22   Zn10  S    
C52   C222  S    
C108  H68   S    
C65   N13   A    
C32   C45   A    
C41   C50   A    
C30   C45   A    
C111  H78   S    
C164  O65   S    
C137  O75   S    
C15   C32   A    
O8    Zn11  S    
C116  H87   S    
C185  H45   S    
C84   O59   S    
C68   C220  S    
C39   F5    S    
C187  H47   S    
C35   C221  S    
C105  H56   S    
C22   C60   A    
C218  O36   A    
C72   C101  A    
C167  O69   S    
C159  O34   A    
C167  C185  A    
C8    C26   A    
C74   C92   A    
C19   C37   A    
C76   C94   A    
C140  H33   S    
C133  O72   S    
C18   C58   A    
C216  O29   A    
C41   F7    S    
C78   C96   A    
C138  H27   S    
C106  H59   S    
C25   C60   A    
O36   Zn3   S    
C98   F20   S    
C85   C103  A    
C174  C191  A    
C131  H6    S    
C172  C211  A    
C156  C209  S    
C10   C52   A    
C4    C56   S    
C161  C205  A    
C160  C212  S    
C224  O16   A    
O27   Zn12  S    
C124  C147  S    
C73   O48   S    
C104  F26   S    
C3    O17   A    
C165  C183  A    
C15   C54   A    
C33   F31   S    
C166  C184  A    
C114  H79   S    
C119  H97   S    
N8    N10   A    
C112  O12   A    
C107  O47   S    
C132  O71   S    
C108  O48   S    
C174  O75   S    
O20   Zn10  S    
C172  O73   S    
C61   N8    A    
C28   F23   S    
C113  C146  S    
C6    O22   A    
O19   Zn9   S    
C12   H74   S    
C175  O76   S    
O7    Zn8   S    
C84   C142  A    
C92   F14   S    
C223  O10   A    
C91   F13   S    
C183  C196  A    
C102  F24   S    
C126  H117  S    
C115  O53   S    
C109  H70   S    
C95   F17   S    
C171  C188  A    
C62   N5    A    
C77   O52   S    
C83   C100  A    
C217  O35   A    
C29   C44   A    
C33   C47   A    
C173  C212  A    
C34   C48   A    
O56   Zn5   S    
O15   Zn5   S    
C88   F10   S    
C75   C93   A    
C130  O69   S    
C213  O33   A    
C158  C211  S    
C177  C195  A    
C25   H37   S    
C70   C79   A    
C181  C201  S    
C182  C199  A    
C68   C102  A    
C110  H75   S    
C87   F9    S    
C105  H58   S    
C110  O50   S    
C130  H4    S    
C21   C59   A    
C195  C201  A    
C78   O53   S    
C112  C197  S    
C53   C223  S    
C179  C197  A    
C13   C94   A    
O11   Zn6   S    
C23   C41   A    
C187  C200  A    
C13   C215  S    
C74   O49   S    
C138  O76   S    
C117  H90   S    
C135  C149  S    
C131  O70   S    
C215  O32   A    
C122  O61   S    
C190  C204  A    
C216  O31   A    
O1    Zn1   S    
C138  H25   S    
C140  H31   S    
C180  C198  A    
C71   C88   A    
O67   Zn1   S    
C106  O46   S    
C21   H34   S    
C165  C205  A    
C175  C193  A    
C123  O62   S    
C167  C207  A    
C19   C56   A    
C111  H76   S    
O43   Zn4   S    
C80   C97   A    
C84   C102  A    
C14   C31   A    
C80   O54   S    
O14   Zn6   S    
C219  O41   A    
C19   H13   S    
C35   C96   A    
C177  O79   S    
C23   C59   A    
C101  C145  S    
C80   C135  A    
C5    C58   S    
O9    Zn1   S    
C133  H12   S    
O80   Zn8   S    
C4    O18   A    
C161  O62   S    
C118  O57   S    
C26   F1    S    
C134  H16   S    
O16   Zn1   S    
C34   F32   S    
C126  H115  S    
C132  H9    S    
C3    C55   S    
C27   C44   A    
C79   C143  S    
C127  H121  S    
C81   O55   S    
C82   O57   S    
C140  O79   S    
C121  H103  S    
C83   C124  A    
C8    C52   A    
C154  C207  S    
C119  H95   S    
C14   C55   A    
C22   C40   A    
C43   C69   S    
C120  H99   S    
C186  H46   S    
C110  H73   S    
C70   C87   A    
C221  O43   A    
C114  H81   S    
C141  C150  S    
C133  H11   S    
C131  H7    S    
C219  O37   A    
N4    N14   A    
C168  C186  A    
C103  F25   S    
C107  H65   S    
C191  C200  A    
C14   H85   S    
C164  C208  A    
C85   C141  A    
C120  O59   S    
O41   Zn4   S    
C178  C196  A    
C139  H30   S    
C17   H118  S    
C177  C210  A    
C125  H113  S    
C118  H93   S    
C22   H35   S    
C17   C56   A    
C27   F12   S    
C145  C154  T    
O78   Zn7   S    
C136  H19   S    
O40   Zn4   S    
C20   C58   A    
C35   C100  A    
C129  H126  S    
C137  H23   S    
C127  H120  S    
C166  O68   S    
C9    H41   S    
C6    C59   S    
C127  O65   S    
C20   H24   S    
O30   Zn12  S    
C4    O20   A    
C5    O21   A    
C189  C202  A    
C40   C51   A    
O32   Zn2   S    
O26   Zn11  S    
O5    Zn10  S    
C117  O55   S    
C116  H88   S    
C89   F11   S    
O35   Zn2   S    
C24   C93   A    
C184  H44   S    
C24   C216  S    
C133  H14   S    
C71   C90   A    
C18   C36   A    
C115  H84   S    
C93   F15   S    
C87   C214  A    
C12   C54   A    
C100  F22   S    
C176  O77   S    
C203  O6    A    
C86   C135  A    
C32   F30   S    
C134  H17   S    
C44   C67   S    
C64   N16   A    
C40   F6    S    
C180  H40   S    
O24   Zn9   S    
C131  H5    S    
C42   F8    S    
C107  H64   S    
C181  O8    A    
N5    N9    A    
C46   C218  S    
C76   O51   S    
C174  C209  A    
C82   C99   A    
C182  H42   S    
C179  H39   S    
C82   C142  A    
C123  H110  S    
N2    N12   A    
C38   C49   A    
C129  O68   S    
O31   Zn2   S    
C139  H28   S    
C116  O54   S    
C29   F27   S    
C114  H80   S    
O38   Zn3   S    
C48   C64   S    
C128  H123  S    
C81   C98   A    
C136  O74   S    
C194  C202  A    
C173  C190  A    
C122  H105  S    
C73   C113  A    
C120  H100  S    
O17   Zn7   S    
C112  O78   A    
C146  C155  T    
C121  O60   S    
C130  H128  S    
C92   C214  A    
C99   F21   S    
C72   O47   S    
C109  H69   S    
C132  H8    S    
C13   C89   A    
C159  C199  S    
C86   C104  A    
C31   C47   A    
C162  C206  A    
C108  H67   S    
C166  C208  A    
C183  H43   S    
O28   Zn12  S    
C192  O3    A    
C57   C103  A    
C77   C90   A    
C31   F29   S    
C69   N1    A    
C155  C208  S    
N13   N16   A    
O39   Zn3   S    
C171  C210  A    
C115  H82   S    
C46   C104  A    
C6    O25   A    
N7    N11   A    
C7    O24   A    
C189  H49   S    
C203  O4    A    
C1    O1    A    
C137  H21   S    
C138  H26   S    
C193  H53   S    
C140  H32   S    
C147  C156  T    
C221  O39   A    
C169  C187  A    
C114  O52   S    
C217  O30   A    
C107  H62   S    
C94   F16   S    
C181  O2    A    
C46   C97   A    
O21   Zn11  S    
C11   H63   S    
O10   Zn5   S    
C165  O66   S    
C9    C53   A    
C105  H57   S    
C163  O64   S    
N3    N15   A    
C9    C27   A    
C10   C28   A    
C148  O23   A    
C159  O56   A    
C36   F2    S    
C150  C158  T    
C85   O60   S    
C12   C30   A    
C136  H18   S    
C119  H98   S    
C25   C42   A    
C109  O49   S    
C172  C189  A    
C67   N11   A    
C28   C43   A    
C176  C211  A    
C70   O44   S    
C139  O77   S    
O45   Zn6   S    
C3    O15   A    
C213  O27   A    
C119  O58   S    
C57   C98   A    
C86   O61   S    
C163  C207  A    
C30   F28   S    
C126  H116  S    
C109  H71   S    
C164  C182  A    
C132  H10   S    
C37   F3    S    
C2    C213  S    
C15   H96   S    
C121  H102  S    
C192  O7    A    
C176  C194  A    
C161  C178  A    
C149  C157  T    
C125  O63   S    
O18   Zn8   S    
C36   C49   A    
C222  O11   A    
C142  C151  S    
C105  O44   S    
C203  C204  S    
C49   C63   S    
C111  H77   S    
C51   C61   S    
C64   N3    A    
C170  C200  S    
C130  H3    S    
C106  H60   S    
C128  H124  S    
C63   N4    A    
O37   Zn3   S    
C117  H89   S    
C173  O74   S    
C193  C204  A    
C170  O80   A    
C171  O72   S    
C116  H86   S    
C2    C95   A    
C117  H91   S    
C123  H111  S    
C188  H48   S    
C188  C201  A    
C144  C153  T    
C191  H51   S    
C139  H29   S    
C220  O40   A    
C8    H1    S    
C218  O42   A    
C106  H61   S    
C54   C224  S    
C128  H122  S    
C178  H38   S    
C122  H108  S    
C2    C88   A    
C185  C198  A    
C118  H94   S    
C134  O73   S    
C78   C124  A    
C11   C53   A    
O29   Zn12  S    
C42   C51   A    
C81   C141  A    
O33   Zn2   S    
O2    Zn9   S    
C157  C210  S    
C136  H20   S    
O34   Zn7   S    
O12   Zn5   S    
C129  H125  S    
C26   C43   A    
C71   O46   S    
C67   N9    A    
C137  H22   S    
C127  H119  S    
C108  H66   S    
C75   O50   S    
C152  C205  S    
C1    C196  S    
C66   N12   A    
C73   C91   A    
C23   H36   S    
C7    O26   A    
C220  O38   A    
C57   C219  S    
C134  H15   S    
C223  O13   A    
C77   C95   A    
C153  C206  S    
C162  O63   S    
C111  O51   S    
C18   H2    S    
C1    O45   A    
C120  H101  S    
C16   C33   A    
C97   F19   S    
C20   C38   A    
C21   C39   A    
C115  H83   S    
C184  C199  A    
C10   H52   S    
C186  C197  A    
C121  H104  S    
C175  C212  A    
C37   C48   A    
C96   F18   S    
C162  C179  A    
C195  H55   S    
C222  O9    A    
C75   C113  A    
C215  O28   A    
C5    O19   A    
C7    C60   S    
C50   C62   S    
C168  C206  A    
C110  H72   S    
C24   C91   A    
C163  C180  A    
O13   Zn7   S    
O23   Zn6   S    
C38   F4    S    
C63   N2    A    
C168  O70   S    
C76   C101  A    
C66   N14   A    
C143  C152  T    
C16   H107  S    
C128  O66   S    
C126  O64   S    
C123  H109  S    
C214  C217  S    
C190  H50   S    
C224  O14   A    
O6    Zn9   S    
O25   Zn8   S    
C74   C79   A    
O4    Zn11  S    
C151  C160  T    
C194  H54   S    
C16   C55   A    
C125  H114  S    
C72   C89   A    
C148  C198  S    
C69   N10   A    
C125  H112  S    
C83   O58   S    
C65   N15   A    
C122  H106  S    
C61   N6    A    
C118  H92   S    
C169  O71   S    
C90   C144  S    
N1    N6    A    
O3    Zn10  S    
C39   C50   A    
O42   Zn4   S    
C11   C29   A    
C17   C34   A    
C148  O67   A    
C45   C66   S    
C170  O5    A    
C192  C202  S    
C169  C209  A    
C47   C65   S    
C129  H127  S    
C68   C99   A    
