data_mof_unit_58574.cif
_audit_creation_date              2012-12-10T19:01:24-0500
_audit_creation_method            fapswitch 2.2
_symmetry_space_group_name_H-M    P1
_symmetry_Int_Tables_number       1
_space_group_crystal_system       triclinic
_cell_length_a                    9.608716
_cell_length_b                    10.803838
_cell_length_c                    15.460326
_cell_angle_alpha                 89.04192
_cell_angle_beta                  74.190118
_cell_angle_gamma                 90.212893
_cell_volume                      1543.96541309

loop_
_atom_site_label
_atom_site_type_symbol
_atom_type_description
_atom_site_fract_x
_atom_site_fract_y
_atom_site_fract_z
_atom_type_partial_charge
C1    C     C_R   0.998526 0.262423 0.502742 0.800333
C2    C     C_R   0.224044 0.515826 0.041071 0.165797
C3    C     C_R   0.318469 0.468764 0.089868 0.093283
C4    C     C_R   0.918072 0.497709 0.672174 0.793469
C5    C     C_R   0.082984 0.550786 0.085843 -0.208013
C6    C     C_R   0.036283 0.545280 0.179105 -0.211387
C7    C     C_R   0.262529 0.452757 0.183696 -0.253880
C8    C     C_R   0.116709 0.063928 0.517074 0.133752
C9    C     C_R   0.992869 0.129116 0.514625 -0.100314
C10   C     C_R   0.861439 0.063441 0.529526 -0.217185
C11   C     C_R   0.861344 0.934083 0.531378 -0.228642
C12   C     C_R   0.667279 0.464637 0.905590 0.091563
C13   C     C_R   0.992794 0.870117 0.516586 -0.096150
C14   C     C_R   0.116504 0.936742 0.518247 0.135288
C15   C     C_3   0.267600 0.931166 0.459697 -0.488507
C16   C     C_R   0.998522 0.737419 0.503602 0.793359
C17   C     C_3   0.267698 0.071816 0.457485 -0.464529
C18   C     C_R   0.606826 0.486923 0.422358 0.228587
C19   C     C_R   0.539392 0.506307 0.578098 -0.090855
C20   C     C_R   0.391474 0.506838 0.578055 -0.088466
C21   C     C_R   0.460362 0.484095 0.422557 0.208716
C22   C     C_3   0.488008 0.559610 0.337951 -0.458400
C23   C     C_R   0.764207 0.421592 0.953773 0.164812
C24   C     C_3   0.646602 0.563714 0.337057 -0.114834
C25   C     C_R   0.081739 0.498433 0.327787 0.782105
C26   C     C_R   0.871333 0.482563 0.770590 -0.048301
C27   C     C_R   0.126029 0.497372 0.228816 -0.044001
C28   C     C_R   0.912485 0.410915 0.910536 -0.212092
C29   C     C_R   0.965621 0.440073 0.819192 -0.203173
C30   C     C_R   0.725231 0.499358 0.814785 -0.245718
C31   C     C_3   0.711233 0.694992 0.338815 -0.305509
C32   C     C_3   0.619735 0.784845 0.405702 -0.810543
C33   C     C_R   0.516622 0.473237 0.949820 0.069731
C34   C     C_R   0.466263 0.445792 0.043798 0.067597
C35   C     C_R   0.566599 0.400946 0.088766 -0.227252
C36   C     C_R   0.712382 0.389188 0.044427 -0.237079
C37   C     C_R   0.414609 0.508278 0.903107 -0.222558
C38   C     C_R   0.271651 0.530087 0.948203 -0.245893
Cu1   Cu    Cu3+1 0.140670 0.499980 0.500000 0.935786
Cu2   Cu    Cu3+1 0.859330 0.500020 0.500000 0.932448
H1    H     H_    0.785468 0.355372 0.081783 0.147028
H2    H     H_    0.309520 0.514315 0.641311 0.138204
H3    H     H_    0.471965 0.505682 0.281608 0.159468
H4    H     H_    0.322388 0.406690 0.223808 0.131146
H5    H     H_    0.428525 0.648186 0.347496 0.219454
H6    H     H_    0.712839 0.508035 0.281230 0.126159
H7    H     H_    0.931798 0.581778 0.211935 0.135276
H8    H     H_    0.198543 0.561476 0.910101 0.146713
H9    H     H_    0.986847 0.377424 0.947032 0.144144
H10   H     H_    0.079208 0.426383 0.786291 0.146977
H11   H     H_    0.659053 0.539892 0.776131 0.137546
H12   H     H_    0.010971 0.587917 0.048907 0.142896
H13   H     H_    0.536464 0.373505 0.158579 0.132599
H14   H     H_    0.441071 0.520294 0.831211 0.131548
H15   H     H_    0.527844 0.817233 0.381508 0.233608
H16   H     H_    0.580653 0.742436 0.473882 0.262165
H17   H     H_    0.685827 0.868072 0.408996 0.229097
H18   H     H_    0.818275 0.688030 0.351890 0.233301
H19   H     H_    0.730597 0.737126 0.270453 0.181058
H20   H     H_    0.760418 0.111108 0.535368 0.167231
H21   H     H_    0.760073 0.884991 0.539957 0.168394
H22   H     H_    0.341154 0.891916 0.497227 0.205185
H23   H     H_    0.274650 0.889447 0.393368 0.195508
H24   H     H_    0.343800 0.113223 0.491922 0.200902
H25   H     H_    0.273385 0.112228 0.389951 0.195963
H26   H     H_    0.564427 0.513319 0.641690 0.139841
N1    N     N_R   0.648210 0.500930 0.499430 -0.179789
N2    N     N_R   0.352300 0.500890 0.499430 -0.176517
O1    O     O_R   0.118810 0.319640 0.500000 -0.574910
O2    O     O_R   0.881230 0.319680 0.499990 -0.579507
O3    O     O_R   0.055580 0.499970 0.629840 -0.591752
O4    O     O_R   0.818000 0.500010 0.629830 -0.591670
O5    O     O_R   0.118770 0.680320 0.500010 -0.571970
O6    O     O_R   0.881190 0.680360 0.500000 -0.581945
O7    O     O_R   0.182000 0.499990 0.370170 -0.580616
O8    O     O_R   0.944420 0.500030 0.370160 -0.596078

loop_
_geom_bond_atom_site_label_1
_geom_bond_atom_site_label_2
_ccdc_geom_bond_type
C30   H11   S    
C35   H13   S    
C18   C21   A    
Cu1   N2    S    
C19   C20   A    
C12   C23   A    
Cu2   O2    S    
C16   O6    A    
C31   H18   S    
C28   C29   A    
C3    C7    A    
C17   H24   S    
C5    C6    A    
C7    C27   A    
C19   H26   S    
C34   C35   A    
C31   H19   S    
C31   C32   S    
C8    C9    A    
Cu2   N1    S    
C8    C14   A    
C5    H12   S    
C19   N1    A    
C18   C24   S    
Cu1   O7    S    
C9    C10   A    
C32   H15   S    
C38   H8    S    
C21   C22   S    
C36   H1    S    
C32   H17   S    
C29   H10   S    
C6    H7    S    
C16   O5    A    
C1    C9    S    
Cu1   Cu2   S    
C3    C34   A    
C18   N1    A    
C23   C28   A    
C33   C37   A    
Cu2   O8    S    
C25   O7    A    
C35   C36   A    
C10   H20   S    
C37   C38   A    
C28   H9    S    
C2    C38   A    
C4    C26   S    
C6    C27   A    
C33   C34   A    
Cu1   O1    S    
C7    H4    S    
C37   H14   S    
C26   C30   A    
C21   N2    A    
C22   C24   S    
C2    C5    A    
C4    O4    A    
C15   C17   S    
C15   H23   S    
Cu2   O4    S    
C12   C30   A    
C20   N2    A    
C8    C17   S    
C11   H21   S    
C20   H2    S    
C25   C27   S    
C17   H25   S    
C1    O2    A    
C25   O8    A    
C24   H6    S    
C2    C3    A    
C24   C31   S    
C4    O3    A    
C11   C13   A    
C15   H22   S    
Cu2   O6    S    
Cu1   O5    S    
C1    O1    A    
C10   C11   A    
C22   H5    S    
C26   C29   A    
C23   C36   A    
C13   C16   S    
Cu1   O3    S    
C14   C15   S    
C12   C33   A    
C13   C14   A    
C32   H16   S    
C22   H3    S    
