data_mof_unit_8286.cif
_audit_creation_date              2012-12-10T17:16:57-0500
_audit_creation_method            fapswitch 2.2
_symmetry_space_group_name_H-M    P1
_symmetry_Int_Tables_number       1
_space_group_crystal_system       triclinic
_cell_length_a                    18.412897
_cell_length_b                    18.25134
_cell_length_c                    51.311934
_cell_angle_alpha                 90.140004
_cell_angle_beta                  89.920798
_cell_angle_gamma                 90.096682
_cell_volume                      17243.7983664

loop_
_atom_site_label
_atom_site_type_symbol
_atom_type_description
_atom_site_fract_x
_atom_site_fract_y
_atom_site_fract_z
_atom_type_partial_charge
C1    C     C_R   0.000114 0.499198 0.929371 0.831549
C2    C     C_R   0.568273 0.970477 0.277175 -0.063790
C3    C     C_R   0.500937 0.993119 0.400556 -0.113268
C4    C     C_R   0.494281 0.994265 0.845835 0.132688
C5    C     C_R   0.992179 0.487486 0.845928 0.156747
C6    C     C_R   0.989103 0.501743 0.345703 0.125703
C7    C     C_R   0.501237 0.979635 0.345733 0.132242
C8    C     C_R   0.860989 0.641173 0.999462 0.905327
C9    C     C_R   0.360081 0.859882 0.999545 0.919742
C10   C     C_R   0.140372 0.360414 0.999713 0.894389
C11   C     C_R   0.639258 0.140863 0.999845 0.916883
C12   C     C_R   0.139970 0.640281 0.000028 0.911464
C13   C     C_R   0.993163 0.568301 0.277105 -0.051211
C14   C     C_R   0.639423 0.859359 0.999755 0.939779
C15   C     C_R   0.859665 0.360450 0.000143 0.894459
C16   C     C_R   0.360023 0.140288 0.999879 0.907594
C17   C     C_R   0.361043 0.141203 0.499281 0.934398
C18   C     C_R   0.860948 0.359062 0.500104 0.928500
C19   C     C_R   0.639423 0.859063 0.499605 0.898149
C20   C     C_R   0.139631 0.640301 0.499780 0.952780
C21   C     C_R   0.639987 0.140089 0.499707 0.916200
C22   C     C_R   0.139985 0.360055 0.499508 0.929261
C23   C     C_R   0.359486 0.860525 0.500106 0.921943
C24   C     C_R   0.437219 0.957699 0.277187 -0.060914
C25   C     C_R   0.860897 0.640797 0.499890 0.925815
C26   C     C_R   0.168583 0.723639 0.953321 -0.077307
C27   C     C_R   0.228976 0.120280 0.969357 -0.146404
C28   C     C_R   0.868925 0.237921 0.964825 -0.120081
C29   C     C_R   0.606408 0.710064 0.012705 -0.106179
C30   C     C_R   0.714796 0.604658 0.013749 -0.076031
C31   C     C_R   0.762627 0.128824 0.965508 -0.041987
C32   C     C_R   0.120288 0.226846 0.970049 -0.116425
C33   C     C_R   0.274870 0.832464 0.953270 -0.122457
C34   C     C_R   0.641537 0.253544 0.461693 -0.122269
C35   C     C_R   0.490621 0.997937 0.763425 0.003577
C36   C     C_R   0.896242 0.792177 0.510072 -0.110612
C37   C     C_R   0.357221 0.749037 0.460993 -0.065871
C38   C     C_R   0.125579 0.231093 0.530261 -0.056046
C39   C     C_R   0.235398 0.126810 0.531282 -0.101075
C40   C     C_R   0.251477 0.640023 0.461460 -0.049891
C41   C     C_R   0.788071 0.897944 0.510480 -0.072341
C42   C     C_R   0.744861 0.364631 0.463718 -0.035440
C43   C     C_R   0.182078 0.763836 0.930775 -0.094827
C44   C     C_R   0.165314 0.109813 0.955120 -0.090113
C45   C     C_R   0.874448 0.177755 0.948138 -0.139104
C46   C     C_R   0.997070 0.485061 0.763628 -0.000053
C47   C     C_R   0.589490 0.638235 0.019495 -0.132084
C48   C     C_R   0.643655 0.585626 0.020074 -0.041889
C49   C     C_R   0.821589 0.123202 0.948553 -0.016463
C50   C     C_R   0.111086 0.162848 0.955510 -0.112848
C51   C     C_R   0.234920 0.818253 0.930772 -0.086153
C52   C     C_R   0.638745 0.311070 0.443929 -0.071748
C53   C     C_R   0.913841 0.865042 0.515048 -0.093937
C54   C     C_R   0.357974 0.694162 0.442070 -0.083235
C55   C     C_R   0.119081 0.169949 0.546301 -0.086072
C56   C     C_R   0.174009 0.117940 0.546855 -0.059002
C57   C     C_R   0.976683 0.503730 0.263303 0.004031
C58   C     C_R   0.305321 0.639567 0.442361 -0.032551
C59   C     C_R   0.859844 0.917838 0.515250 -0.070720
C60   C     C_R   0.690000 0.366871 0.445079 -0.031340
C61   C     C_R   0.263084 0.791389 0.976294 0.028712
C62   C     C_R   0.184476 0.238725 0.984573 0.067153
C63   C     C_R   0.755805 0.189414 0.982573 0.012377
C64   C     C_R   0.732969 0.677165 0.006201 0.020212
C65   C     C_R   0.678066 0.730697 0.005938 0.058272
C66   C     C_R   0.809856 0.244420 0.982362 0.060333
C67   C     C_R   0.239593 0.184720 0.984189 0.059481
C68   C     C_R   0.502942 0.961993 0.263310 0.004483
C69   C     C_R   0.208938 0.736538 0.976394 0.046228
C70   C     C_R   0.749226 0.306213 0.481813 0.020313
C71   C     C_R   0.768852 0.824333 0.504768 0.032392
C72   C     C_R   0.249287 0.695702 0.480776 0.005474
C73   C     C_R   0.243440 0.188663 0.514914 0.009197
C74   C     C_R   0.188151 0.241817 0.514577 0.025314
C75   C     C_R   0.303188 0.750421 0.480676 0.040863
C76   C     C_R   0.823766 0.770639 0.504721 0.045975
C77   C     C_R   0.695890 0.250986 0.481209 0.038702
C78   C     C_R   0.193130 0.699522 0.999949 -0.249622
C79   C     C_R   0.434098 0.877987 0.763258 -0.181735
C80   C     C_R   0.302130 0.194917 0.999728 -0.247933
C81   C     C_R   0.805026 0.302989 0.000348 -0.240446
C82   C     C_R   0.695543 0.803302 0.998767 -0.269881
C83   C     C_R   0.805063 0.697729 0.000124 -0.262251
C84   C     C_R   0.695076 0.197576 0.999163 -0.247259
C85   C     C_R   0.196210 0.304297 0.998710 -0.245785
C86   C     C_R   0.304225 0.803520 0.999140 -0.239819
C87   C     C_R   0.697354 0.194900 0.500100 -0.251782
C88   C     C_R   0.805265 0.697092 0.499093 -0.262469
C89   C     C_R   0.303313 0.804136 0.500501 -0.228100
C90   C     C_R   0.108154 0.556507 0.764611 -0.164580
C91   C     C_R   0.196271 0.304428 0.498750 -0.250015
C92   C     C_R   0.305826 0.198445 0.499257 -0.253630
C93   C     C_R   0.194682 0.697312 0.500106 -0.247972
C94   C     C_R   0.695864 0.802817 0.500514 -0.256553
C95   C     C_R   0.805368 0.302540 0.500456 -0.245890
C96   C     C_R   0.227462 0.720380 0.023598 0.207930
C97   C     C_R   0.307244 0.255953 0.016415 0.226787
C98   C     C_R   0.748181 0.306219 0.018776 0.231838
C99   C     C_R   0.766542 0.822779 0.990869 0.266027
C100  C     C_R   0.823466 0.771760 0.994389 0.337911
C101  C     C_R   0.546478 0.118229 0.764254 -0.187249
C102  C     C_R   0.687893 0.259917 0.015295 0.230006
C103  C     C_R   0.261697 0.315809 0.012233 0.213999
C104  C     C_R   0.290307 0.763669 0.022112 0.301411
C105  C     C_R   0.752982 0.191094 0.519198 0.234014
C106  C     C_R   0.733513 0.676760 0.492771 0.274189
C107  C     C_R   0.251144 0.803824 0.520908 0.226270
C108  C     C_R   0.258386 0.314968 0.482813 0.281792
C109  C     C_R   0.315252 0.262211 0.483746 0.293861
C110  C     C_R   0.193802 0.751567 0.519994 0.298522
C111  C     C_R   0.677127 0.727677 0.496967 0.245301
C112  C     C_R   0.500061 0.000006 0.929329 0.845062
C113  C     C_R   0.886205 0.413295 0.763207 -0.166499
C114  C     C_R   0.807746 0.246242 0.519504 0.280135
C115  C     C_R   0.518983 0.055512 0.804897 0.535285
C116  C     C_R   0.939840 0.450992 0.804510 0.598526
C117  C     C_R   0.464331 0.937127 0.804448 0.632052
C118  C     C_R   0.049105 0.521104 0.805175 0.556553
C119  C     C_R   0.996298 0.566672 0.304479 0.536355
C120  C     C_R   0.437834 0.963122 0.304579 0.561966
C121  C     C_R   0.969612 0.438899 0.304512 0.625777
C122  C     C_R   0.566515 0.976228 0.304535 0.559987
C123  C     C_2   0.870842 0.584649 0.151463 1.067475
C124  C     C_R   0.946913 0.374423 0.263669 -0.179726
C125  C     C_2   0.554326 0.844426 0.149075 1.068091
C126  C     C_2   0.083703 0.417384 0.158295 1.060848
C127  C     C_2   0.455969 0.095521 0.161049 1.035914
C128  C     C_2   0.396426 0.094285 0.654223 1.067670
C129  C     C_2   0.109113 0.409322 0.653929 1.075569
C130  C     C_2   0.591047 0.904644 0.655852 1.062596
C131  C     C_2   0.889697 0.569128 0.656620 1.068969
C132  C     C_2   0.360884 0.019694 0.845923 0.998251
C133  C     C_2   0.072628 0.377178 0.845706 1.006287
C134  C     C_2   0.628245 0.973134 0.843131 1.013245
C135  C     C_R   0.634117 0.972053 0.263644 -0.161189
C136  C     C_2   0.921335 0.604054 0.843438 1.028774
C137  C     C_2   0.853917 0.487598 0.346837 1.045077
C138  C     C_2   0.542075 0.849898 0.348290 0.996768
C139  C     C_2   0.124036 0.515298 0.342079 1.017007
C140  C     C_2   0.461069 0.109021 0.340506 0.999925
C141  C     C_2   0.365869 0.028407 0.902488 0.874661
C142  C     C_2   0.074189 0.380929 0.901880 0.903635
C143  C     C_2   0.633836 0.978603 0.900231 0.951685
C144  C     C_2   0.922305 0.610913 0.900393 0.929296
C145  C     C_2   0.860039 0.487660 0.403492 0.929956
C146  C     C_R   0.005036 0.633419 0.263499 -0.187788
C147  C     C_2   0.543702 0.862965 0.405199 0.913919
C148  C     C_2   0.132498 0.512235 0.399072 0.934980
C149  C     C_2   0.467187 0.125820 0.397318 0.940528
C150  C     C_R   0.372109 0.948948 0.263614 -0.172272
C151  C     C_R   0.942282 0.372875 0.236462 0.324362
C152  C     C_R   0.636683 0.967085 0.236456 0.326143
C153  C     C_R   0.002466 0.635810 0.236281 0.320772
C154  C     C_R   0.370152 0.945701 0.236358 0.323122
C155  C     C_R   0.432916 0.876715 0.736015 0.324546
C156  C     C_R   0.500167 0.999568 0.429326 0.899809
C157  C     C_R   0.111508 0.557240 0.737403 0.325262
C158  C     C_R   0.547045 0.121288 0.737048 0.325409
C159  C     C_R   0.885735 0.412083 0.735959 0.327996
C160  C     C_R   0.954464 0.438819 0.222052 -0.133214
C161  C     C_R   0.570433 0.964451 0.221990 -0.140810
C162  C     C_R   0.989796 0.569766 0.221952 -0.126541
C163  C     C_R   0.436634 0.950185 0.221887 -0.143326
C164  C     C_R   0.460182 0.938452 0.721839 -0.131600
C165  C     C_R   0.054462 0.523744 0.722711 -0.138991
C166  C     C_R   0.520987 0.059862 0.722380 -0.130063
C167  C     C_R   0.999853 0.499954 0.429308 0.884294
C168  C     C_R   0.943617 0.446613 0.721960 -0.138211
C169  C     C_R   0.973457 0.504128 0.235725 -0.070581
C170  C     C_R   0.503321 0.958608 0.235679 -0.065057
C171  C     C_R   0.490522 0.998774 0.735826 -0.072250
C172  C     C_R   0.998434 0.485039 0.736052 -0.060128
C173  C     C_R   0.949228 0.442877 0.194593 0.623737
C174  C     C_R   0.567756 0.969833 0.194520 0.607447
C175  C     C_R   0.994529 0.565474 0.194511 0.626547
C176  C     C_R   0.439967 0.947607 0.194293 0.607737
C177  C     C_R   0.458468 0.943244 0.694350 0.629270
C178  C     C_R   0.462499 0.937429 0.777051 -0.075027
C179  C     C_R   0.049777 0.528031 0.695305 0.618255
C180  C     C_R   0.524695 0.055894 0.694916 0.630828
C181  C     C_R   0.949819 0.444546 0.694523 0.617041
C182  C     C_R   0.927166 0.539883 0.138205 -0.111380
C183  C     C_R   0.526614 0.912693 0.137023 -0.087208
C184  C     C_R   0.034877 0.461910 0.141696 -0.117725
C185  C     C_R   0.479979 0.036806 0.142968 -0.075103
C186  C     C_R   0.444918 0.043615 0.639706 -0.117139
C187  C     C_R   0.051173 0.449175 0.639721 -0.098004
C188  C     C_R   0.544953 0.955317 0.640504 -0.110956
C189  C     C_R   0.051650 0.521426 0.777818 -0.065738
C190  C     C_R   0.947607 0.532970 0.641088 -0.101384
C191  C     C_R   0.931067 0.535688 0.110674 0.314807
C192  C     C_R   0.524772 0.921657 0.109576 0.332316
C193  C     C_R   0.044544 0.465059 0.114408 0.290345
C194  C     C_R   0.481581 0.048261 0.115751 0.277673
C195  C     C_R   0.443061 0.039390 0.612218 0.329597
C196  C     C_R   0.047817 0.447722 0.612229 0.328678
C197  C     C_R   0.550709 0.959199 0.613065 0.308002
C198  C     C_R   0.950627 0.540714 0.613724 0.332482
C199  C     C_R   0.991543 0.500431 0.098877 -0.267307
C200  C     C_R   0.519110 0.057508 0.777531 -0.052144
C201  C     C_R   0.501367 0.989686 0.098895 -0.294278
C202  C     C_R   0.498229 0.999848 0.598924 -0.283583
C203  C     C_R   0.999651 0.496297 0.599105 -0.305513
C204  C     C_R   0.998804 0.500113 0.070239 1.029650
C205  C     C_R   0.500170 0.999371 0.070261 1.030142
C206  C     C_R   0.500072 0.000015 0.570229 1.028201
C207  C     C_R   0.999917 0.499602 0.570257 0.991683
C208  C     C_R   0.977920 0.501473 0.153544 0.050219
C209  C     C_R   0.502670 0.969586 0.153502 0.026842
C210  C     C_R   0.494073 0.999610 0.653697 0.042776
C211  C     C_R   0.940879 0.449150 0.777127 -0.062893
C212  C     C_R   0.999552 0.489679 0.653975 0.023869
C213  C     C_R   0.429997 0.006724 0.860095 -0.165060
C214  C     C_R   0.031831 0.434919 0.859992 -0.155129
C215  C     C_R   0.561121 0.984324 0.858823 -0.032627
C216  C     C_R   0.957219 0.545655 0.858982 -0.149908
C217  C     C_R   0.924787 0.495298 0.360511 -0.170812
C218  C     C_R   0.523052 0.920100 0.361257 -0.144614
C219  C     C_R   0.057224 0.507532 0.358201 -0.023492
C220  C     C_R   0.480055 0.046170 0.357471 -0.147441
C221  C     C_R   0.432312 0.010083 0.887522 -0.076550
C222  C     C_R   0.963999 0.438654 0.277181 -0.071741
C223  C     C_R   0.036211 0.439747 0.887340 -0.086427
C224  C     C_R   0.563622 0.987713 0.886367 -0.131843
C225  C     C_R   0.960459 0.550432 0.886464 -0.143657
C226  C     C_R   0.928223 0.493772 0.388001 -0.089710
C227  C     C_R   0.523066 0.926535 0.388731 -0.110696
C228  C     C_R   0.060915 0.507313 0.385764 -0.129994
C229  C     C_R   0.480741 0.053478 0.384938 -0.130150
C230  C     C_R   0.498940 0.000218 0.900620 -0.127762
C231  C     C_R   0.000254 0.497398 0.900627 -0.115860
C232  C     C_R   0.996383 0.500028 0.400584 -0.148971
H1    H     H_    0.124912 0.684044 0.952540 0.157684
H2    H     H_    0.940325 0.753523 0.510251 0.169245
H3    H     H_    0.399753 0.789820 0.460178 0.161552
H4    H     H_    0.081035 0.269612 0.530261 0.190892
H5    H     H_    0.276753 0.085129 0.532365 0.192271
H6    H     H_    0.212011 0.596092 0.460988 0.183869
H7    H     H_    0.748213 0.940906 0.511788 0.192687
H8    H     H_    0.783325 0.409425 0.463921 0.191900
H9    H     H_    0.150589 0.753449 0.913347 0.173724
H10   H     H_    0.157895 0.060156 0.943845 0.166366
H11   H     H_    0.920069 0.173333 0.934902 0.158176
H12   H     H_    0.269236 0.077150 0.968892 0.106016
H13   H     H_    0.534216 0.623354 0.024395 0.186212
H14   H     H_    0.630464 0.529981 0.025577 0.215128
H15   H     H_    0.826050 0.076497 0.935604 0.195057
H16   H     H_    0.061743 0.154456 0.944448 0.144898
H17   H     H_    0.244689 0.849905 0.913302 0.204779
H18   H     H_    0.596503 0.312470 0.429290 0.183032
H19   H     H_    0.969574 0.880591 0.518810 0.201603
H20   H     H_    0.399854 0.693778 0.427242 0.180615
H21   H     H_    0.071260 0.162936 0.558338 0.218936
H22   H     H_    0.169054 0.070476 0.559350 0.221659
H23   H     H_    0.911683 0.278639 0.964046 0.108351
H24   H     H_    0.306195 0.596621 0.427770 0.184855
H25   H     H_    0.873574 0.974371 0.519292 0.203067
H26   H     H_    0.687466 0.411914 0.431429 0.179554
H27   H     H_    0.413042 0.831493 0.773925 0.237716
H28   H     H_    0.150766 0.583086 0.775667 0.237341
H29   H     H_    0.567308 0.164266 0.775287 0.238769
H30   H     H_    0.842706 0.386545 0.773745 0.236807
H31   H     H_    0.937564 0.324511 0.274510 0.238523
H32   H     H_    0.684425 0.976282 0.274436 0.239488
H33   H     H_    0.016067 0.683295 0.274247 0.237986
H34   H     H_    0.562706 0.749009 0.012571 0.184208
H35   H     H_    0.321799 0.945659 0.274466 0.239872
H36   H     H_    0.103734 0.779276 0.054796 0.356200
H37   H     H_    0.282489 0.160307 0.060909 0.362788
H38   H     H_    0.851162 0.310737 0.063716 0.370271
H39   H     H_    0.686832 0.897836 0.948416 0.356567
H40   H     H_    0.006470 0.789444 0.020990 0.382271
H41   H     H_    0.547693 0.300436 0.991287 0.356633
H42   H     H_    0.305732 0.444204 0.982104 0.360479
H43   H     H_    0.472404 0.731951 0.043954 0.383995
H44   H     H_    0.669820 0.167313 0.567733 0.362661
H45   H     H_    0.755183 0.562101 0.015241 0.182305
H46   H     H_    0.802021 0.605186 0.446893 0.363551
H47   H     H_    0.345774 0.810839 0.566510 0.377635
H48   H     H_    0.161542 0.402936 0.442820 0.368033
H49   H     H_    0.490046 0.248428 0.488703 0.369582
H50   H     H_    0.009846 0.717132 0.546237 0.395933
H51   H     H_    0.589891 0.700434 0.542657 0.360205
H52   H     H_    0.903107 0.349896 0.559315 0.381485
H53   H     H_    0.809792 0.298917 0.221103 0.361544
H54   H     H_    0.704984 0.848084 0.208877 0.348588
H55   H     H_    0.127196 0.723442 0.220689 0.366418
H56   H     H_    0.722284 0.085721 0.964954 0.190392
H57   H     H_    0.284032 0.054165 0.210643 0.353156
H58   H     H_    0.289047 0.830865 0.718591 0.365976
H59   H     H_    0.228421 0.490684 0.708983 0.350763
H60   H     H_    0.690441 0.176046 0.721405 0.369409
H61   H     H_    0.767846 0.476179 0.707658 0.351648
H62   H     H_    0.793666 0.590518 0.179322 0.365134
H63   H     H_    0.637107 0.773010 0.152766 0.368569
H64   H     H_    0.148702 0.412926 0.189856 0.368402
H65   H     H_    0.374220 0.159814 0.173691 0.364634
H66   H     H_    0.325867 0.108826 0.683888 0.367530
H67   H     H_    0.077071 0.266963 0.969620 0.103660
H68   H     H_    0.216211 0.389018 0.657724 0.371654
H69   H     H_    0.658573 0.890746 0.686356 0.366811
H70   H     H_    0.782432 0.586063 0.661802 0.369426
H71   H     H_    0.841472 0.673550 0.070689 0.389192
H72   H     H_    0.543648 0.728946 0.090218 0.391947
H73   H     H_    0.151454 0.334049 0.076896 0.399182
H74   H     H_    0.503556 0.246884 0.114512 0.424304
H75   H     H_    0.352295 0.177418 0.572549 0.377710
H76   H     H_    0.146478 0.274118 0.602066 0.396563
H77   H     H_    0.638322 0.813980 0.575649 0.378906
H78   H     H_    0.314550 0.876130 0.952367 0.137238
H79   H     H_    0.842412 0.709929 0.609436 0.405188
H80   H     H_    0.394454 0.116387 0.831180 0.335940
H81   H     H_    0.982163 0.324559 0.833813 0.343527
H82   H     H_    0.676602 0.920917 0.813080 0.368339
H83   H     H_    0.985615 0.684387 0.857756 0.316633
H84   H     H_    0.861199 0.586496 0.329498 0.332961
H85   H     H_    0.438070 0.827240 0.338963 0.333432
H86   H     H_    0.181778 0.480567 0.310983 0.368327
H87   H     H_    0.564621 0.124872 0.328942 0.334937
H88   H     H_    0.313435 0.102795 0.924548 0.340949
H89   H     H_    0.600868 0.211122 0.459893 0.175205
H90   H     H_    0.078945 0.273562 0.910844 0.346881
H91   H     H_    0.727060 0.921473 0.903790 0.378523
H92   H     H_    0.926181 0.689368 0.928046 0.380792
H93   H     H_    0.756532 0.520932 0.408720 0.376129
H94   H     H_    0.517641 0.796416 0.434982 0.365209
H95   H     H_    0.235549 0.475740 0.401541 0.386925
H96   H     H_    0.504721 0.204953 0.421325 0.385306
N1    N     N_R   0.492284 0.995675 0.817757 -0.352190
N2    N     N_R   0.993785 0.486170 0.817892 -0.363541
N3    N     N_R   0.985007 0.502453 0.317600 -0.352479
N4    N     N_R   0.501848 0.972843 0.317656 -0.365407
N5    N     N_R   0.972739 0.503714 0.181638 -0.339350
N6    N     N_R   0.503786 0.960527 0.181515 -0.353885
N7    N     N_R   0.492197 0.999674 0.681798 -0.340657
N8    N     N_R   0.999935 0.487071 0.682056 -0.343175
O1    O     O_3   1.000000 0.500000 0.999730 -0.550431
O2    O     O_R   0.000000 0.561020 0.441690 -0.607394
O3    O     O_2   0.207363 0.866813 0.568436 -0.129679
O4    O     O_3   0.344121 0.861937 0.560082 -0.482088
O5    O     O_2   0.310785 0.451330 0.476564 -0.213510
O6    O     O_2   0.299371 0.378539 0.436792 -0.198880
O7    O     O_3   0.184084 0.434589 0.456286 -0.602566
O8    O     O_2   0.379746 0.255540 0.437077 -0.195286
O9    O     O_2   0.422548 0.352338 0.466241 -0.201770
O10   O     O_3   0.466166 0.220984 0.474393 -0.619729
O11   O     O_2   0.147959 0.734849 0.569401 -0.176309
O12   O     O_2   0.090121 0.831572 0.543442 -0.267400
O13   O     O_R   0.438980 1.000000 0.441690 -0.612799
O14   O     O_3   0.050961 0.698269 0.535802 -0.609634
O15   O     O_2   0.538297 0.735275 0.480512 -0.316230
O16   O     O_2   0.573827 0.616711 0.498193 -0.151303
O17   O     O_3   0.554336 0.721897 0.530393 -0.471659
O18   O     O_2   0.853530 0.224054 0.569352 -0.157493
O19   O     O_2   0.933599 0.184866 0.534002 -0.258850
O20   O     O_3   0.928027 0.321850 0.545385 -0.568912
O21   O     O_2   0.984425 0.269492 0.202248 -0.147718
O22   O     O_2   0.927312 0.225711 0.242204 -0.228448
O23   O     O_3   0.844760 0.284690 0.207311 -0.403503
O24   O     O_R   0.000000 0.438980 0.441690 -0.609936
O25   O     O_2   0.744992 0.029902 0.209529 -0.114741
O26   O     O_2   0.780501 0.941276 0.242677 -0.224703
O27   O     O_3   0.725146 0.891442 0.199802 -0.424095
O28   O     O_2   0.950246 0.734364 0.202235 -0.149421
O29   O     O_2   0.003625 0.783540 0.242101 -0.220859
O30   O     O_3   0.090794 0.732384 0.206865 -0.388931
O31   O     O_2   0.274336 0.868420 0.207966 -0.134972
O32   O     O_2   0.223520 0.944986 0.242455 -0.232190
O33   O     O_3   0.270468 0.009370 0.200844 -0.409180
O34   O     O_2   0.456095 0.765227 0.702662 -0.151917
O35   O     O_R   1.000000 0.560630 0.057780 -0.565635
O36   O     O_2   0.385659 0.736474 0.741591 -0.220717
O37   O     O_3   0.322633 0.810951 0.705254 -0.391921
O38   O     O_2   0.173498 0.668149 0.711267 -0.134868
O39   O     O_2   0.248958 0.607768 0.743813 -0.225289
O40   O     O_3   0.225282 0.539181 0.700438 -0.423443
O41   O     O_2   0.521437 0.232372 0.703945 -0.157358
O42   O     O_2   0.587045 0.263396 0.743714 -0.226828
O43   O     O_3   0.656620 0.192946 0.707688 -0.386365
O44   O     O_2   0.829636 0.300962 0.708115 -0.142716
O45   O     O_2   0.750024 0.355370 0.740884 -0.231648
O46   O     O_R   0.439370 1.000000 0.057780 -0.574032
O47   O     O_3   0.773262 0.428574 0.698555 -0.419100
O48   O     O_2   0.861674 0.648502 0.145110 -0.479895
O49   O     O_R   0.829442 0.554292 0.171597 -0.773868
O50   O     O_2   0.516587 0.810770 0.164615 -0.570822
O51   O     O_R   0.624231 0.819680 0.143160 -0.678997
O52   O     O_2   0.093236 0.352575 0.153262 -0.485403
O53   O     O_R   0.117710 0.449151 0.179898 -0.778658
O54   O     O_2   0.498446 0.120818 0.177018 -0.566751
O55   O     O_R   0.384286 0.120349 0.160234 -0.697153
O56   O     O_2   0.392535 0.158613 0.647761 -0.499600
O57   O     O_R   1.000000 0.439370 0.057780 -0.582664
O58   O     O_R   0.356094 0.068859 0.675470 -0.775582
O59   O     O_2   0.093644 0.369089 0.672144 -0.589295
O60   O     O_R   0.181670 0.418623 0.646569 -0.683444
O61   O     O_2   0.593993 0.839780 0.649916 -0.496856
O62   O     O_R   0.630020 0.930741 0.677326 -0.776419
O63   O     O_2   0.905432 0.606891 0.675515 -0.588083
O64   O     O_R   0.816924 0.559112 0.649726 -0.689134
O65   O     O_2   0.850647 0.529018 0.066176 -0.299316
O66   O     O_2   0.787607 0.568317 0.105491 -0.219875
O67   O     O_3   0.877899 0.659381 0.083940 -0.452069
O68   O     O_R   0.560630 1.000000 0.057780 -0.594906
O69   O     O_2   0.524095 0.854426 0.061742 -0.335034
O70   O     O_2   0.633780 0.845129 0.088142 -0.218970
O71   O     O_3   0.521312 0.767415 0.101257 -0.486168
O72   O     O_2   0.147522 0.479700 0.077724 -0.241071
O73   O     O_2   0.187421 0.426805 0.118722 -0.192121
O74   O     O_3   0.108851 0.345885 0.087934 -0.484711
O75   O     O_2   0.484859 0.146153 0.075551 -0.232912
O76   O     O_2   0.387565 0.157747 0.107939 -0.170294
O77   O     O_3   0.517555 0.197789 0.120963 -0.484308
O78   O     O_2   0.350432 0.031000 0.571424 -0.300855
O79   O     O_R   0.500000 0.060630 0.557780 -0.603427
O80   O     O_2   0.301721 0.083689 0.611381 -0.239550
O81   O     O_3   0.392109 0.162168 0.584304 -0.485657
O82   O     O_2   0.059294 0.355323 0.570915 -0.328899
O83   O     O_2   0.170612 0.414306 0.586523 -0.209954
O84   O     O_3   0.116289 0.306501 0.613171 -0.502362
O85   O     O_2   0.647082 0.958805 0.572927 -0.285696
O86   O     O_2   0.690355 0.910171 0.614169 -0.220312
O87   O     O_3   0.599332 0.831393 0.587447 -0.478063
O88   O     O_2   0.933137 0.639955 0.574826 -0.331688
O89   O     O_2   0.825208 0.574318 0.590073 -0.218704
O90   O     O_R   0.939370 0.500000 0.557780 -0.602160
O91   O     O_3   0.877993 0.678992 0.618779 -0.494040
O92   O     O_2   0.311461 0.975340 0.847693 -0.477552
O93   O     O_R   0.351650 0.081544 0.830290 -0.733415
O94   O     O_2   0.138864 0.376658 0.846615 -0.495471
O95   O     O_R   0.036708 0.322937 0.831417 -0.722037
O96   O     O_2   0.683047 0.008588 0.847954 -0.557628
O97   O     O_R   0.628204 0.922973 0.822493 -0.769146
O98   O     O_2   0.872859 0.588030 0.828251 -0.502840
O99   O     O_R   0.942363 0.677406 0.845810 -0.709295
O100  O     O_2   0.816609 0.433246 0.350553 -0.501379
O101  O     O_R   0.500000 0.939370 0.557780 -0.568512
O102  O     O_R   0.829041 0.541437 0.329727 -0.723820
O103  O     O_2   0.605391 0.830427 0.347263 -0.451793
O104  O     O_R   0.488665 0.806499 0.336592 -0.737276
O105  O     O_2   0.169057 0.562327 0.347413 -0.560814
O106  O     O_R   0.134863 0.469439 0.320560 -0.768189
O107  O     O_2   0.398012 0.129042 0.338998 -0.451567
O108  O     O_R   0.514089 0.144755 0.325728 -0.733472
O109  O     O_2   0.314280 0.986182 0.902682 -0.615630
O110  O     O_R   0.362488 0.094642 0.916118 -0.767280
O111  O     O_2   0.128994 0.394884 0.914371 -0.556191
O112  O     O_3   0.500000 1.000000 0.999730 -0.545300
O113  O     O_R   0.060630 0.500000 0.557780 -0.570559
O114  O     O_R   0.048269 0.309022 0.900423 -0.800883
O115  O     O_2   0.652176 0.023048 0.916844 -0.606092
O116  O     O_R   0.679514 0.920067 0.893865 -0.755742
O117  O     O_2   0.859937 0.626810 0.894528 -0.548293
O118  O     O_R   0.957831 0.649681 0.920167 -0.802476
O119  O     O_2   0.855824 0.443698 0.421352 -0.622437
O120  O     O_R   0.800264 0.531440 0.397296 -0.759186
O121  O     O_2   0.600743 0.830600 0.401227 -0.528434
O122  O     O_R   0.497967 0.840589 0.425412 -0.840639
O123  O     O_2   0.141952 0.556970 0.416511 -0.618795
O124  O     O_R   0.854090 0.585380 0.984510 -0.644518
O125  O     O_R   0.189264 0.466148 0.391409 -0.739448
O126  O     O_2   0.412884 0.160946 0.391840 -0.494671
O127  O     O_R   0.517590 0.153931 0.415090 -0.804779
O128  O     O_R   0.414620 0.854090 0.984510 -0.630367
O129  O     O_R   0.145910 0.414620 0.984510 -0.584900
O130  O     O_R   0.585380 0.145910 0.984510 -0.606858
O131  O     O_R   0.145910 0.585380 0.984510 -0.616871
O132  O     O_R   0.585380 0.854090 0.984510 -0.649073
O133  O     O_R   0.854090 0.414620 0.984510 -0.641065
O134  O     O_R   0.414620 0.145910 0.984510 -0.606546
O135  O     O_R   0.354090 0.085380 0.484510 -0.609968
O136  O     O_3   0.500000 1.000000 0.499730 -0.542721
O137  O     O_R   0.914620 0.354090 0.484510 -0.615111
O138  O     O_R   0.645910 0.914620 0.484510 -0.648353
O139  O     O_R   0.085380 0.645910 0.484510 -0.622803
O140  O     O_R   0.645910 0.085380 0.484510 -0.618385
O141  O     O_R   0.085380 0.354090 0.484510 -0.639007
O142  O     O_R   0.354090 0.914620 0.484510 -0.636559
O143  O     O_R   0.914620 0.645910 0.484510 -0.650975
O144  O     O_R   0.085720 0.353770 0.014950 -0.642457
O145  O     O_R   0.646230 0.085720 0.014950 -0.605692
O146  O     O_R   0.914280 0.646230 0.014950 -0.563028
O147  O     O_3   0.000000 0.500000 0.499730 -0.540368
O148  O     O_R   0.353770 0.914280 0.014950 -0.621186
O149  O     O_R   0.914280 0.353770 0.014950 -0.615574
O150  O     O_R   0.353770 0.085720 0.014950 -0.617369
O151  O     O_R   0.085720 0.646230 0.014950 -0.578942
O152  O     O_R   0.646230 0.914280 0.014950 -0.566088
O153  O     O_R   0.585720 0.853770 0.514950 -0.565572
O154  O     O_R   0.146230 0.585720 0.514950 -0.589724
O155  O     O_R   0.414280 0.146230 0.514950 -0.624259
O156  O     O_R   0.853770 0.414280 0.514950 -0.608132
O157  O     O_R   0.414280 0.853770 0.514950 -0.569450
O158  O     O_R   0.061020 0.500000 0.941690 -0.604720
O159  O     O_R   0.853770 0.585720 0.514950 -0.568008
O160  O     O_R   0.585720 0.146230 0.514950 -0.632706
O161  O     O_R   0.146230 0.414280 0.514950 -0.580113
O162  O     O_2   0.545270 0.112911 0.818609 -0.525763
O163  O     O_2   0.885130 0.418502 0.817687 -0.511602
O164  O     O_2   0.438975 0.878636 0.817708 -0.491226
O165  O     O_2   0.101319 0.555577 0.819016 -0.511615
O166  O     O_2   0.010289 0.628754 0.317922 -0.521864
O167  O     O_2   0.374978 0.958861 0.318053 -0.508844
O168  O     O_2   0.960126 0.376088 0.317932 -0.492421
O169  O     O_R   0.500000 0.061020 0.941690 -0.584328
O170  O     O_2   0.628890 0.985544 0.317932 -0.505285
O171  O     O_2   0.921107 0.387294 0.180583 -0.416451
O172  O     O_2   0.627432 0.987244 0.180667 -0.409038
O173  O     O_2   0.022678 0.621040 0.180543 -0.416723
O174  O     O_2   0.380634 0.932794 0.179951 -0.398874
O175  O     O_2   0.423072 0.893065 0.679897 -0.414868
O176  O     O_2   0.092907 0.573694 0.681702 -0.414662
O177  O     O_2   0.561466 0.106332 0.681069 -0.416863
O178  O     O_2   0.907406 0.400197 0.680083 -0.414430
O179  O     O_2   0.191290 0.616160 0.058220 -0.167982
O180  O     O_R   0.938980 0.500000 0.941690 -0.629807
O181  O     O_2   0.226388 0.733888 0.077218 -0.151268
O182  O     O_3   0.101439 0.725161 0.055983 -0.478403
O183  O     O_2   0.431825 0.257766 0.043237 -0.116504
O184  O     O_2   0.324503 0.302060 0.066443 -0.180498
O185  O     O_3   0.335862 0.162918 0.058629 -0.465697
O186  O     O_2   0.736050 0.439541 0.040454 -0.265069
O187  O     O_2   0.707642 0.335900 0.068840 -0.156386
O188  O     O_3   0.841677 0.362312 0.058828 -0.484065
O189  O     O_2   0.808570 0.964022 0.991929 -0.215509
O190  O     O_2   0.833970 0.895610 0.951677 -0.242584
O191  O     O_R   0.500000 0.938980 0.941690 -0.650208
O192  O     O_3   0.703129 0.937780 0.960134 -0.588470
O193  O     O_2   0.957256 0.754489 0.973744 -0.353695
O194  O     O_2   0.930104 0.878761 0.988533 -0.177806
O195  O     O_3   0.953595 0.781939 0.023336 -0.484742
O196  O     O_2   0.587199 0.238022 0.051978 -0.165121
O197  O     O_2   0.596766 0.363467 0.035468 -0.199744
O198  O     O_3   0.536204 0.267327 0.006000 -0.502343
O199  O     O_2   0.247336 0.430364 0.044547 -0.174757
O200  O     O_2   0.369974 0.406203 0.028459 -0.179960
O201  O     O_3   0.278072 0.464934 0.996952 -0.502250
O202  O     O_R   0.561020 1.000000 0.441690 -0.616561
O203  O     O_2   0.351857 0.820233 0.065351 -0.186171
O204  O     O_2   0.353396 0.685982 0.060919 -0.185776
O205  O     O_3   0.440674 0.760799 0.032292 -0.585763
O206  O     O_2   0.703934 0.055577 0.535385 -0.345442
O207  O     O_2   0.826581 0.088477 0.547295 -0.178872
O208  O     O_3   0.720630 0.152854 0.571375 -0.413521
O209  O     O_2   0.698595 0.533616 0.495255 -0.212923
O210  O     O_2   0.657103 0.600218 0.456549 -0.218429
O211  O     O_3   0.792138 0.565118 0.459401 -0.600473
O212  O     O_2   0.256431 0.945340 0.534536 -0.306645
S1    S     S_3+6 0.188490 0.697719 0.054689 0.150166
S2    S     S_3+6 0.717838 0.592175 0.475886 0.075354
S3    S     S_3+6 0.261437 0.870702 0.546614 0.120579
S4    S     S_3+6 0.264810 0.395601 0.462628 0.080440
S5    S     S_3+6 0.396771 0.274232 0.464919 0.077258
S6    S     S_3+6 0.120101 0.755001 0.542851 0.087080
S7    S     S_3+6 0.584431 0.697984 0.500599 0.115169
S8    S     S_3+6 0.881204 0.243105 0.542641 0.096124
S9    S     S_3+6 0.926285 0.285393 0.222056 0.152304
S10   S     S_3+6 0.724614 0.958717 0.222282 0.160694
S11   S     S_3+6 0.009914 0.724167 0.221857 0.159511
S12   S     S_3+6 0.351814 0.247202 0.046867 0.154143
S13   S     S_3+6 0.282095 0.940275 0.222073 0.152730
S14   S     S_3+6 0.400268 0.794280 0.721409 0.158675
S15   S     S_3+6 0.191578 0.595611 0.723425 0.154930
S16   S     S_3+6 0.576942 0.205514 0.723121 0.156181
S17   S     S_3+6 0.807995 0.371622 0.721043 0.150013
S18   S     S_3+6 0.858728 0.571598 0.091114 0.105164
S19   S     S_3+6 0.552215 0.847058 0.089037 0.076512
S20   S     S_3+6 0.125534 0.430318 0.099694 0.131431
S21   S     S_3+6 0.466072 0.138611 0.103869 0.132345
S22   S     S_3+6 0.368472 0.078041 0.594598 0.079944
S23   S     S_3+6 0.756326 0.362395 0.047283 0.126227
S24   S     S_3+6 0.099630 0.380628 0.594699 0.078272
S25   S     S_3+6 0.625267 0.915961 0.596646 0.098579
S26   S     S_3+6 0.895634 0.608995 0.598338 0.088690
S27   S     S_3+6 0.780382 0.906638 0.973467 0.065039
S28   S     S_3+6 0.917522 0.798979 0.993891 0.091805
S29   S     S_3+6 0.601216 0.283760 0.028222 0.131239
S30   S     S_3+6 0.290713 0.405416 0.021469 0.123443
S31   S     S_3+6 0.358813 0.757471 0.046501 0.125235
S32   S     S_3+6 0.751772 0.118686 0.543035 0.113314
Zn1   Zn    Zn3+2 0.000000 0.586680 0.021470 1.172213
Zn2   Zn    Zn3+2 0.500000 0.913510 0.977990 1.034866
Zn3   Zn    Zn3+2 0.086490 0.500000 0.977990 1.078330
Zn4   Zn    Zn3+2 0.500000 0.086490 0.977990 1.089501
Zn5   Zn    Zn3+2 0.413510 1.000000 0.477990 1.087072
Zn6   Zn    Zn3+2 0.000000 0.413510 0.477990 1.084251
Zn7   Zn    Zn3+2 0.586490 1.000000 0.477990 1.069022
Zn8   Zn    Zn3+2 1.000000 0.586490 0.477990 1.073142
Zn9   Zn    Zn3+2 0.413320 1.000000 0.021470 1.117174
Zn10  Zn    Zn3+2 1.000000 0.413320 0.021470 1.086793
Zn11  Zn    Zn3+2 0.586680 1.000000 0.021470 1.168264
Zn12  Zn    Zn3+2 0.500000 0.086680 0.521470 1.098667
Zn13  Zn    Zn3+2 0.913320 0.500000 0.521470 1.139929
Zn14  Zn    Zn3+2 0.500000 0.913320 0.521470 1.167035
Zn15  Zn    Zn3+2 0.086680 0.500000 0.521470 1.164087
Zn16  Zn    Zn3+2 0.913510 0.500000 0.977990 1.028919

loop_
_geom_bond_atom_site_label_1
_geom_bond_atom_site_label_2
_ccdc_geom_bond_type
H50   O14   S    
O85   S25   D    
O29   S11   D    
C10   C85   S    
C122  O170  S    
C31   H56   S    
C129  O59   D    
H65   O55   S    
C11   O145  A    
C90   H28   S    
C27   H12   S    
C69   C78   A    
C101  C200  A    
O142  Zn5   S    
C138  O103  D    
C198  S26   S    
C4    N1    S    
O39   S15   D    
C180  O177  S    
O78   S22   D    
C111  S7    S    
O112  Zn4   S    
C41   H7    S    
C187  C196  A    
C20   O139  A    
C92   C109  A    
H66   O58   S    
O66   S18   D    
C184  C193  A    
C94   C111  A    
C108  C109  A    
H53   O23   S    
C12   O151  A    
O138  Zn7   S    
C53   H19   S    
O152  Zn11  S    
C60   H26   S    
C190  C212  A    
C48   H14   S    
C36   C53   A    
O188  S23   S    
C188  C210  A    
C140  C220  S    
C38   C55   A    
C12   O131  A    
C78   C96   A    
O32   S13   D    
C9    O128  A    
C35   C200  A    
H93   O120  S    
C22   C91   S    
C23   C89   S    
C58   H24   S    
O81   S22   S    
O192  S27   S    
O20   S8    S    
O112  Zn9   S    
C45   H11   S    
C85   C103  A    
C93   C110  A    
C106  C111  A    
O124  Zn16  S    
C35   C178  A    
C37   C75   A    
O79   Zn12  S    
H68   O60   S    
O30   S11   S    
C159  S17   S    
H84   O102  S    
C29   H34   S    
C205  O68   A    
C174  O172  S    
O187  S23   D    
C110  S6    S    
C16   O150  A    
C32   H67   S    
C143  O115  D    
H96   O127  S    
C73   C74   A    
C24   C120  A    
C40   C58   A    
C117  O164  S    
H60   O43   S    
O160  Zn12  S    
C157  S15   S    
C19   O138  A    
C42   H8    S    
C179  N8    A    
O101  Zn14  S    
C193  C199  A    
C194  C201  A    
C25   C88   S    
C134  C215  S    
H37   O185  S    
C16   C80   S    
C28   C66   A    
C180  N7    A    
H73   O74   S    
O144  Zn10  S    
C39   C56   A    
O189  S27   D    
C149  O127  S    
O156  Zn13  S    
C118  O165  S    
O44   S17   D    
O14   S6    S    
O82   S24   D    
C136  O99   S    
O161  Zn15  S    
C97   C103  A    
C19   C94   S    
H76   O84   S    
C124  C222  A    
C101  C158  A    
C83   C100  A    
C129  C187  S    
C199  C204  S    
O87   S25   S    
C107  C110  A    
C185  C209  A    
C117  N1    A    
C122  N4    A    
C206  O79   A    
C47   H13   S    
C181  N8    A    
C121  N3    A    
H64   O53   S    
C44   C50   A    
O69   S19   D    
C215  C224  A    
O197  S29   D    
O15   S7    D    
C125  O50   D    
C144  O117  D    
O209  S2    D    
C126  O53   S    
O83   S24   D    
H88   O110  S    
C151  S9    S    
C11   C84   S    
C133  O94   D    
O139  Zn8   S    
C195  S22   S    
C63   C84   A    
C1    O180  A    
C79   H27   S    
H83   O99   S    
C32   C62   A    
C133  C214  S    
C17   O135  A    
C15   O149  A    
C161  C174  A    
O5    S4    D    
C65   C82   A    
C162  C169  A    
C226  C232  A    
O190  S27   D    
C19   O153  A    
C34   H89   S    
C3    C156  S    
C127  C185  S    
C46   C172  A    
H75   O81   S    
C182  C208  A    
O25   S10   D    
C17   O155  A    
O112  Zn11  S    
O149  Zn10  S    
C79   C155  A    
C102  S29   S    
O179  S1    D    
C145  O120  S    
C33   C61   A    
C168  C181  A    
C194  S21   S    
C137  C217  S    
C26   C69   A    
O68   Zn11  S    
O143  Zn8   S    
C52   H18   S    
O206  S32   D    
C141  C221  S    
H61   O47   S    
O159  Zn13  S    
O71   S19   S    
O70   S19   D    
C56   H22   S    
C80   C97   A    
C8    C83   S    
C84   C102  A    
C160  C173  A    
C153  S11   S    
C10   O129  A    
C148  C228  S    
C202  C206  S    
C86   C104  A    
C44   H10   S    
C97   S12   S    
C42   C60   A    
C146  C153  A    
C100  S28   S    
C220  C229  A    
C29   C47   A    
C30   C48   A    
C103  S30   S    
C109  S5    S    
C116  C211  A    
C2    C68   A    
H44   O208  S    
C118  C189  A    
C13   C57   A    
O154  Zn15  S    
O131  Zn3   S    
C135  C152  A    
C42   C70   A    
O13   Zn5   S    
H92   O118  S    
C163  C170  A    
C173  N5    A    
C52   C60   A    
O146  Zn1   S    
C112  O191  A    
C27   C44   A    
H77   O87   S    
C147  O122  S    
C47   C48   A    
O183  S12   D    
O77   S21   S    
O1    Zn10  S    
C221  C230  A    
C121  C222  A    
C219  C228  A    
C152  C161  A    
C14   O132  A    
C41   C71   A    
O86   S25   D    
H58   O37   S    
C167  O24   A    
H81   O95   S    
C70   C77   A    
O42   S16   D    
C18   C95   S    
C192  S19   S    
C137  O100  D    
C68   C170  A    
C72   C75   A    
H90   O114  S    
H38   O188  S    
C37   H3    S    
C132  O93   S    
H74   O77   S    
O1    Zn1   S    
O47   S17   S    
O150  Zn9   S    
C154  C163  A    
O113  Zn15  S    
H47   O4    S    
C205  O46   A    
C176  O174  S    
H62   O49   S    
C31   C63   A    
O211  S2    S    
O88   S26   D    
C196  S24   S    
C157  C165  A    
C143  C224  S    
C147  C227  S    
C162  C175  A    
C139  O105  D    
C18   O137  A    
O153  Zn14  S    
C55   H21   S    
C148  O123  D    
O134  Zn4   S    
C146  H33   S    
C116  N2    A    
O198  S29   S    
O27   S10   S    
O147  Zn8   S    
C87   C105  A    
C168  C172  A    
C160  C169  A    
C206  O101  A    
C152  S10   S    
C34   C77   A    
C54   C58   A    
O202  Zn7   S    
C108  S4    S    
C197  C202  A    
C113  C159  A    
H46   O211  S    
O140  Zn7   S    
C7    N4    S    
C24   C150  A    
C29   C65   A    
C7    C220  A    
C119  O166  S    
H87   O108  S    
O41   S16   D    
C165  C179  A    
C18   O156  A    
C144  C225  S    
C166  C180  A    
C37   C54   A    
C46   C189  A    
O45   S17   D    
H39   O192  S    
C136  O98   D    
C142  C223  S    
C39   H5    S    
C121  O168  S    
C26   H1    S    
C38   C74   A    
C174  N6    A    
C130  O61   D    
C96   S1    S    
C40   C72   A    
O210  S2    D    
C124  C151  A    
C73   C92   A    
C79   C178  A    
C156  O13   A    
O129  Zn3   S    
C105  S32   S    
C120  O167  S    
O200  S30   D    
C138  O104  S    
C217  C226  A    
C2    C135  A    
C10   O144  A    
C149  C229  S    
C90   C157  A    
O26   S10   D    
C116  O163  S    
C123  O49   S    
H40   O195  S    
H63   O51   S    
C23   O157  A    
C106  S2    S    
C207  O90   A    
H55   O30   S    
C175  O173  S    
H82   O97   S    
C113  H30   S    
C39   C73   A    
C27   C67   A    
C214  C223  A    
C75   C89   A    
C139  C219  S    
H95   O125  S    
C131  O64   S    
C77   C87   A    
H72   O71   S    
C54   H20   S    
C147  O121  D    
C137  O102  S    
O157  Zn14  S    
C167  O2    A    
C209  N6    S    
O84   S24   S    
C193  S20   S    
O1    Zn3   S    
C55   C56   A    
O181  S1    D    
H54   O27   S    
C35   C171  A    
C82   C99   A    
C28   H23   S    
C185  C194  A    
C183  C192  A    
C3    C229  A    
O9    S5    D    
C167  C232  S    
O4    S3    S    
O155  Zn12  S    
C148  O125  S    
C128  C186  S    
C179  O176  S    
O199  S30   D    
C20   O154  A    
O147  Zn6   S    
C38   H4    S    
C71   C76   A    
C50   H16   S    
O72   S20   D    
C81   C98   A    
C95   C114  A    
C46   C211  A    
C115  O162  S    
O1    Zn16  S    
C112  C230  S    
O191  Zn2   S    
O205  S31   S    
C140  O107  D    
C213  C221  A    
C141  O110  S    
C30   H45   S    
C149  O126  D    
C192  C201  A    
C155  S14   S    
O136  Zn5   S    
O21   S9    D    
O80   S22   D    
H86   O106  S    
O137  Zn6   S    
C63   C66   A    
O18   S8    D    
C123  O48   D    
C129  O60   S    
C31   C49   A    
C142  O111  D    
C25   O143  A    
C223  C231  A    
C9    O148  A    
C57   C222  A    
C2    C122  A    
C53   C59   A    
O207  S32   D    
C120  N4    A    
H71   O67   S    
O46   Zn9   S    
C197  S25   S    
O196  S29   D    
C204  O35   A    
C144  O118  S    
C113  C211  A    
C195  C202  A    
C158  S16   S    
H70   O64   S    
C132  O92   D    
C124  H31   S    
O34   S14   D    
C74   C91   A    
C16   O134  A    
O184  S12   D    
C64   C83   A    
C224  C230  A    
C212  N8    S    
C207  O113  A    
C127  O54   D    
C45   C49   A    
O195  S28   S    
O38   S15   D    
C21   O160  A    
C6    N3    S    
O147  Zn15  S    
O145  Zn11  S    
C196  C203  A    
C49   H15   S    
C134  O96   D    
O89   S26   D    
C72   C93   A    
C115  N1    A    
C104  S31   S    
C145  O119  D    
C186  C210  A    
H69   O62   S    
C107  S3    S    
C182  C191  A    
C25   O159  A    
C3    C227  A    
C218  C227  A    
C228  C232  A    
C117  C178  A    
C158  C166  A    
C186  C195  A    
O75   S21   D    
C131  C190  S    
C5    N2    S    
O31   S13   D    
C128  O58   S    
H51   O17   S    
C4    C213  A    
O158  Zn3   S    
C91   C108  A    
C67   C80   A    
C177  N7    A    
C21   O140  A    
O24   Zn6   S    
O148  Zn9   S    
C7    C218  A    
C98   S23   S    
C33   C51   A    
C145  C226  S    
C14   O152  A    
C216  C225  A    
C184  C208  A    
C153  C162  A    
C64   C65   A    
O186  S23   D    
C191  S18   S    
C98   C102  A    
C204  O57   A    
C66   C81   A    
C114  S8    S    
O194  S28   D    
H42   O201  S    
C188  C197  A    
C43   C51   A    
C5    C214  A    
C210  N7    S    
O40   S15   S    
O136  Zn7   S    
C177  O175  S    
H48   O7    S    
C61   C86   A    
C24   C68   A    
O28   S11   D    
O23   S9    S    
C187  C212  A    
O185  S12   S    
C198  C203  A    
C59   H25   S    
C181  O178  S    
C36   H2    S    
O74   S20   S    
H94   O122  S    
C20   C93   S    
C21   C87   S    
O130  Zn4   S    
C101  H29   S    
C125  C183  S    
C125  O51   S    
C126  C184  S    
O17   S7    S    
C23   O142  A    
C126  O52   D    
C142  O114  S    
C119  N3    A    
C15   C81   S    
C71   C94   A    
C43   H9    S    
C99   S27   S    
C133  O95   S    
H49   O10   S    
C225  C231  A    
C62   C67   A    
C191  C199  A    
C123  C182  S    
O57   Zn10  S    
O193  S28   D    
C130  C188  S    
H43   O205  S    
O133  Zn16  S    
O6    S4    D    
C159  C168  A    
O67   S18   S    
C22   O141  A    
O147  Zn13  S    
C154  S13   S    
C33   H78   S    
C1    C231  S    
O19   S8    D    
C36   C76   A    
O3    S3    D    
O65   S18   D    
C6    C217  A    
O91   S26   S    
C12   C78   S    
C40   H6    S    
C76   C88   A    
H41   O198  S    
C190  C198  A    
C165  C172  A    
C208  N5    S    
C166  C171  A    
C4    C215  A    
O136  Zn14  S    
O76   S21   D    
C156  O202  A    
C89   C107  A    
H59   O40   S    
C17   C92   S    
C13   C146  A    
O136  Zn12  S    
C163  C176  A    
H79   O91   S    
C13   C119  A    
C26   C43   A    
C57   C169  A    
C134  O97   S    
C130  O62   S    
C62   C85   A    
C28   C45   A    
C105  C114  A    
O204  S31   D    
C41   C59   A    
C176  N6    A    
H36   O182  S    
O11   S6    D    
O132  Zn2   S    
C5    C216  A    
C203  C207  S    
C22   O161  A    
O43   S16   S    
O16   S7    D    
O180  Zn16  S    
O169  Zn4   S    
O112  Zn2   S    
C9    C86   S    
C88   C106  A    
O33   S13   S    
C99   C100  A    
C8    O124  A    
C15   O133  A    
O128  Zn2   S    
O182  S1    S    
C112  O169  A    
C173  O171  S    
O2    Zn8   S    
O141  Zn6   S    
C32   C50   A    
C30   C64   A    
C118  N2    A    
O90   Zn13  S    
C161  C170  A    
O10   S5    S    
C127  O55   S    
C128  O56   D    
C11   O130  A    
O12   S6    D    
C1    O158  A    
C143  O116  S    
H91   O116  S    
C34   C52   A    
O151  Zn1   S    
C61   C69   A    
H85   O104  S    
C201  C205  S    
O212  S3    D    
O201  S30   S    
O73   S20   D    
C132  C213  S    
O36   S14   D    
C155  C164  A    
C183  C209  A    
C139  O106  S    
C115  C200  A    
H57   O33   S    
O7    S4    S    
O208  S32   S    
H80   O93   S    
C151  C160  A    
C96   C104  A    
C70   C95   A    
O22   S9    D    
O35   Zn1   S    
H52   O20   S    
C8    O146  A    
C51   H17   S    
O203  S31   D    
C175  N5    A    
C131  O63   D    
C6    C219  A    
C140  O108  S    
C135  H32   S    
C141  O109  D    
O37   S14   S    
C138  C218  S    
C150  C154  A    
C14   C82   S    
C164  C171  A    
O8    S5    D    
C150  H35   S    
O135  Zn5   S    
C164  C177  A    
C136  C216  S    
C90   C189  A    
