data_mof_unit_45931.cif
_audit_creation_date              2012-12-10T17:42:40-0500
_audit_creation_method            fapswitch 2.2
_symmetry_space_group_name_H-M    P1
_symmetry_Int_Tables_number       1
_space_group_crystal_system       triclinic
_cell_length_a                    9.877791
_cell_length_b                    10.722982
_cell_length_c                    13.059777
_cell_angle_alpha                 91.66622
_cell_angle_beta                  70.371244
_cell_angle_gamma                 89.601541
_cell_volume                      1302.14306986

loop_
_atom_site_label
_atom_site_type_symbol
_atom_type_description
_atom_site_fract_x
_atom_site_fract_y
_atom_site_fract_z
_atom_type_partial_charge
C1    C     C_R   0.501893 0.739975 0.492509 0.866295
C2    C     C_R   0.430297 0.433208 0.984251 0.056546
C3    C     C_R   0.467066 0.419561 0.870660 0.031691
C4    C     C_R   0.543356 0.432183 0.027453 0.083589
C5    C     C_R   0.678334 0.377652 0.967021 0.170831
C6    C     C_R   0.703218 0.336500 0.859916 -0.228126
C7    C     C_R   0.600286 0.360129 0.811159 -0.177968
C8    C     C_R   0.528234 0.492950 0.126062 -0.250637
C9    C     C_R   0.758099 0.410535 0.122197 -0.227020
C10   C     C_R   0.367978 0.462054 0.821350 -0.160009
C11   C     C_R   0.258084 0.889481 0.462901 -0.165725
C12   C     C_R   0.420198 0.489727 0.704226 0.850689
C13   C     C_R   0.124964 0.950991 0.492259 -0.146291
C14   C     C_R   0.103806 0.063829 0.550886 -0.162443
C15   C     C_R   0.219699 0.120792 0.570170 -0.153466
C16   C     C_R   0.358899 0.064611 0.530684 0.095581
C17   C     C_R   0.372439 0.940560 0.492629 0.099203
C18   C     C_R   0.499716 0.873792 0.487138 -0.125150
C19   C     C_R   0.619643 0.936245 0.495238 -0.222986
C20   C     C_R   0.614705 0.063226 0.509622 -0.223016
C21   C     C_R   0.486550 0.128373 0.524083 -0.129517
C22   C     C_R   0.798818 0.671582 0.637203 -0.154883
C23   C     C_R   0.494932 0.260954 0.510778 0.876538
C24   C     C_R   0.839820 0.755535 0.704114 -0.206566
C25   C     C_R   0.979626 0.753841 0.704616 -0.198995
C26   C     C_R   0.079367 0.668661 0.637712 -0.114422
C27   C     C_R   0.042636 0.584780 0.566678 0.186026
C28   C     C_R   0.897834 0.585224 0.566649 0.170247
C29   C     C_R   0.955934 0.415436 0.439594 -0.148189
C30   C     C_R   0.098735 0.414656 0.440762 -0.133922
C31   C     C_R   0.579742 0.497859 0.295249 0.876441
C32   C     C_R   0.785189 0.366185 0.015243 -0.191734
C33   C     C_R   0.628149 0.473720 0.177915 -0.059240
C34   C     C_R   0.222332 0.485115 0.887850 -0.028881
C35   C     C_R   0.181860 0.472515 0.999804 -0.277568
C36   C     C_R   0.282113 0.441281 0.049177 0.168830
H1    H     H_    0.836181 0.392897 0.161931 0.149420
H2    H     H_    0.270204 0.804056 0.414561 0.162373
H3    H     H_    0.037316 0.909454 0.471846 0.138839
H4    H     H_    0.998815 0.109061 0.578571 0.138949
H5    H     H_    0.198781 0.208058 0.616879 0.190935
H6    H     H_    0.712225 0.110283 0.507765 0.165713
H7    H     H_    0.924436 0.346495 0.390175 0.145435
H8    H     H_    0.688232 0.676348 0.645172 0.208692
H9    H     H_    0.761788 0.820922 0.757281 0.151447
H10   H     H_    0.010646 0.817610 0.758294 0.147017
H11   H     H_    0.182807 0.668480 0.646297 0.197919
H12   H     H_    0.804156 0.291167 0.812516 0.171379
H13   H     H_    0.174458 0.343962 0.394105 0.165850
H14   H     H_    0.887169 0.320196 0.971660 0.166284
H15   H     H_    0.437231 0.554887 0.164107 0.141692
H16   H     H_    0.068974 0.481093 0.048448 0.137760
H17   H     H_    0.624250 0.326653 0.727999 0.177542
H18   H     H_    0.718434 0.887327 0.489544 0.170079
N1    N     N_R   0.856860 0.501200 0.500990 -0.117085
N2    N     N_R   0.142450 0.501280 0.501020 -0.115690
O1    O     O_R   0.385310 0.683220 0.500000 -0.654201
O2    O     O_R   0.614640 0.683250 0.500010 -0.636372
O3    O     O_R   0.328400 0.499950 0.653610 -0.583803
O4    O     O_R   0.557730 0.499970 0.653620 -0.636275
O5    O     O_R   0.385360 0.316750 0.499990 -0.615409
O6    O     O_R   0.614690 0.316780 0.500000 -0.627611
O7    O     O_R   0.442270 0.500030 0.346380 -0.618159
O8    O     O_R   0.671600 0.500050 0.346390 -0.610472
Zn1   Zn    Zn3+2 0.346880 0.499980 0.499990 0.942088
Zn2   Zn    Zn3+2 0.653120 0.500020 0.500010 0.919969
C37   C     C_2   0.103926 0.510783 0.845808 0.391285
H19   H     H_    0.033347 0.591176 0.877483 0.059063
O9    O     O_2   0.076433 0.436552 0.783170 -0.578032
C38   C     C_3   0.223029 0.388806 0.162395 -0.420920
C39   C     C_3   0.263786 0.250709 0.160888 -0.843836
H20   H     H_    0.204889 0.210236 0.240503 0.236205
H21   H     H_    0.234669 0.198166 0.096914 0.261180
H22   H     H_    0.380778 0.238906 0.145349 0.266400
H23   H     H_    0.256978 0.441517 0.222840 0.213451
H24   H     H_    0.103652 0.395730 0.193790 0.195144

loop_
_geom_bond_atom_site_label_1
_geom_bond_atom_site_label_2
_ccdc_geom_bond_type
O7    Zn1   S    
C16   C21   A    
C35   C36   A    
C4    C8    A    
C1    C18   S    
C6    H12   S    
C24   H9    S    
C34   C35   A    
C3    C7    A    
C5    C6    A    
N2    Zn1   S    
C18   C19   A    
C9    C32   A    
C12   O3    A    
O2    Zn2   S    
C23   O6    A    
C22   H8    S    
C19   C20   A    
C16   C17   A    
C31   C33   S    
C38   C39   S    
C5    C32   A    
O4    Zn2   S    
C22   C28   A    
C13   C14   A    
C29   H7    S    
C9    C33   A    
C28   N1    A    
C36   C38   S    
O6    Zn2   S    
C37   H19   S    
C31   O7    A    
C24   C25   A    
C15   H5    S    
C39   H21   S    
C27   N2    A    
C29   N1    A    
C25   C26   A    
C30   N2    A    
C37   O9    D    
O8    Zn2   S    
C11   H2    S    
C2    C4    A    
C29   C30   A    
C1    O1    A    
C9    H1    S    
C17   C18   A    
C26   C27   A    
C10   C34   A    
C8    H15   S    
C32   H14   S    
C10   C12   S    
C26   H11   S    
C19   H18   S    
C30   H13   S    
C21   C23   S    
C38   H24   S    
C22   C24   A    
C7    H17   S    
C38   H23   S    
N1    Zn2   S    
C2    C36   A    
C11   C17   A    
C31   O8    A    
O1    Zn1   S    
C4    C5    A    
C34   C37   S    
C39   H22   S    
C20   H6    S    
C6    C7    A    
C2    C3    A    
C39   H20   S    
C3    C10   A    
C1    O2    A    
O3    Zn1   S    
C11   C13   A    
C8    C33   A    
C13   H3    S    
C14   H4    S    
C12   O4    A    
O5    Zn1   S    
C23   O5    A    
C20   C21   A    
C35   H16   S    
C14   C15   A    
C25   H10   S    
C15   C16   A    
C27   C28   A    
