data_mof_unit_15327.cif
_audit_creation_date              2012-12-10T18:03:58-0500
_audit_creation_method            fapswitch 2.2
_symmetry_space_group_name_H-M    P1
_symmetry_Int_Tables_number       1
_space_group_crystal_system       monoclinic
_cell_length_a                    10.831886
_cell_length_b                    9.531796
_cell_length_c                    10.87327
_cell_angle_alpha                 90.0
_cell_angle_beta                  90.187244
_cell_angle_gamma                 90.0
_cell_volume                      1122.63007543

loop_
_atom_site_label
_atom_site_type_symbol
_atom_type_description
_atom_site_fract_x
_atom_site_fract_y
_atom_site_fract_z
_atom_type_partial_charge
C1    C     C_R   0.262105 0.499966 0.499890 0.786642
C2    C     C_R   0.737895 0.499966 0.500110 0.786642
C3    C     C_R   0.402778 0.074320 0.452119 -0.032855
C4    C     C_R   0.597222 0.074320 0.547881 -0.032856
C5    C     C_R   0.402372 0.925805 0.453015 -0.024795
C6    C     C_R   0.597628 0.925805 0.546985 -0.024795
C7    C     C_R   0.498178 0.499915 0.262643 0.802038
C8    C     C_R   0.501822 0.499915 0.737357 0.802038
C9    C     C_R   0.495668 0.621481 0.061887 0.011447
C10   C     C_R   0.504333 0.621481 0.938113 0.011447
C11   C     C_R   0.496505 0.498402 0.130007 -0.092949
C12   C     C_R   0.503496 0.498402 0.869993 -0.092949
C13   C     C_R   0.499035 0.370598 0.064488 -0.204145
C14   C     C_R   0.500966 0.370598 0.935512 -0.204146
C15   C     C_3   0.506323 0.777855 0.928923 -0.046866
C16   C     C_3   0.493675 0.777855 0.071076 -0.046868
C17   C     C_R   0.063857 0.372497 0.499921 -0.187141
C18   C     C_R   0.936143 0.372497 0.500077 -0.187142
C19   C     C_R   0.871761 0.499991 0.500134 -0.015708
C20   C     C_R   0.128238 0.499990 0.499866 -0.015708
C21   C     C_R   0.936138 0.627493 0.500092 -0.190710
C22   C     C_R   0.063862 0.627493 0.499909 -0.190710
Cu1   Cu    Cu3+1 0.500000 0.640660 0.500000 0.929249
Cu2   Cu    Cu3+1 0.500000 0.359340 0.500000 0.936406
H1    H     H_    0.499639 0.271019 0.112163 0.164560
H2    H     H_    0.500362 0.271019 0.887836 0.164562
H3    H     H_    0.425183 0.818919 0.877149 0.172623
H4    H     H_    0.574814 0.818922 0.122850 0.172622
H5    H     H_    0.111869 0.272804 0.499870 0.141796
H6    H     H_    0.888131 0.272804 0.500128 0.141797
H7    H     H_    0.888118 0.727180 0.500164 0.141419
H8    H     H_    0.111882 0.727180 0.499838 0.141419
H9    H     H_    0.325019 0.129711 0.412805 0.120692
H10   H     H_    0.674981 0.129711 0.587196 0.120692
H11   H     H_    0.323624 0.870598 0.415754 0.113936
H12   H     H_    0.676376 0.870598 0.584247 0.113935
N1    N     N_R   0.500000 0.852070 0.500000 -0.157012
N2    N     N_R   0.500000 0.147940 0.500000 -0.157558
O1    O     O_R   0.319640 0.618740 0.499990 -0.597238
O2    O     O_R   0.680360 0.618740 0.500010 -0.597237
O3    O     O_R   0.319620 0.381170 0.499990 -0.592813
O4    O     O_R   0.680380 0.381170 0.500010 -0.592813
O5    O     O_R   0.499990 0.618810 0.319660 -0.586943
O6    O     O_R   0.500010 0.618810 0.680340 -0.586944
O7    O     O_R   0.499960 0.381240 0.319650 -0.581770
O8    O     O_R   0.500040 0.381240 0.680350 -0.581770
C23   C     C_3   0.631344 0.833543 0.883627 -0.374534
C24   C     C_3   0.632456 0.993435 0.880862 -0.871090
H13   H     H_    0.557199 0.032769 0.820455 0.251929
H14   H     H_    0.620198 0.036294 0.975014 0.259581
H15   H     H_    0.722084 0.030956 0.844109 0.238214
H16   H     H_    0.707956 0.795612 0.943364 0.200382
H17   H     H_    0.648775 0.793827 0.789512 0.218757
C25   C     C_3   0.368653 0.833541 0.116372 -0.374537
C26   C     C_3   0.367536 0.993433 0.119135 -0.871090
H18   H     H_    0.442795 0.032772 0.179538 0.251927
H19   H     H_    0.379789 0.036291 0.024982 0.259582
H20   H     H_    0.277909 0.030951 0.155890 0.238214
H21   H     H_    0.292042 0.795607 0.056636 0.200383
H22   H     H_    0.351223 0.793826 0.210487 0.218758

loop_
_geom_bond_atom_site_label_1
_geom_bond_atom_site_label_2
_ccdc_geom_bond_type
C16   H4    S    
Cu2   N2    S    
C26   H18   S    
C6    H12   S    
C23   H16   S    
C18   H6    S    
C2    O2    A    
C17   H5    S    
C9    C10   A    
C15   H3    S    
C23   C24   S    
C15   C23   S    
C8    C12   S    
Cu2   O8    S    
C24   H14   S    
C17   C18   A    
C6    N1    A    
Cu1   O5    S    
C26   H19   S    
C25   H22   S    
C13   C14   A    
C14   H2    S    
C7    C11   S    
Cu2   O3    S    
C21   H7    S    
C13   H1    S    
C22   H8    S    
C2    O4    A    
Cu1   O1    S    
Cu2   O7    S    
C7    O7    A    
C1    O3    A    
C23   H17   S    
C19   C21   A    
C9    C16   S    
C20   C22   A    
C10   C12   A    
C25   H21   S    
C9    C11   A    
C4    H10   S    
C8    O6    A    
C16   C25   S    
C5    N1    A    
C3    H9    S    
Cu1   Cu2   S    
Cu1   O2    S    
C5    H11   S    
C11   C13   A    
C17   C20   A    
Cu2   O4    S    
C4    C6    A    
C18   C19   A    
C26   H20   S    
C7    O5    A    
C1    O1    A    
C25   C26   S    
C24   H13   S    
C1    C20   S    
Cu1   N1    S    
C8    O8    A    
C2    C19   S    
C21   C22   A    
C4    N2    A    
C24   H15   S    
Cu1   O6    S    
C15   C16   S    
C3    N2    A    
C12   C14   A    
C10   C15   S    
C3    C5    A    
