data_mof_unit_51303.cif
_audit_creation_date              2012-12-10T18:40:36-0500
_audit_creation_method            fapswitch 2.2
_symmetry_space_group_name_H-M    P1
_symmetry_Int_Tables_number       1
_space_group_crystal_system       triclinic
_cell_length_a                    24.547653
_cell_length_b                    19.273187
_cell_length_c                    13.941055
_cell_angle_alpha                 89.711676
_cell_angle_beta                  89.904643
_cell_angle_gamma                 90.105953
_cell_volume                      6595.56951014

loop_
_atom_site_label
_atom_site_type_symbol
_atom_type_description
_atom_site_fract_x
_atom_site_fract_y
_atom_site_fract_z
_atom_type_partial_charge
C1    C     C_R   0.086719 0.416630 0.500229 0.839807
C2    C     C_R   0.913631 0.584650 0.500236 0.833029
C3    C     C_R   0.914062 0.415510 0.499764 0.845171
C4    C     C_R   0.085599 0.585580 0.498865 0.826007
C5    C     C_R   0.586534 0.916101 0.500415 0.841716
C6    C     C_R   0.413576 0.084710 0.500412 0.850313
C7    C     C_R   0.414156 0.915460 0.499670 0.854189
C8    C     C_R   0.586046 0.084943 0.499239 0.808529
C9    C     C_R   0.782852 0.318225 0.574020 0.388306
C10   C     C_R   0.192966 0.719891 0.413192 0.417231
C11   C     C_R   0.214592 0.685766 0.575146 0.374659
C12   C     C_R   0.808413 0.283083 0.414830 0.412806
C13   C     C_R   0.220476 0.324102 0.423301 0.367398
C14   C     C_R   0.808262 0.721360 0.578226 0.400286
C15   C     C_R   0.781860 0.682213 0.421591 0.392956
C16   C     C_R   0.191077 0.281143 0.577421 0.418800
C17   C     C_R   0.281722 0.821400 0.573456 0.413179
C18   C     C_R   0.693348 0.219080 0.414110 0.404376
C19   C     C_R   0.718531 0.180937 0.572819 0.406179
C20   C     C_R   0.307656 0.783366 0.415870 0.392242
C21   C     C_R   0.720155 0.824909 0.421889 0.375537
C22   C     C_R   0.305833 0.219184 0.580936 0.383477
C23   C     C_R   0.281095 0.181840 0.422908 0.400895
C24   C     C_R   0.693048 0.781356 0.577371 0.414096
C25   C     C_R   0.834157 0.350103 0.583229 0.257969
C26   C     C_R   0.158037 0.662201 0.406865 0.189675
C27   C     C_R   0.162891 0.654781 0.581175 0.253972
C28   C     C_R   0.842245 0.341781 0.409313 0.187845
C29   C     C_R   0.169300 0.357152 0.414992 0.236279
C30   C     C_R   0.841388 0.662296 0.586856 0.229312
C31   C     C_R   0.832982 0.649459 0.414505 0.223461
C32   C     C_R   0.158665 0.340397 0.586893 0.195997
C33   C     C_R   0.333511 0.851333 0.582971 0.256716
C34   C     C_R   0.658152 0.161634 0.407942 0.198418
C35   C     C_R   0.666973 0.149057 0.582021 0.228387
C36   C     C_R   0.342201 0.841250 0.409668 0.241616
C37   C     C_R   0.668214 0.855713 0.415155 0.256352
C38   C     C_R   0.340058 0.160941 0.588320 0.229285
C39   C     C_R   0.332354 0.149450 0.415552 0.246141
C40   C     C_R   0.659189 0.839382 0.587047 0.191816
C41   C     C_R   0.863267 0.370130 0.497517 -0.452215
C42   C     C_R   0.135697 0.633074 0.494950 -0.457083
C43   C     C_R   0.139038 0.373433 0.500991 -0.435173
C44   C     C_R   0.862146 0.630591 0.500852 -0.449196
C45   C     C_R   0.363311 0.870184 0.497491 -0.459136
C46   C     C_R   0.637127 0.131055 0.496149 -0.467668
C47   C     C_R   0.638630 0.872174 0.501456 -0.442207
C48   C     C_R   0.361804 0.130486 0.501665 -0.447899
C49   C     C_R   0.980726 0.557263 0.108198 0.354708
C50   C     C_R   0.995969 0.437469 0.890571 0.323155
C51   C     C_R   0.017294 0.442000 0.109471 0.343373
C52   C     C_R   0.003553 0.561672 0.890529 0.340637
C53   C     C_R   0.479947 0.057422 0.108563 0.339994
C54   C     C_R   0.495473 0.937801 0.890432 0.321327
C55   C     C_R   0.516373 0.941866 0.108780 0.340376
C56   C     C_R   0.502409 0.062288 0.890192 0.338174
C57   C     C_R   0.773589 0.275724 0.494070 -0.169033
C58   C     C_R   0.226407 0.727148 0.494362 -0.161619
C59   C     C_R   0.227249 0.277379 0.499863 -0.138908
C60   C     C_R   0.773630 0.727082 0.498786 -0.156896
C61   C     C_R   0.272033 0.777911 0.494652 -0.176654
C62   C     C_R   0.728120 0.224375 0.493416 -0.150309
C63   C     C_R   0.728711 0.778568 0.498794 -0.153436
C64   C     C_R   0.272128 0.225791 0.500712 -0.145760
C65   C     C_R   0.995715 0.561348 0.207162 0.537722
C66   C     C_R   0.006472 0.439307 0.791165 0.560290
C67   C     C_R   0.002864 0.438553 0.208572 0.544788
C68   C     C_R   0.992933 0.560237 0.791246 0.539376
C69   C     C_R   0.495524 0.061352 0.207246 0.533945
C70   C     C_R   0.506234 0.939568 0.791233 0.563681
C71   C     C_R   0.502667 0.938589 0.208516 0.539308
C72   C     C_R   0.493487 0.060798 0.790325 0.554723
C73   C     C_R   0.998685 0.499274 0.055200 -0.039509
C74   C     C_R   0.999439 0.499487 0.945158 -0.084264
C75   C     C_R   0.497496 0.999409 0.055014 -0.041118
C76   C     C_R   0.498307 0.999926 0.944882 -0.087513
Cu1   Cu    Cu3+1 0.000000 0.500000 0.596430 1.051964
Cu2   Cu    Cu3+1 1.000000 0.500000 0.403570 1.044999
Cu3   Cu    Cu3+1 0.500000 1.000000 0.596430 1.049616
Cu4   Cu    Cu3+1 0.500000 0.000000 0.403570 1.053561
N1    N     N_R   0.000000 0.500000 0.258690 -0.245397
N2    N     N_R   0.000000 0.500000 0.741310 -0.286611
N3    N     N_R   0.500000 0.000000 0.258690 -0.245545
N4    N     N_R   0.500000 0.000000 0.741310 -0.286792
O1    O     O_R   0.064280 0.435730 0.581430 -0.528655
O2    O     O_R   0.935720 0.564270 0.418570 -0.561676
O3    O     O_R   0.935720 0.564270 0.581430 -0.512358
O4    O     O_R   0.064280 0.435730 0.418570 -0.551220
O5    O     O_R   0.935720 0.435730 0.418570 -0.536700
O6    O     O_R   0.064280 0.564270 0.581430 -0.542156
O7    O     O_R   0.064280 0.564270 0.418570 -0.539401
O8    O     O_R   0.935720 0.435730 0.581430 -0.533516
O9    O     O_R   0.564280 0.935730 0.581430 -0.524546
O10   O     O_R   0.435720 0.064270 0.418570 -0.547077
O11   O     O_R   0.435720 0.064270 0.581430 -0.507544
O12   O     O_R   0.564280 0.935730 0.418570 -0.550417
O13   O     O_R   0.435720 0.935730 0.418570 -0.510723
O14   O     O_R   0.564280 0.064270 0.581430 -0.549683
O15   O     O_R   0.564280 0.064270 0.418570 -0.533910
O16   O     O_R   0.435720 0.935730 0.581430 -0.545174
O17   O     O_3   0.940474 0.598956 0.067597 -0.515971
C77   C     C_3   0.949186 0.670439 0.083170 -0.003357
H1    H     H_    0.992914 0.684963 0.086675 0.140718
H2    H     H_    0.927353 0.687836 0.147233 0.216806
H3    H     H_    0.931288 0.699868 0.022547 0.202067
O18   O     O_3   0.988781 0.373973 0.934030 -0.607824
C78   C     C_3   0.933015 0.356089 0.934899 -0.187669
H4    H     H_    0.924114 0.321404 0.873836 0.237395
H5    H     H_    0.904783 0.401347 0.934770 0.201724
H6    H     H_    0.924479 0.325375 0.000698 0.198664
O19   O     O_3   0.062616 0.406799 0.075179 -0.520151
C79   C     C_3   0.055244 0.334145 0.076695 -0.012826
H7    H     H_    0.011978 0.317310 0.079919 0.134502
H8    H     H_    0.078177 0.310361 0.136162 0.206806
H9    H     H_    0.072486 0.313162 0.009062 0.216099
O20   O     O_3   0.011864 0.624902 0.933534 -0.591358
C80   C     C_3   0.068071 0.640632 0.935019 -0.174579
H10   H     H_    0.077363 0.678376 0.876944 0.235469
H11   H     H_    0.095467 0.594580 0.930043 0.199539
H12   H     H_    0.077840 0.667402 0.003157 0.201971
O21   O     O_3   0.439245 0.099006 0.069159 -0.524620
C81   C     C_3   0.447742 0.170508 0.085170 -0.001146
H13   H     H_    0.491337 0.185683 0.086198 0.139963
H14   H     H_    0.427605 0.187231 0.151084 0.217517
H15   H     H_    0.428241 0.200030 0.026161 0.202328
O22   O     O_3   0.488137 0.874271 0.933598 -0.607880
C82   C     C_3   0.432313 0.857276 0.936027 -0.201000
H16   H     H_    0.421562 0.827100 0.871553 0.244157
H17   H     H_    0.404944 0.902879 0.944173 0.195735
H18   H     H_    0.424941 0.822075 0.997814 0.198260
O23   O     O_3   0.562246 0.907897 0.074040 -0.521341
C83   C     C_3   0.556082 0.834990 0.073338 -0.010924
H19   H     H_    0.513205 0.816678 0.079725 0.131037
H20   H     H_    0.581456 0.810792 0.129270 0.204631
H21   H     H_    0.571840 0.815571 0.003774 0.218459
O24   O     O_3   0.508377 0.125907 0.933348 -0.583496
C84   C     C_3   0.563836 0.145250 0.934384 -0.170533
H22   H     H_    0.571929 0.182329 0.874982 0.231547
H23   H     H_    0.592952 0.100915 0.931007 0.203909
H24   H     H_    0.572482 0.173351 0.002017 0.196214
O25   O     O_3   0.748065 0.315914 0.652133 -0.447943
C85   C     C_3   0.705630 0.363581 0.637913 -0.175291
H25   H     H_    0.676149 0.343143 0.584724 0.120999
H26   H     H_    0.721122 0.415670 0.616097 0.110141
H27   H     H_    0.683859 0.369606 0.707153 0.220971
O26   O     O_3   0.199812 0.762363 0.333444 -0.438946
C86   C     C_3   0.172667 0.825643 0.348927 -0.147406
H28   H     H_    0.196575 0.859313 0.397729 0.128491
H29   H     H_    0.130471 0.817966 0.376619 0.085120
H30   H     H_    0.169649 0.853457 0.279201 0.216423
O27   O     O_3   0.245852 0.690743 0.657611 -0.451190
C87   C     C_3   0.291871 0.648140 0.649383 -0.142021
H31   H     H_    0.320907 0.669676 0.595852 0.120729
H32   H     H_    0.280339 0.593719 0.631862 0.106904
H33   H     H_    0.312722 0.647597 0.719943 0.225524
O28   O     O_3   0.803242 0.239878 0.336303 -0.441968
C88   C     C_3   0.838184 0.182713 0.349358 -0.191753
H34   H     H_    0.831508 0.156420 0.419659 0.091729
H35   H     H_    0.881502 0.198815 0.341278 0.130820
H36   H     H_    0.829229 0.143813 0.293082 0.216155
O29   O     O_3   0.254498 0.319337 0.344274 -0.450564
C89   C     C_3   0.292332 0.374033 0.345358 -0.167814
H37   H     H_    0.322808 0.365605 0.403004 0.109573
H38   H     H_    0.272221 0.425464 0.352377 0.123240
H39   H     H_    0.314446 0.373763 0.275718 0.221608
O30   O     O_3   0.803096 0.766064 0.654958 -0.441041
C90   C     C_3   0.833287 0.826557 0.634477 -0.193876
H40   H     H_    0.815566 0.855847 0.572998 0.107164
H41   H     H_    0.876875 0.814371 0.620701 0.107452
H42   H     H_    0.831445 0.861100 0.697843 0.221262
O31   O     O_3   0.748336 0.686281 0.341995 -0.447820
C91   C     C_3   0.704489 0.639801 0.352990 -0.156802
H43   H     H_    0.673070 0.662824 0.400182 0.106430
H44   H     H_    0.717409 0.587966 0.380418 0.105046
H45   H     H_    0.685578 0.632194 0.281581 0.216597
O32   O     O_3   0.193306 0.233432 0.651709 -0.446011
C92   C     C_3   0.161464 0.175519 0.626096 -0.201652
H46   H     H_    0.181224 0.145534 0.567724 0.117863
H47   H     H_    0.119315 0.190624 0.605281 0.105525
H48   H     H_    0.158262 0.140417 0.689254 0.212989
O33   O     O_3   0.246073 0.823260 0.650754 -0.450023
C93   C     C_3   0.199788 0.863179 0.628158 -0.179909
H49   H     H_    0.202060 0.892377 0.558778 0.068381
H50   H     H_    0.194044 0.901863 0.686149 0.194545
H51   H     H_    0.163811 0.828682 0.627855 0.189801
O34   O     O_3   0.700499 0.261654 0.334502 -0.441022
C94   C     C_3   0.673137 0.324866 0.349434 -0.149304
H52   H     H_    0.695183 0.357462 0.402265 0.118106
H53   H     H_    0.630029 0.316781 0.371812 0.093263
H54   H     H_    0.672630 0.354036 0.280483 0.220477
O35   O     O_3   0.752725 0.184061 0.651482 -0.449550
C95   C     C_3   0.794539 0.135029 0.641613 -0.180892
H55   H     H_    0.824657 0.153067 0.587612 0.104977
H56   H     H_    0.778473 0.082621 0.623856 0.118112
H57   H     H_    0.815913 0.131103 0.711517 0.220699
O36   O     O_3   0.301675 0.739909 0.337748 -0.440620
C96   C     C_3   0.337752 0.683672 0.348233 -0.195211
H58   H     H_    0.336384 0.660303 0.421463 0.083956
H59   H     H_    0.379892 0.699852 0.329312 0.145275
H60   H     H_    0.325315 0.642301 0.297556 0.214732
O37   O     O_3   0.752880 0.822608 0.340754 -0.450218
C97   C     C_3   0.801825 0.858642 0.356695 -0.153465
H61   H     H_    0.829639 0.827487 0.402191 0.127597
H62   H     H_    0.794748 0.910850 0.388020 0.095355
H63   H     H_    0.822182 0.866001 0.286218 0.220268
O38   O     O_3   0.298309 0.261529 0.659879 -0.441038
C98   C     C_3   0.328610 0.322922 0.646277 -0.154894
H64   H     H_    0.310324 0.355901 0.589131 0.110811
H65   H     H_    0.372162 0.311906 0.630249 0.100343
H66   H     H_    0.327321 0.353038 0.713959 0.222592
O39   O     O_3   0.247047 0.185575 0.343932 -0.449539
C99   C     C_3   0.208405 0.131832 0.349094 -0.189738
H67   H     H_    0.174921 0.146675 0.398312 0.105118
H68   H     H_    0.226552 0.081215 0.370866 0.125207
H69   H     H_    0.190534 0.125151 0.276638 0.215348
O40   O     O_3   0.698245 0.734894 0.652848 -0.440639
C100  C     C_3   0.668388 0.674556 0.630855 -0.189581
H70   H     H_    0.680749 0.651813 0.560994 0.092414
H71   H     H_    0.623932 0.684974 0.632510 0.125950
H72   H     H_    0.677092 0.634444 0.686051 0.222771
S1    S     S_3+6 0.865485 0.334346 0.696165 -0.000583
O41   O     O_2   0.825780 0.307876 0.770045 -0.171274
O42   O     O_2   0.891485 0.398619 0.735341 -0.315485
O43   O     O_3   0.911546 0.271061 0.679838 -0.611642
H73   H     H_    0.898558 0.243947 0.623898 0.318378
S2    S     S_3+6 0.153660 0.630697 0.286691 0.090855
O44   O     O_2   0.124378 0.683779 0.226545 -0.218443
O45   O     O_2   0.210449 0.626034 0.246106 -0.233042
O46   O     O_3   0.125041 0.552367 0.273815 -0.417490
H74   H     H_    0.151306 0.520314 0.304301 0.360228
S3    S     S_3+6 0.126939 0.676135 0.687129 -0.010155
O47   O     O_2   0.162247 0.712543 0.759402 -0.178127
O48   O     O_2   0.104467 0.611778 0.733345 -0.316404
O49   O     O_3   0.077637 0.732391 0.656013 -0.619122
H75   H     H_    0.089366 0.753499 0.593951 0.306874
S4    S     S_3+6 0.842994 0.379879 0.292212 0.095983
O50   O     O_2   0.869303 0.329535 0.224570 -0.200729
O51   O     O_2   0.785149 0.388168 0.259287 -0.255070
O52   O     O_3   0.872789 0.457979 0.281973 -0.414575
H76   H     H_    0.848578 0.489579 0.317872 0.360952
S5    S     S_3+6 0.136652 0.338496 0.305437 0.014495
O53   O     O_2   0.174152 0.306791 0.232257 -0.167657
O54   O     O_2   0.112069 0.402414 0.261857 -0.263962
O55   O     O_3   0.089148 0.278675 0.332207 -0.631930
H77   H     H_    0.108198 0.243285 0.371395 0.331009
S6    S     S_3+6 0.838705 0.626420 0.704662 0.103814
O56   O     O_2   0.866711 0.675904 0.772562 -0.179910
O57   O     O_2   0.780370 0.622688 0.735100 -0.264033
O58   O     O_3   0.865504 0.546158 0.715113 -0.441886
H78   H     H_    0.834736 0.516414 0.736004 0.378441
S7    S     S_3+6 0.865795 0.668368 0.304718 0.003820
O59   O     O_2   0.827297 0.695002 0.229303 -0.148447
O60   O     O_2   0.892298 0.604738 0.265791 -0.287794
O61   O     O_3   0.911061 0.732378 0.325135 -0.622443
H79   H     H_    0.907051 0.745259 0.393606 0.304312
S8    S     S_3+6 0.159769 0.374478 0.705234 0.106572
O62   O     O_2   0.131605 0.323568 0.770733 -0.176162
O63   O     O_2   0.218003 0.378240 0.737941 -0.251611
O64   O     O_3   0.133104 0.454157 0.717496 -0.426728
H80   H     H_    0.157751 0.484888 0.680476 0.348121
S9    S     S_3+6 0.364266 0.834767 0.696018 -0.006156
O65   O     O_2   0.323527 0.809372 0.768713 -0.167895
O66   O     O_2   0.390642 0.898727 0.735208 -0.323026
O67   O     O_3   0.409392 0.770051 0.681861 -0.605177
H81   H     H_    0.412299 0.761976 0.611923 0.300930
S10   S     S_3+6 0.653149 0.130915 0.287245 0.094150
O68   O     O_2   0.623974 0.184866 0.228323 -0.218921
O69   O     O_2   0.709776 0.126202 0.246150 -0.228524
O70   O     O_3   0.623985 0.052885 0.272778 -0.421127
H82   H     H_    0.651380 0.019525 0.296801 0.364394
S11   S     S_3+6 0.636676 0.161734 0.697344 0.009529
O71   O     O_2   0.677765 0.181889 0.771941 -0.150781
O72   O     O_2   0.608101 0.098236 0.734015 -0.314040
O73   O     O_3   0.593646 0.229247 0.687294 -0.591099
H83   H     H_    0.588833 0.237511 0.617566 0.301244
S12   S     S_3+6 0.343392 0.878621 0.292751 0.084268
O74   O     O_2   0.370951 0.828446 0.225716 -0.223183
O75   O     O_2   0.285386 0.885779 0.258729 -0.272388
O76   O     O_3   0.372773 0.957429 0.284435 -0.444826
H84   H     H_    0.349243 0.984211 0.240356 0.391617
S13   S     S_3+6 0.633899 0.832188 0.309305 0.009690
O77   O     O_2   0.670516 0.797948 0.237047 -0.169384
O78   O     O_2   0.608744 0.894528 0.262751 -0.272630
O79   O     O_3   0.587101 0.773260 0.343103 -0.630609
H85   H     H_    0.605304 0.743781 0.392012 0.318779
S14   S     S_3+6 0.341865 0.127554 0.707453 0.106309
O80   O     O_2   0.371841 0.178698 0.768660 -0.192161
O81   O     O_2   0.283994 0.125383 0.744845 -0.241727
O82   O     O_3   0.368200 0.047685 0.718936 -0.441308
H86   H     H_    0.337913 0.018483 0.745457 0.378639
S15   S     S_3+6 0.364476 0.167145 0.304685 0.007804
O83   O     O_2   0.325481 0.192586 0.229307 -0.152227
O84   O     O_2   0.390979 0.103197 0.266825 -0.300970
O85   O     O_3   0.409650 0.231680 0.322597 -0.617319
H87   H     H_    0.406166 0.245234 0.390841 0.308737
S16   S     S_3+6 0.658980 0.872019 0.705900 0.110533
O86   O     O_2   0.629264 0.820892 0.768919 -0.185724
O87   O     O_2   0.716698 0.874495 0.741063 -0.232232
O88   O     O_3   0.633007 0.952031 0.717978 -0.418667
H88   H     H_    0.658350 0.982257 0.681664 0.352499
O89   O     O_3   0.033040 0.613088 0.227345 -0.546636
C101  C     C_3   0.012089 0.665059 0.287415 -0.078336
H89   H     H_    0.045494 0.687443 0.329906 0.163190
H90   H     H_    0.982807 0.646064 0.340189 0.195839
H91   H     H_    0.996523 0.708929 0.244665 0.154400
O90   O     O_3   0.041160 0.389741 0.755613 -0.498533
C102  C     C_3   0.013408 0.333634 0.715254 -0.035616
H92   H     H_    0.043452 0.300339 0.677981 0.141579
H93   H     H_    0.985369 0.351053 0.659032 0.189494
H94   H     H_    0.994133 0.301075 0.771220 0.194075
O91   O     O_3   0.964476 0.388558 0.230601 -0.549302
C103  C     C_3   0.986464 0.333900 0.284729 -0.080969
H95   H     H_    0.952917 0.304459 0.319086 0.153415
H96   H     H_    0.011887 0.352434 0.343840 0.205716
H97   H     H_    0.007199 0.295976 0.238233 0.152010
O92   O     O_3   0.956962 0.608911 0.757054 -0.502145
C104  C     C_3   0.983724 0.664349 0.712788 -0.002182
H98   H     H_    0.952912 0.698623 0.678863 0.137197
H99   H     H_    0.008819 0.645965 0.652857 0.188103
H100  H     H_    0.006120 0.695689 0.766069 0.200921
O93   O     O_3   0.532650 0.113329 0.226854 -0.541598
C105  C     C_3   0.511977 0.164985 0.287679 -0.087996
H101  H     H_    0.544910 0.184222 0.334351 0.161289
H102  H     H_    0.480419 0.146852 0.336382 0.195709
H103  H     H_    0.499218 0.210829 0.245343 0.152646
O94   O     O_3   0.540182 0.889399 0.755114 -0.493199
C106  C     C_3   0.511346 0.833829 0.715878 -0.057803
H104  H     H_    0.540303 0.800548 0.676046 0.141177
H105  H     H_    0.482312 0.851958 0.661973 0.182820
H106  H     H_    0.492684 0.801574 0.772718 0.198093
O95   O     O_3   0.465099 0.888034 0.232397 -0.556783
C107  C     C_3   0.488828 0.833101 0.283484 -0.069361
H107  H     H_    0.456502 0.797058 0.308302 0.149598
H108  H     H_    0.509632 0.851135 0.348271 0.200261
H109  H     H_    0.514961 0.801342 0.237106 0.163289
O96   O     O_3   0.459711 0.110849 0.753064 -0.487561
C108  C     C_3   0.487779 0.165778 0.709473 -0.065666
H110  H     H_    0.459795 0.191565 0.658021 0.125768
H111  H     H_    0.521736 0.147813 0.665961 0.186378
H112  H     H_    0.500179 0.204770 0.763153 0.191150

loop_
_geom_bond_atom_site_label_1
_geom_bond_atom_site_label_2
_ccdc_geom_bond_type
C105  H102  S    
O22   C82   S    
C33   C45   A    
S15   O83   D    
C53   C69   A    
C108  H110  S    
O89   C101  S    
S13   O79   S    
C88   H34   S    
O79   H85   S    
C8    O15   A    
C80   H11   S    
C105  H103  S    
O18   C78   S    
S11   O71   D    
C22   C38   A    
S8    O64   S    
O55   H77   S    
C68   O92   S    
O73   H83   S    
C96   H59   S    
C93   H49   S    
C17   C61   A    
C6    O10   A    
C98   H66   S    
O94   C106  S    
C70   N4    A    
C91   H45   S    
C58   C61   S    
C72   O96   S    
C53   C75   A    
Cu4   N3    S    
C89   H38   S    
Cu2   O5    S    
C84   H24   S    
C97   H61   S    
C39   S15   S    
O35   C95   S    
C95   H57   S    
C21   O37   S    
C86   H30   S    
C25   C41   A    
O38   C98   S    
O36   C96   S    
Cu1   Cu2   S    
O92   C104  S    
C93   H51   S    
C104  H100  S    
C75   C76   S    
O46   H74   S    
C66   N2    A    
C89   H39   S    
C84   H23   S    
C54   C70   A    
C11   C27   A    
O90   C102  S    
C31   S7    S    
C72   N4    A    
S16   O86   D    
C24   C63   A    
C78   H6    S    
C49   C73   A    
C108  H112  S    
O26   C86   S    
C7    O13   A    
S14   O82   S    
C56   C72   A    
O96   C108  S    
C88   H36   S    
C19   C35   A    
S14   O81   D    
C66   O90   S    
Cu1   N2    S    
S3    O49   S    
C106  H104  S    
C99   H67   S    
C83   H20   S    
O93   C105  S    
C102  H93   S    
O34   C94   S    
C36   S12   S    
C55   C71   A    
C19   O35   S    
Cu4   O13   S    
C15   C60   A    
O19   C79   S    
C79   H8    S    
C90   H41   S    
O58   H78   S    
C30   S6    S    
S15   O84   D    
C52   C74   A    
C50   C74   A    
S9    O65   D    
C103  H95   S    
C22   O38   S    
S5    O53   D    
C20   C61   A    
C8    O14   A    
C1    C43   S    
S16   O88   S    
C2    C44   S    
O67   H81   S    
C92   H47   S    
S8    O63   D    
C78   H4    S    
C34   C46   A    
C37   C47   A    
C11   C58   A    
C38   C48   A    
C4    O7    A    
C55   C75   A    
C69   O93   S    
Cu1   O1    S    
C12   O28   S    
C56   O24   S    
C91   H44   S    
C71   N3    A    
C101  H90   S    
C23   C64   A    
C107  H107  S    
C106  H105  S    
C18   C62   A    
S7    O61   S    
C65   O89   S    
C100  H70   S    
C95   H56   S    
C82   H17   S    
S1    O41   D    
C50   C66   A    
C99   H69   S    
O76   H84   S    
O82   H86   S    
C2    O3    A    
C51   C67   A    
S10   O69   D    
C10   O26   S    
C12   C57   A    
C11   O27   S    
C28   S4    S    
C67   N1    A    
Cu4   O15   S    
C40   S16   S    
C81   H14   S    
C37   S13   S    
C38   S14   S    
S6    O56   D    
S12   O75   D    
O24   C84   S    
S10   O70   S    
S9    O67   S    
C15   C31   A    
C13   C59   A    
C16   C32   A    
C14   C60   A    
C103  H97   S    
S5    O55   S    
C68   N2    A    
C81   H15   S    
C80   H10   S    
C24   O40   S    
C27   C42   A    
C4    C42   S    
C32   C43   A    
C77   H1    S    
C93   H50   S    
C17   O33   S    
C87   H31   S    
Cu1   O3    S    
C6    O11   A    
C98   H65   S    
C85   H26   S    
S6    O58   S    
S11   O73   S    
O17   C77   S    
C73   C74   S    
O52   H76   S    
C107  H109  S    
O91   C103  S    
O43   H73   S    
O29   C89   S    
C9    C25   A    
S7    O59   D    
C70   O94   S    
O33   C93   S    
C100  H72   S    
C54   O22   S    
C26   C42   A    
C97   H62   S    
C12   C28   A    
C13   C29   A    
C86   H29   S    
S1    O43   S    
C49   O17   S    
O85   H87   S    
C33   S9    S    
C28   C41   A    
C77   H3    S    
C104  H99   S    
C94   H54   S    
C86   H28   S    
C97   H63   S    
O27   C87   S    
C16   O32   S    
C1    O4    A    
S16   O87   D    
C105  H101  S    
C88   H35   S    
O70   H82   S    
C29   C43   A    
C71   O95   S    
C78   H5    S    
C85   H27   S    
C30   C44   A    
C17   C33   A    
C108  H111  S    
C4    O6    A    
C52   O20   S    
Cu1   O6    S    
C7    O16   A    
C98   H64   S    
Cu3   O16   S    
C80   H12   S    
C90   H40   S    
C102  H92   S    
C96   H60   S    
O88   H88   S    
Cu3   O11   S    
O61   H79   S    
C65   N1    A    
O39   C99   S    
C87   H33   S    
C32   S8    S    
C15   O31   S    
S3    O48   D    
O21   C81   S    
C6    C48   S    
C99   H68   S    
C55   O23   S    
S13   O78   D    
O49   H75   S    
Cu4   O10   S    
O23   C83   S    
C5    O12   A    
C89   H37   S    
Cu2   O4    S    
C10   C58   A    
S4    O52   S    
C3    O5    A    
C102  H94   S    
C94   H52   S    
C53   O21   S    
Cu2   N1    S    
Cu3   N4    S    
C23   O39   S    
C26   S2    S    
C103  H96   S    
C21   C63   A    
C22   C64   A    
C20   C36   A    
C21   C37   A    
C92   H46   S    
C50   O18   S    
C85   H25   S    
C3    O8    A    
C35   C46   A    
C39   C48   A    
C40   C47   A    
O31   C91   S    
Cu1   O8    S    
C56   C76   A    
O37   C97   S    
Cu3   O14   S    
O95   C107  S    
C57   C62   S    
S4    O50   D    
C5    C47   S    
C101  H91   S    
C59   C64   S    
C49   C65   A    
C60   C63   S    
C7    C45   S    
O28   C88   S    
C107  H108  S    
Cu3   O9    S    
S14   O80   D    
S7    O60   D    
C19   C62   A    
S4    O51   D    
O20   C80   S    
C83   H19   S    
S12   O76   S    
C25   S1    S    
Cu4   O12   S    
C52   C68   A    
Cu2   O2    S    
C96   H58   S    
C14   C30   A    
C79   H7    S    
C90   H42   S    
C8    C46   S    
C1    O1    A    
S6    O57   D    
C31   C44   A    
S15   O85   S    
O40   C100  S    
S9    O66   D    
C9    O25   S    
S13   O77   D    
C18   O34   S    
S5    O54   D    
C16   C59   A    
C69   N3    A    
C92   H48   S    
S8    O62   D    
C36   C45   A    
S12   O74   D    
C77   H2    S    
C18   C34   A    
C54   C76   A    
C27   S3    S    
O32   C92   S    
C87   H32   S    
S2    O44   D    
S2    O45   D    
O30   C90   S    
C14   O30   S    
O64   H80   S    
C91   H43   S    
S11   O72   D    
C101  H89   S    
C3    C41   S    
C51   O19   S    
C34   S10   S    
C51   C73   A    
C35   S11   S    
C106  H106  S    
C5    O9    A    
C13   O29   S    
Cu2   O7    S    
C100  H71   S    
S2    O46   S    
C84   H22   S    
C95   H55   S    
C82   H18   S    
S1    O42   D    
O25   C85   S    
C10   C26   A    
C67   O91   S    
C83   H21   S    
C23   C39   A    
C24   C40   A    
C2    O2    A    
C9    C57   A    
C104  H98   S    
C94   H53   S    
S10   O68   D    
Cu3   Cu4   S    
S3    O47   D    
C29   S5    S    
C81   H13   S    
C20   O36   S    
C79   H9    S    
C82   H16   S    
