data_mof_unit_68458.cif
_audit_creation_date              2012-10-26T18:48:16-0400
_audit_creation_method            fapswitch 2.2
_symmetry_space_group_name_H-M    P1
_symmetry_Int_Tables_number       1
_space_group_crystal_system       triclinic
_cell_length_a                    10.610604
_cell_length_b                    8.715029
_cell_length_c                    7.444685
_cell_angle_alpha                 102.327473
_cell_angle_beta                  94.76226
_cell_angle_gamma                 92.541892
_cell_volume                      668.864548826

loop_
_atom_site_label
_atom_site_type_symbol
_atom_type_description
_atom_site_fract_x
_atom_site_fract_y
_atom_site_fract_z
_atom_type_partial_charge
C1    C     C_R   0.493885 0.200423 0.454984 0.600472
C2    C     C_3   0.123229 0.499742 0.501427 0.034959
C3    C     C_3   0.968509 0.521239 0.675960 -0.120214
C4    C     C_3   0.031491 0.478761 0.324039 -0.120214
C5    C     C_2   0.473094 0.035063 0.435618 0.185515
C6    C     C_2   0.526906 0.964937 0.564382 0.185514
C7    C     C_3   0.991822 0.160666 0.710243 -0.270817
C8    C     C_3   0.008178 0.839334 0.289757 -0.270818
C9    C     C_R   0.506115 0.799577 0.545015 0.600472
C10   C     C_R   0.259583 0.498953 0.501002 0.558970
C11   C     C_R   0.740417 0.501047 0.498998 0.558971
C12   C     C_3   0.039447 0.384417 0.573430 0.129250
C13   C     C_3   0.960553 0.615583 0.426569 0.129250
C14   C     C_3   0.946719 0.360594 0.398244 -0.117381
C15   C     C_3   0.053281 0.639406 0.601755 -0.117381
C16   C     C_3   0.876771 0.500258 0.498573 0.034959
Cl1   Cl    Cl    0.359099 0.940162 0.252439 -0.611927
Cl2   Cl    Cl    0.640901 0.059838 0.747560 -0.611927
Cu1   Cu    Cu3+1 0.514140 0.517380 0.684380 1.049062
Cu2   Cu    Cu3+1 0.485860 0.482620 0.315620 1.049062
H1    H     H_    0.901020 0.246900 0.317574 0.128784
H2    H     H_    0.943963 0.230131 0.825221 0.168783
H3    H     H_    0.838472 0.702979 0.245012 0.258615
H4    H     H_    0.963155 0.937898 0.241778 0.155125
H5    H     H_    0.056038 0.769869 0.174780 0.168783
H6    H     H_    0.079510 0.889968 0.407736 0.195089
H7    H     H_    0.098980 0.753100 0.682426 0.128784
H8    H     H_    0.941232 0.535865 0.819194 0.126197
H9    H     H_    0.058768 0.464135 0.180806 0.126197
H10   H     H_    0.400340 0.378916 0.948573 0.244075
H11   H     H_    0.599660 0.621084 0.051427 0.244075
H12   H     H_    0.161528 0.297021 0.754988 0.258615
H13   H     H_    0.036845 0.062102 0.758222 0.155125
H14   H     H_    0.920490 0.110033 0.592264 0.195089
N1    N     N_2   0.464560 0.456420 0.038510 -0.229803
N2    N     N_2   0.535440 0.543580 0.961490 -0.229803
N3    N     N_2   0.087628 0.258981 0.654009 -0.520596
N4    N     N_2   0.912372 0.741019 0.345990 -0.520596
O1    O     O_R   0.509190 0.286130 0.619780 -0.483746
O2    O     O_R   0.490810 0.713870 0.380220 -0.483745
O3    O     O_R   0.485310 0.256770 0.308360 -0.456916
O4    O     O_R   0.514690 0.743230 0.691640 -0.456916
O5    O     O_R   0.328790 0.514640 0.655680 -0.521559
O6    O     O_R   0.671210 0.485360 0.344320 -0.521559
O7    O     O_R   0.304910 0.485280 0.344260 -0.501937
O8    O     O_R   0.695090 0.514720 0.655740 -0.501937

loop_
_geom_bond_atom_site_label_1
_geom_bond_atom_site_label_2
_ccdc_geom_bond_type
C9    O2    A    
C2    C4    S    
C8    H5    S    
Cu1   O5    S    
H3    N4    S    
C8    H6    S    
C11   C16   S    
C15   H7    S    
C4    H9    S    
Cu1   O4    S    
C2    C12   S    
C6    C9    S    
Cu2   O3    S    
C7    N3    S    
Cu1   O8    S    
C11   O6    A    
H12   N3    S    
C2    C15   S    
C7    H13   S    
C9    O4    A    
Cu1   O1    S    
H10   N1    S    
C10   O7    A    
C1    C5    S    
C14   H1    S    
C1    O3    A    
C3    H8    S    
C8    H4    S    
C13   N4    S    
Cu1   N2    S    
C13   C15   S    
C4    C14   S    
C5    C6    D    
C6    Cl2   S    
C7    H14   S    
C14   C16   S    
C5    Cl1   S    
C1    O1    A    
C7    H2    S    
Cu2   O7    S    
C12   N3    S    
C3    C15   S    
C13   C16   S    
C4    C13   S    
H11   N2    S    
C11   O8    A    
C3    C12   S    
Cu2   O6    S    
C10   O5    A    
Cu2   N1    S    
Cu2   O2    S    
C2    C10   S    
C3    C16   S    
Cu1   Cu2   S    
C12   C14   S    
N1    N2    D    
C8    N4    S    
