data_mof_unit_49998.cif
_audit_creation_date              2012-12-10T18:06:50-0500
_audit_creation_method            fapswitch 2.2
_symmetry_space_group_name_H-M    P1
_symmetry_Int_Tables_number       1
_space_group_crystal_system       triclinic
_cell_length_a                    12.664815
_cell_length_b                    13.223207
_cell_length_c                    15.452434
_cell_angle_alpha                 84.208745
_cell_angle_beta                  97.728845
_cell_angle_gamma                 97.480555
_cell_volume                      2533.30180588

loop_
_atom_site_label
_atom_site_type_symbol
_atom_type_description
_atom_site_fract_x
_atom_site_fract_y
_atom_site_fract_z
_atom_type_partial_charge
C1    C     C_R   0.442295 0.308962 0.508185 0.998382
C2    C     C_R   0.687867 0.553934 0.924853 0.171252
C3    C     C_R   0.579129 0.564096 0.892705 0.098048
C4    C     C_R   0.437410 0.515235 0.335721 0.847172
C5    C     C_R   0.756389 0.525090 0.870050 -0.190159
C6    C     C_R   0.716573 0.501972 0.784898 -0.165451
C7    C     C_R   0.540061 0.536617 0.808708 -0.263215
C8    C     C_R   0.721271 0.942052 0.535378 0.148234
C9    C     C_R   0.592290 0.802531 0.482428 -0.110982
C10   C     C_R   0.304623 0.184134 0.441953 -0.289967
C11   C     C_R   0.287691 0.100130 0.392984 0.655640
C12   C     C_R   0.465344 0.582201 0.096361 0.088480
C13   C     C_R   0.366043 0.034169 0.399505 -0.207609
C14   C     C_R   0.456906 0.042363 0.464422 -0.044087
C15   C     C_R   0.472216 0.128063 0.514743 -0.177096
C16   C     C_R   0.556565 0.691981 0.488628 0.855108
C17   C     C_R   0.535648 0.972157 0.479300 0.000241
C18   C     C_R   0.635701 0.001315 0.530482 -0.188188
C19   C     C_R   0.646146 0.084973 0.581197 0.550975
C20   C     C_R   0.562220 0.142105 0.578293 0.536279
C21   C     C_R   0.516044 0.870952 0.453282 0.056755
C22   C     C_R   0.698301 0.840236 0.513492 0.025905
C23   C     C_R   0.365907 0.618651 0.065434 0.133266
C24   C     C_R   0.401014 0.202671 0.496810 -0.136023
C25   C     C_R   0.135182 0.633912 0.629067 0.030590
C26   C     C_R   0.757841 0.370329 0.403579 0.263739
C27   C     C_R   0.852710 0.331870 0.393482 -0.023059
C28   C     C_R   0.564720 0.491091 0.663459 0.909849
C29   C     C_R   0.949349 0.376138 0.434657 -0.183182
C30   C     C_R   0.952336 0.459612 0.485107 0.038483
C31   C     C_R   0.853205 0.490189 0.498967 0.187103
C32   C     C_R   0.048824 0.511087 0.525428 -0.156494
C33   C     C_R   0.042417 0.580905 0.588447 0.074367
C34   C     C_R   0.543449 0.586178 0.038706 0.087059
C35   C     C_R   0.942948 0.600686 0.607334 -0.224552
C36   C     C_R   0.850344 0.559084 0.560460 -0.188821
C37   C     C_R   0.151433 0.499637 0.504051 0.650924
C38   C     C_R   0.233513 0.620509 0.604522 0.085958
C39   C     C_R   0.408652 0.543296 0.241534 -0.100485
C40   C     C_R   0.607666 0.506510 0.754388 -0.048443
C41   C     C_R   0.292431 0.624744 0.124233 -0.199906
C42   C     C_R   0.315699 0.590980 0.212414 -0.198251
C43   C     C_R   0.479430 0.532275 0.180851 0.032453
C44   C     C_R   0.510117 0.592785 0.948115 0.063044
C45   C     C_R   0.408979 0.626039 0.917051 -0.219080
C46   C     C_R   0.340118 0.643918 0.975698 -0.206174
C47   C     C_R   0.653564 0.584336 0.068836 -0.184968
C48   C     C_R   0.725482 0.570206 0.011922 -0.227997
F1    F     F_    0.733879 0.106750 0.640225 -0.602294
F2    F     F_    0.200376 0.088693 0.331950 -0.663181
F3    F     F_    0.570259 0.213172 0.637372 -0.627016
F4    F     F_    0.166703 0.444126 0.438873 -0.684103
H1    H     H_    0.264073 0.671512 0.950464 0.148574
H2    H     H_    0.809120 0.566527 0.037104 0.151689
H3    H     H_    0.217392 0.655780 0.102134 0.150743
H4    H     H_    0.259801 0.600504 0.257371 0.190579
H5    H     H_    0.383714 0.642335 0.847967 0.148335
H6    H     H_    0.684845 0.595198 0.136269 0.155885
H7    H     H_    0.811209 0.770850 0.594553 0.178313
H8    H     H_    0.840159 0.800308 0.489189 0.196009
H9    H     H_    0.851473 0.044907 0.520703 0.195808
H10   H     H_    0.885242 0.933817 0.570630 0.170859
H11   H     H_    0.427916 0.781627 0.361134 0.190771
H12   H     H_    0.840095 0.518974 0.893439 0.145777
H13   H     H_    0.360958 0.802230 0.446457 0.212721
H14   H     H_    0.351857 0.738329 0.590291 0.212471
H15   H     H_    0.385721 0.643152 0.669327 0.225119
H16   H     H_    0.176087 0.682087 0.750914 0.199579
H17   H     H_    0.161404 0.777355 0.669604 0.209626
H18   H     H_    0.663324 0.317341 0.298287 0.173811
H19   H     H_    0.647378 0.246732 0.393024 0.186855
H20   H     H_    0.898968 0.267547 0.293799 0.219135
H21   H     H_    0.883110 0.187291 0.384659 0.202116
H22   H     H_    0.512293 0.387785 0.223881 0.207910
H23   H     H_    0.249068 0.241179 0.428266 0.211237
H24   H     H_    0.619456 0.481391 0.239807 0.212742
H25   H     H_    0.355885 0.983027 0.348535 0.196731
H26   H     H_    0.455520 0.534534 0.786160 0.158494
H27   H     H_    0.935952 0.652347 0.655810 0.173662
H28   H     H_    0.018777 0.339008 0.430065 0.227349
H29   H     H_    0.776885 0.581671 0.573798 0.216871
H30   H     H_    0.770812 0.480604 0.743226 0.176237
N1    N     N_R   0.239390 0.551900 0.544730 -0.159290
N2    N     N_3   0.552141 0.455814 0.197495 -0.456413
N3    N     N_R   0.759950 0.448600 0.455730 -0.146862
N4    N     N_3   0.779719 0.772907 0.528403 -0.452630
N5    N     N_3   0.828660 0.985159 0.566607 -0.357303
N6    N     N_3   0.416277 0.834286 0.404132 -0.470417
N7    N     N_3   0.325414 0.685338 0.639563 -0.469768
N8    N     N_3   0.129228 0.704359 0.692812 -0.462254
N9    N     N_3   0.657663 0.321991 0.364547 -0.398704
N10   N     N_3   0.850002 0.245828 0.343467 -0.468251
O1    O     O_R   0.374950 0.371210 0.521360 -0.576758
O2    O     O_R   0.542050 0.338030 0.492790 -0.577732
O3    O     O_R   0.368720 0.526070 0.390200 -0.560289
O4    O     O_R   0.535820 0.492890 0.361630 -0.622623
O5    O     O_R   0.457950 0.661970 0.507210 -0.647624
O6    O     O_R   0.625050 0.628790 0.478640 -0.608126
O7    O     O_R   0.464180 0.507110 0.638370 -0.637948
O8    O     O_R   0.631280 0.473930 0.609800 -0.611254
Zn1   Zn    Zn3+2 0.388420 0.522150 0.519080 0.986264
Zn2   Zn    Zn3+2 0.611580 0.477850 0.480920 0.973453

loop_
_geom_bond_atom_site_label_1
_geom_bond_atom_site_label_2
_ccdc_geom_bond_type
C6    H30   S    
O4    Zn2   S    
H11   N6    S    
C27   C29   A    
C41   C42   A    
H18   N9    S    
C9    C21   A    
H24   N2    S    
C45   C46   A    
C48   H2    S    
C38   N7    S    
C45   H5    S    
C25   N8    S    
C31   N3    A    
C9    C16   S    
C20   F3    S    
C3    C7    A    
C30   C31   A    
C38   N1    A    
C9    C22   A    
C28   C40   S    
H15   N7    S    
C18   C19   A    
C41   H3    S    
H9    N5    S    
C42   H4    S    
C4    O4    A    
C19   C20   A    
C1    O2    A    
H16   N8    S    
C7    C40   A    
C39   C42   A    
C28   O8    A    
C21   N6    S    
C23   C46   A    
C13   C14   A    
C43   N2    S    
C14   C17   A    
H14   N7    S    
C15   C20   A    
C13   H25   S    
C3    C44   A    
C34   C44   A    
O1    Zn1   S    
C37   F4    S    
H8    N4    S    
C39   C43   A    
C10   C24   A    
C26   N9    S    
O6    Zn2   S    
C8    C18   A    
C5    H12   S    
C35   C36   A    
C29   C30   A    
C25   C38   A    
C4    O3    A    
C10   H23   S    
C19   F1    S    
C8    C22   A    
C47   C48   A    
C12   C23   A    
C4    C39   S    
C36   H29   S    
O8    Zn2   S    
C17   C18   A    
C26   C27   A    
C27   N10   S    
C32   C37   A    
C7    H26   S    
C28   O7    A    
C15   C24   A    
O7    Zn1   S    
C6    C40   A    
C2    C5    A    
C12   C34   A    
H17   N8    S    
C44   C45   A    
H13   N6    S    
N1    Zn1   S    
C31   C36   A    
H21   N10   S    
H22   N2    S    
C12   C43   A    
H10   N5    S    
C23   C41   A    
C8    N5    S    
C2    C48   A    
C32   C33   A    
C2    C3    A    
H7    N4    S    
C11   F2    S    
C47   H6    S    
C30   C32   A    
C11   C13   A    
C16   O6    A    
C5    C6    A    
C29   H28   S    
C26   N3    A    
H20   N10   S    
C46   H1    S    
C35   H27   S    
C33   C35   A    
C22   N4    S    
C16   O5    A    
C17   C21   A    
C10   C11   A    
H19   N9    S    
O2    Zn2   S    
C1    C24   S    
C1    O1    A    
C14   C15   A    
C37   N1    A    
C34   C47   A    
O5    Zn1   S    
N3    Zn2   S    
O3    Zn1   S    
C25   C33   A    
