data_mof_unit_37662.cif
_audit_creation_date              2012-12-10T17:56:45-0500
_audit_creation_method            fapswitch 2.2
_symmetry_space_group_name_H-M    P1
_symmetry_Int_Tables_number       1
_space_group_crystal_system       triclinic
_cell_length_a                    10.750415
_cell_length_b                    9.58368
_cell_length_c                    10.846855
_cell_angle_alpha                 91.445218
_cell_angle_beta                  91.573009
_cell_angle_gamma                 90.378657
_cell_volume                      1116.72930441

loop_
_atom_site_label
_atom_site_type_symbol
_atom_type_description
_atom_site_fract_x
_atom_site_fract_y
_atom_site_fract_z
_atom_type_partial_charge
C1    C     C_R   0.262499 0.499535 0.496948 0.816090
C2    C     C_R   0.737276 0.500281 0.496471 0.793795
C3    C     C_R   0.938410 0.567943 0.584056 -0.242393
C4    C     C_R   0.066535 0.567254 0.584765 -0.232604
C5    C     C_R   0.412203 0.073624 0.434572 -0.035920
C6    C     C_R   0.588874 0.078504 0.564174 -0.037587
C7    C     C_R   0.410106 0.925753 0.434268 0.259315
C8    C     C_R   0.591012 0.930587 0.563976 0.232557
C9    C     C_R   0.508896 0.498665 0.263204 0.767914
C10   C     C_R   0.497673 0.503095 0.738303 0.790122
C11   C     C_R   0.636081 0.722567 0.134466 -0.204971
C12   C     C_R   0.541746 0.769821 0.898833 -0.249287
C13   C     C_R   0.651652 0.854333 0.084666 0.222918
C14   C     C_R   0.597904 0.880336 0.967964 0.214137
C15   C     C_R   0.535567 0.632713 0.944880 0.053507
C16   C     C_R   0.566203 0.616830 0.070579 0.051823
C17   C     C_R   0.522783 0.497172 0.130079 -0.087543
C18   C     C_R   0.497239 0.511029 0.873749 -0.091881
C19   C     C_R   0.475974 0.382829 0.061022 -0.216003
C20   C     C_R   0.468285 0.387814 0.933966 -0.206944
C21   C     C_R   0.062588 0.435718 0.388130 0.177599
C22   C     C_R   0.930991 0.437031 0.386800 0.181107
C23   C     C_R   0.870838 0.501165 0.487944 -0.052183
C24   C     C_R   0.128302 0.499103 0.489719 -0.064141
Cu1   Cu    Cu3+1 0.500000 0.640660 0.500000 0.925820
Cu2   Cu    Cu3+1 0.500000 0.359340 0.500000 0.935208
H1    H     H_    0.443394 0.289894 0.105382 0.158581
H2    H     H_    0.435337 0.295727 0.882716 0.166348
H3    H     H_    0.678072 0.703392 0.224244 0.167570
H4    H     H_    0.496055 0.797090 0.813601 0.191474
H5    H     H_    0.891537 0.618248 0.660259 0.150317
H6    H     H_    0.117991 0.617684 0.661059 0.150835
H7    H     H_    0.342263 0.129961 0.383106 0.129185
H8    H     H_    0.660023 0.138667 0.614595 0.147537
N1    N     N_R   0.500000 0.852070 0.500000 -0.158772
N2    N     N_R   0.500000 0.147940 0.500000 -0.194436
O1    O     O_R   0.319640 0.618740 0.499990 -0.582203
O2    O     O_R   0.680360 0.618740 0.500010 -0.587941
O3    O     O_R   0.319620 0.381170 0.499990 -0.576759
O4    O     O_R   0.680380 0.381170 0.500010 -0.576196
O5    O     O_R   0.500000 0.618810 0.319650 -0.587331
O6    O     O_R   0.500000 0.618810 0.680350 -0.603122
O7    O     O_R   0.499970 0.381240 0.319640 -0.584893
O8    O     O_R   0.500030 0.381240 0.680360 -0.574637
C25   C     C_3   0.719642 0.967235 0.159485 -0.865646
H9    H     H_    0.756040 0.928374 0.249027 0.227398
H10   H     H_    0.799701 0.006329 0.107496 0.231526
H11   H     H_    0.655727 0.054938 0.179636 0.243114
C26   C     C_3   0.598739 0.025156 0.917059 -0.887906
H12   H     H_    0.548512 0.029461 0.826516 0.228665
H13   H     H_    0.551918 0.097658 0.981715 0.238448
H14   H     H_    0.695935 0.061097 0.905249 0.236920
C27   C     C_3   0.134725 0.372164 0.282416 -0.870058
H15   H     H_    0.186978 0.280441 0.315027 0.231412
H16   H     H_    0.076294 0.335980 0.202312 0.236954
H17   H     H_    0.201267 0.450396 0.248088 0.218774
C28   C     C_3   0.857098 0.374633 0.277368 -0.878116
H18   H     H_    0.755331 0.385144 0.284684 0.232352
H19   H     H_    0.881890 0.428936 0.192133 0.228410
H20   H     H_    0.877504 0.261560 0.267117 0.243091
C29   C     C_3   0.302909 0.857031 0.363152 -0.786678
H21   H     H_    0.260082 0.929430 0.296020 0.174738
H22   H     H_    0.331261 0.765835 0.307498 0.266035
H23   H     H_    0.228535 0.829390 0.427215 0.235653
C30   C     C_3   0.700551 0.866515 0.630005 -0.817728
H24   H     H_    0.744205 0.940874 0.698683 0.190353
H25   H     H_    0.674203 0.774171 0.681847 0.267282
H26   H     H_    0.773108 0.840550 0.562575 0.238991

loop_
_geom_bond_atom_site_label_1
_geom_bond_atom_site_label_2
_ccdc_geom_bond_type
Cu1   O6    S    
C29   H23   S    
C21   C27   S    
C13   C14   A    
Cu1   O2    S    
C10   O6    A    
C19   H1    S    
C11   C16   A    
C2    O2    A    
C15   C18   A    
C9    O5    A    
C19   C20   A    
C12   C15   A    
C1    O1    A    
C30   H26   S    
Cu1   O1    S    
C21   C22   A    
C26   H14   S    
C22   C28   S    
C27   H16   S    
C12   C14   A    
C21   C24   A    
Cu2   O8    S    
C8    C30   S    
Cu1   O5    S    
C25   H9    S    
C27   H17   S    
C3    H5    S    
C11   C13   A    
Cu2   O4    S    
C28   H18   S    
C4    H6    S    
C6    H8    S    
C7    N1    A    
Cu1   N1    S    
C9    C17   S    
C17   C19   A    
C10   C18   S    
Cu2   O7    S    
C30   H24   S    
C18   C20   A    
C25   H10   S    
C29   H21   S    
C4    C24   A    
Cu2   O3    S    
C9    O7    A    
C14   C26   S    
C28   H19   S    
C11   H3    S    
C1    O3    A    
C10   O8    A    
C15   C16   A    
C5    N2    A    
C2    O4    A    
C13   C25   S    
C1    C24   S    
C29   H22   S    
C26   H12   S    
C25   H11   S    
Cu2   N2    S    
C2    C23   S    
C5    C7    A    
C26   H13   S    
C22   C23   A    
C7    C29   S    
C28   H20   S    
C6    C8    A    
C20   H2    S    
C12   H4    S    
Cu1   Cu2   S    
C27   H15   S    
C3    C23   A    
C3    C4    A    
C6    N2    A    
C16   C17   A    
C30   H25   S    
C8    N1    A    
C5    H7    S    
