data_mof_unit_33653.cif
_audit_creation_date              2012-12-11T15:37:14-0500
_audit_creation_method            fapswitch 2.2
_symmetry_space_group_name_H-M    P1
_symmetry_Int_Tables_number       1
_space_group_crystal_system       triclinic
_cell_length_a                    8.196146
_cell_length_b                    17.355699
_cell_length_c                    19.013991
_cell_angle_alpha                 98.240329
_cell_angle_beta                  94.347153
_cell_angle_gamma                 97.49862
_cell_volume                      2641.58246275

loop_
_atom_site_label
_atom_site_type_symbol
_atom_type_description
_atom_site_fract_x
_atom_site_fract_y
_atom_site_fract_z
_atom_type_partial_charge
Ba1   Ba    Ba6+2 0.162080 0.538580 0.468810 1.636643
Ba2   Ba    Ba6+2 0.648090 0.461410 0.531130 1.636012
C1    C     C_3   0.438219 0.749503 0.225798 0.220381
C2    C     C_3   0.605157 0.782216 0.504777 -0.015483
C3    C     C_2   0.681441 0.866156 0.502060 -0.092293
C4    C     C_3   0.909770 0.750847 0.324044 0.292184
C5    C     C_2   0.847692 0.887698 0.514264 0.001180
C6    C     C_2   0.953014 0.826076 0.529539 -0.129023
C7    C     C_1   0.885515 0.751768 0.527129 0.064010
C8    C     C_R   0.101199 0.139362 0.531906 -0.124179
C9    C     C_R   0.168165 0.218686 0.539290 0.011864
C10   C     C_R   0.921011 0.248242 0.476716 0.062807
C11   C     C_R   0.853113 0.168087 0.468397 -0.118026
C12   C     C_3   0.416345 0.719592 0.296574 0.398479
C13   C     C_R   0.940612 0.112762 0.497460 0.006329
C14   C     C_2   0.929858 0.970791 0.517514 -0.075907
C15   C     C_2   0.859960 0.028734 0.490975 -0.075925
C16   C     C_3   0.935467 0.834783 0.308358 -0.348885
C17   C     C_R   0.075530 0.272987 0.514542 -0.295990
C18   C     C_R   0.617553 0.531254 0.300601 -0.272524
C19   C     C_R   0.460905 0.490790 0.275907 0.074788
C20   C     C_R   0.405235 0.482388 0.203265 -0.118694
C21   C     C_R   0.506277 0.514909 0.155049 -0.002909
C22   C     C_R   0.666184 0.554033 0.180714 -0.145920
C23   C     C_3   0.569786 0.700917 0.655425 0.309846
C24   C     C_R   0.722399 0.560409 0.253137 0.010931
C25   C     C_R   0.467897 0.570844 0.041248 -0.127703
C26   C     C_R   0.411926 0.563473 0.968157 0.394472
C27   C     C_R   0.336951 0.489384 0.930687 0.047471
C28   C     C_3   0.758964 0.365764 0.311282 0.308883
C29   C     C_R   0.313815 0.425172 0.968080 -0.158872
C30   C     C_R   0.367467 0.433498 0.040801 -0.087342
C31   C     C_R   0.446686 0.506179 0.077969 0.029528
C32   C     C_R   0.127451 0.438627 0.823931 -0.101296
C33   C     C_R   0.079045 0.431574 0.750500 0.028595
C34   C     C_3   0.617162 0.787327 0.687021 -0.374122
C35   C     C_R   0.342786 0.503049 0.733095 0.016166
C36   C     C_R   0.392847 0.509861 0.805936 -0.066150
C37   C     C_R   0.285509 0.478235 0.852444 0.015806
C38   C     C_R   0.188981 0.461741 0.705428 -0.298178
C39   C     C_3   0.737094 0.345006 0.230318 -0.386734
C40   C     C_3   0.044913 0.630177 0.687420 0.286948
C41   C     C_3   0.075077 0.649948 0.768335 -0.357326
C42   C     C_3   0.246501 0.301771 0.369103 0.305723
C43   C     C_3   0.216524 0.213119 0.345576 -0.379019
C44   C     C_2   0.289328 0.218573 0.809644 0.864172
C45   C     C_3   0.853934 0.242726 0.672079 0.351804
C46   C     C_3   0.802246 0.158804 0.684786 -0.327405
C47   C     C_3   0.392733 0.293406 0.714867 0.291523
C48   C     C_3   0.427376 0.274849 0.790305 -0.169648
C49   C     C_2   0.733469 0.726936 0.497959 -0.275148
H1    H     H_    0.283853 0.697468 0.298278 0.086581
H2    H     H_    0.128915 0.322020 0.382526 0.010670
H3    H     H_    0.338285 0.315369 0.416762 0.069339
H4    H     H_    0.398603 0.700448 0.180736 -0.016229
H5    H     H_    0.121436 0.197795 0.299086 0.130803
H6    H     H_    0.172857 0.182741 0.389489 0.063311
H7    H     H_    0.333218 0.192159 0.330316 0.132394
H8    H     H_    0.489613 0.670463 0.298717 -0.105681
H9    H     H_    0.571007 0.770726 0.223023 0.078407
H10   H     H_    0.684574 0.676739 0.642402 0.028012
H11   H     H_    0.484898 0.695952 0.606105 0.030438
H12   H     H_    0.631865 0.297003 0.213675 0.131220
H13   H     H_    0.694351 0.792931 0.738593 0.141448
H14   H     H_    0.689531 0.818979 0.650304 0.060538
H15   H     H_    0.504094 0.814855 0.696178 0.125459
H16   H     H_    0.877358 0.873270 0.347982 0.092957
H17   H     H_    0.795296 0.248596 0.618880 0.069958
H18   H     H_    0.990547 0.252870 0.672297 -0.025458
H19   H     H_    0.665488 0.145431 0.681286 0.156443
H20   H     H_    0.848440 0.116910 0.643898 0.069426
H21   H     H_    0.854124 0.150687 0.738340 0.133466
H22   H     H_    0.263538 0.305488 0.706674 -0.043789
H23   H     H_    0.711899 0.396859 0.205759 0.062322
H24   H     H_    0.477772 0.347231 0.710362 0.095952
H25   H     H_    0.441633 0.330051 0.829232 0.002812
H26   H     H_    0.970873 0.750869 0.378183 0.081692
H27   H     H_    0.545600 0.250168 0.794592 0.125726
H28   H     H_    0.736719 0.014729 0.463286 0.083246
H29   H     H_    0.084689 0.843049 0.544250 0.098734
H30   H     H_    0.176676 0.100016 0.553061 0.076003
H31   H     H_    0.055019 0.982891 0.542779 0.077501
H32   H     H_    0.598838 0.909036 0.495308 0.071324
H33   H     H_    0.732438 0.148965 0.439334 0.091119
H34   H     H_    0.851549 0.325492 0.210682 0.128364
H35   H     H_    0.699677 0.666791 0.470940 0.072201
H36   H     H_    0.128182 0.334336 0.520949 0.073828
H37   H     H_    0.513572 0.541617 0.826430 0.119135
H38   H     H_    0.774910 0.731532 0.323177 -0.022062
H39   H     H_    0.525574 0.627522 0.069894 0.056036
H40   H     H_    0.283726 0.450387 0.184450 0.083766
H41   H     H_    0.256816 0.367897 0.940568 0.119896
H42   H     H_    0.350163 0.382526 0.067724 0.082630
H43   H     H_    0.040639 0.416083 0.858812 0.093081
H44   H     H_    0.748077 0.577438 0.144368 0.082349
H45   H     H_    0.153992 0.607970 0.665884 0.012638
H46   H     H_    0.150301 0.457982 0.649190 0.066950
H47   H     H_    0.661258 0.536515 0.356465 0.065864
H48   H     H_    0.069741 0.856811 0.311815 0.152214
H49   H     H_    0.878217 0.837089 0.254008 0.125978
H50   H     H_    0.642739 0.382638 0.330170 0.007607
H51   H     H_    0.860668 0.415687 0.326386 0.060436
H52   H     H_    0.230315 0.787670 0.206520 0.318579
H53   H     H_    0.056094 0.201928 0.837015 0.312217
H54   H     H_    0.479796 0.674988 0.966721 0.307449
H55   H     H_    0.936003 0.583985 0.673613 0.072796
H56   H     H_    0.189879 0.692612 0.783707 0.154723
H57   H     H_    0.088077 0.596167 0.792036 0.074906
H58   H     H_    0.969079 0.675997 0.790108 0.124249
O1    O     O_2   0.166667 0.691630 0.546720 -0.470180
O2    O     O_2   0.743031 0.440990 0.746755 -0.501191
O3    O     O_3   0.801328 0.295457 0.725998 -0.586546
O4    O     O_3   0.893830 0.593690 0.541700 -0.494215
O5    O     O_3   0.426330 0.460710 0.414310 -0.489641
O6    O     O_2   0.638540 0.536570 0.671920 -0.466586
O7    O     O_3   0.490526 0.661849 0.705728 -0.630175
O8    O     O_2   0.507142 0.216811 0.533101 -0.489588
O9    O     O_3   0.421897 0.230402 0.664336 -0.605092
O10   O     O_3   0.390350 0.644650 0.417800 -0.487288
O11   O     O_2   0.268568 0.777724 0.452444 -0.496122
O12   O     O_3   0.304606 0.337292 0.312601 -0.635154
O13   O     O_3   0.017683 0.698526 0.660156 -0.632914
O14   O     O_3   0.472514 0.780609 0.353543 -0.599974
O15   O     O_2   0.171750 0.463380 0.328050 -0.466631
O16   O     O_3   0.965290 0.605410 0.380210 -0.484445
O17   O     O_2   0.065432 0.560912 0.252346 -0.491476
O18   O     O_3   0.347342 0.811668 0.219664 -0.688112
O19   O     O_2   0.311684 0.151852 0.817222 -0.591112
O20   O     O_R   0.136746 0.243580 0.820685 -0.781227
O21   O     O_3   0.425433 0.628098 0.933059 -0.741858
O22   O     O_3   0.979734 0.702028 0.272626 -0.614357
O23   O     O_2   0.643630 0.308330 0.453260 -0.463452
O24   O     O_3   0.916470 0.406310 0.458240 -0.498741
O25   O     O_3   0.419940 0.355340 0.582140 -0.488858
O26   O     O_3   0.795655 0.299581 0.339888 -0.632064
O27   O     O_3   0.383960 0.539280 0.585630 -0.474761
O28   O     O_3   0.845010 0.394580 0.619730 -0.490135
P1    P     P_3+3 0.992230 0.679190 0.566750 0.983660
P2    P     P_3+3 0.339610 0.439630 0.337240 0.986271
P3    P     P_3+3 0.933610 0.605004 0.288251 0.936263
P4    P     P_3+3 0.818060 0.320800 0.433200 0.983699
P5    P     P_3+3 0.867486 0.391497 0.711639 0.954650
P6    P     P_3+3 0.431662 0.747044 0.434068 0.966254
P7    P     P_3+3 0.461545 0.560515 0.675637 0.958290
P8    P     P_3+3 0.380375 0.253749 0.578738 0.948993

loop_
_geom_bond_atom_site_label_1
_geom_bond_atom_site_label_2
_ccdc_geom_bond_type
O28   P5    S    
C35   P7    S    
O10   P6    S    
O15   P2    D    
C7    C49   D    
C44   O20   S    
C5    C6    S    
C25   C31   A    
C12   H8    S    
C11   H33   S    
C43   H6    S    
Ba2   O25   S    
Ba1   O4    S    
C40   H45   S    
C44   O19   D    
C26   C27   A    
Ba1   O16   S    
C32   C33   A    
C35   C38   A    
C17   H36   S    
C8    C13   A    
C36   C37   A    
C3    H32   S    
Ba2   O4    S    
C1    O18   S    
Ba2   O6    S    
C45   O3    S    
C42   O12   S    
C15   H28   S    
C10   P4    S    
C49   H35   S    
C25   H39   S    
O8    P8    D    
Ba1   Ba2   S    
Ba1   O10   S    
O3    P5    S    
C47   C48   S    
C45   H18   S    
O22   P3    S    
O2    P5    D    
C39   H23   S    
O7    P7    S    
C1    H4    S    
C42   H2    S    
C12   H1    S    
C29   C30   A    
C43   H5    S    
C14   C15   D    
C21   C31   S    
Ba2   O23   S    
C20   H40   S    
C47   H24   S    
C28   C39   S    
Ba1   O27   S    
H52   O18   S    
C40   C41   S    
C26   O21   S    
Ba1   P2    S    
C23   H11   S    
C1    H9    S    
C30   H42   S    
C19   C20   A    
C28   H51   S    
O11   P6    D    
C16   H49   S    
C46   H21   S    
Ba1   O24   S    
C48   H27   S    
C2    P6    S    
O16   P3    S    
C4    C16   S    
C43   H7    S    
Ba2   O24   S    
C2    C49   S    
C32   C37   A    
C32   H43   S    
O1    P1    D    
O13   P1    S    
C22   H44   S    
C38   H46   S    
C3    C5    D    
C34   H14   S    
C6    C7    D    
C4    H26   S    
C41   H56   S    
C33   P5    S    
C16   H16   S    
Ba2   O27   S    
C36   H37   S    
C35   C36   A    
C48   H25   S    
Ba1   O1    S    
C7    P1    S    
C45   C46   S    
O26   P4    S    
C21   C22   A    
C9    C17   A    
C27   C37   S    
C14   H31   S    
C23   H10   S    
O5    P2    S    
C18   C19   A    
C40   H55   S    
C1    C12   S    
C5    C14   S    
C29   H41   S    
H53   O20   S    
C11   C13   A    
C47   H22   S    
C23   O7    S    
Ba1   O5    S    
C39   H12   S    
C46   H20   S    
C45   H17   S    
C42   C43   S    
C40   O13   S    
O23   P4    D    
C13   C15   S    
O25   P8    S    
O6    P7    D    
C12   O14   S    
O4    P1    S    
Ba2   O28   S    
O24   P4    S    
O9    P8    S    
C9    P8    S    
O17   P3    D    
C46   H19   S    
C4    O22   S    
H54   O21   S    
C4    H38   S    
C39   H34   S    
C44   C48   S    
C8    H30   S    
C24   P3    S    
C30   C31   A    
O12   P2    S    
C33   C38   A    
Ba1   O15   S    
O27   P7    S    
Ba2   O5    S    
C22   C24   A    
C18   C24   A    
C10   C17   A    
C28   H50   S    
C34   H15   S    
C41   H57   S    
C8    C9    A    
C23   C34   S    
C47   O9    S    
C42   H3    S    
C2    C3    S    
C18   H47   S    
C10   C11   A    
C27   C29   A    
C28   O26   S    
C16   H48   S    
O14   P6    S    
C25   C26   A    
C6    H29   S    
Ba2   P4    S    
C19   P2    S    
C20   C21   A    
C41   H58   S    
C34   H13   S    
Ba1   P1    S    
