data_mof_unit_20910.cif
_audit_creation_date              2012-12-11T21:14:57-0500
_audit_creation_method            fapswitch 2.2
_symmetry_space_group_name_H-M    P1
_symmetry_Int_Tables_number       1
_space_group_crystal_system       triclinic
_cell_length_a                    8.223295
_cell_length_b                    18.787397
_cell_length_c                    26.992031
_cell_angle_alpha                 99.47699
_cell_angle_beta                  92.589361
_cell_angle_gamma                 88.169233
_cell_volume                      4107.72963095

loop_
_atom_site_label
_atom_site_type_symbol
_atom_type_description
_atom_site_fract_x
_atom_site_fract_y
_atom_site_fract_z
_atom_type_partial_charge
Ba1   Ba    Ba6+2 0.160810 0.465630 0.521640 1.685301
Ba2   Ba    Ba6+2 0.649380 0.534380 0.478400 1.674103
C1    C     C_3   0.414103 0.282827 0.700248 -0.342501
C2    C     C_3   0.428249 0.306348 0.649449 0.336259
C3    C     C_3   0.442717 0.312098 0.392406 0.863470
C4    C     C_3   0.411864 0.232398 0.375532 -0.304915
C5    C     C_3   0.867988 0.724186 0.379092 0.354713
C6    C     C_3   0.871540 0.799209 0.365048 -0.353358
C7    C     C_3   0.357395 0.700068 0.350488 0.285071
C8    C     C_3   0.394738 0.715164 0.298654 -0.322157
C9    C     C_R   0.992209 0.047911 0.476981 0.007711
C10   C     C_R   0.076431 0.094701 0.452000 0.034683
C11   C     C_R   0.221789 0.070423 0.428750 -0.079023
C12   C     C_3   0.958832 0.270818 0.624658 0.370288
C13   C     C_R   0.283655 0.000682 0.430387 -0.085928
C14   C     C_R   0.199288 0.953103 0.454303 0.032006
C15   C     C_R   0.052745 0.976543 0.477620 0.016398
C16   C     C_R   0.258046 0.882222 0.454256 -0.110300
C17   C     C_R   0.169951 0.832636 0.475758 -0.034784
C18   C     C_R   0.023764 0.856318 0.500166 0.000626
C19   C     C_R   0.966455 0.928648 0.501206 -0.005505
C20   C     C_R   0.221430 0.759580 0.472658 -0.011753
C21   C     C_R   0.124997 0.711152 0.491687 -0.306865
C22   C     C_R   0.985458 0.733899 0.518138 0.050329
C23   C     C_3   0.987164 0.197622 0.641120 -0.356239
C24   C     C_R   0.934387 0.807887 0.523294 -0.028600
C25   C     C_R   0.846526 0.072006 0.500522 -0.001689
C26   C     C_R   0.788477 0.144159 0.501109 -0.009321
C27   C     C_R   0.877218 0.192408 0.477627 -0.065814
C28   C     C_R   0.015693 0.165175 0.450950 -0.032142
C29   C     C_R   0.795406 0.834924 0.549842 -0.012315
C30   C     C_R   0.735000 0.905515 0.548993 0.027258
C31   C     C_R   0.820504 0.952665 0.524637 0.008004
C32   C     C_R   0.759986 0.024048 0.523989 0.017499
C33   C     C_R   0.588150 0.929391 0.571513 -0.066424
C34   C     C_3   0.840890 0.621027 0.631398 0.309839
C35   C     C_R   0.526619 0.999255 0.569955 -0.082247
C36   C     C_R   0.612302 0.047198 0.546678 0.027192
C37   C     C_R   0.641104 0.167595 0.524816 -0.042805
C38   C     C_R   0.552873 0.117927 0.546276 -0.102851
C39   C     C_R   0.587638 0.240270 0.526706 -0.020187
C40   C     C_R   0.682684 0.288551 0.507080 -0.249994
C41   C     C_R   0.824952 0.266224 0.482058 0.107844
C42   C     C_R   0.300385 0.455977 0.175609 0.588220
C43   C     C_R   0.178637 0.573958 0.176204 0.622960
C44   C     C_2   0.030560 0.531819 0.269521 -0.070961
C45   C     C_3   0.840468 0.638419 0.688452 -0.320499
C46   C     C_3   0.993687 0.524223 0.323012 -0.052102
C47   C     C_1   0.280199 0.497933 0.337128 -0.003334
C48   C     C_2   0.316791 0.502325 0.290502 -0.091431
C49   C     C_2   0.184606 0.518806 0.253380 0.193698
C50   C     C_R   0.304543 0.511747 0.100080 -0.151757
C51   C     C_R   0.345460 0.453436 0.125603 -0.005791
C52   C     C_R   0.431599 0.393538 0.100837 -0.052774
C53   C     C_R   0.219073 0.572411 0.125465 -0.120938
C54   C     C_2   0.147169 0.529678 0.356244 -0.290349
C55   C     C_2   0.646754 0.470728 0.637138 -0.293455
C56   C     C_3   0.978211 0.371318 0.366249 0.352027
C57   C     C_R   0.473112 0.443345 0.972838 0.020078
C58   C     C_R   0.355081 0.566051 0.972996 0.046152
C59   C     C_R   0.435180 0.503093 0.947639 0.055238
C60   C     C_R   0.548992 0.381303 0.945480 -0.104437
C61   C     C_R   0.586953 0.378226 0.895624 -0.055746
C62   C     C_R   0.552297 0.436879 0.870544 -0.022530
C63   C     C_R   0.477685 0.499669 0.896437 -0.084403
C64   C     C_R   0.445660 0.558869 0.871121 -0.038627
C65   C     C_R   0.490425 0.554699 0.820583 0.601681
C66   C     C_R   0.589924 0.433121 0.819783 0.576538
C67   C     C_3   0.008967 0.343351 0.311098 -0.369457
C68   C     C_2   0.737642 0.452987 0.724451 -0.082589
C69   C     C_3   0.749441 0.426506 0.669002 -0.051468
C70   C     C_1   0.519447 0.508884 0.656355 0.029675
C71   C     C_2   0.479674 0.512481 0.704091 -0.099990
C72   C     C_2   0.597923 0.486140 0.741857 0.186758
C73   C     C_R   0.433352 0.447044 0.024091 0.044133
C74   C     C_R   0.348791 0.509078 0.049090 0.046847
C75   C     C_R   0.308016 0.568310 0.023653 -0.059733
C76   C     C_R   0.475402 0.390454 0.051496 -0.098908
C77   C     C_R   0.176889 0.629982 0.099507 0.644302
C78   C     C_3   0.330708 0.685821 0.592416 0.342582
C79   C     C_R   0.325416 0.624762 0.946495 -0.091539
C80   C     C_R   0.370201 0.621197 0.896924 -0.053810
C81   C     C_R   0.220061 0.627773 0.049929 -0.141052
C82   C     C_3   0.326090 0.767200 0.609527 0.531787
H1    H     H_    0.363960 0.359512 0.650372 0.081335
H2    H     H_    0.746806 0.681099 0.700195 0.142084
H3    H     H_    0.812745 0.589571 0.704194 0.054733
H4    H     H_    0.962090 0.657473 0.703743 0.157545
H5    H     H_    0.092123 0.392580 0.385496 -0.040528
H6    H     H_    0.883209 0.414883 0.369019 0.059038
H7    H     H_    0.092600 0.295338 0.307869 0.141203
H8    H     H_    0.065699 0.384784 0.293243 0.076680
H9    H     H_    0.892102 0.327782 0.290490 0.129803
H10   H     H_    0.205587 0.667367 0.582377 -0.014840
H11   H     H_    0.407482 0.673310 0.559137 -0.035470
H12   H     H_    0.286066 0.270782 0.706391 0.151672
H13   H     H_    0.286072 0.795223 0.577851 -0.098516
H14   H     H_    0.449733 0.785584 0.623188 0.005924
H15   H     H_    0.559257 0.311329 0.642940 -0.052104
H16   H     H_    0.453632 0.326965 0.730220 0.132407
H17   H     H_    0.378570 0.329804 0.427773 -0.005183
H18   H     H_    0.474518 0.212384 0.340132 0.129959
H19   H     H_    0.459899 0.201725 0.405089 0.051483
H20   H     H_    0.279169 0.223674 0.369112 0.037732
H21   H     H_    0.491822 0.233896 0.702417 0.118071
H22   H     H_    0.925123 0.155427 0.613705 0.072224
H23   H     H_    0.769630 0.723780 0.405845 0.106688
H24   H     H_    0.986652 0.712345 0.397424 -0.055908
H25   H     H_    0.751576 0.812751 0.347590 0.142255
H26   H     H_    0.896612 0.839912 0.399218 0.069237
H27   H     H_    0.968844 0.801220 0.337946 0.132726
H28   H     H_    0.226391 0.712373 0.356740 -0.016101
H29   H     H_    0.384552 0.642060 0.351240 0.066348
H30   H     H_    0.320552 0.680176 0.269676 0.127232
H31   H     H_    0.525640 0.703589 0.291458 0.155080
H32   H     H_    0.009712 0.268483 0.586961 0.076676
H33   H     H_    0.365612 0.772598 0.296021 0.128729
H34   H     H_    0.288226 0.105420 0.409366 0.067449
H35   H     H_    0.396598 0.983622 0.412286 0.075898
H36   H     H_    0.163710 0.655014 0.487943 0.067165
H37   H     H_    0.371047 0.866019 0.436213 0.110509
H38   H     H_    0.080283 0.198608 0.429964 0.090222
H39   H     H_    0.729685 0.801214 0.570385 0.089570
H40   H     H_    0.519802 0.893811 0.589981 0.065812
H41   H     H_    0.412427 0.015999 0.587387 0.080817
H42   H     H_    0.438383 0.133702 0.563492 0.111619
H43   H     H_    0.824956 0.280625 0.621728 -0.082278
H44   H     H_    0.641433 0.344230 0.509459 0.087715
H45   H     H_    0.440247 0.491126 0.278391 0.121764
H46   H     H_    0.466815 0.348356 0.119741 0.123547
H47   H     H_    0.831242 0.435926 0.749941 0.124053
H48   H     H_    0.644483 0.329054 0.876692 0.126568
H49   H     H_    0.579437 0.333118 0.961023 0.073422
H50   H     H_    0.543996 0.342639 0.036296 0.070474
H51   H     H_    0.930842 0.540359 0.243218 0.104717
H52   H     H_    0.269051 0.675128 0.963050 0.080484
H53   H     H_    0.119259 0.183717 0.642926 0.148345
H54   H     H_    0.344195 0.667851 0.878674 0.132338
H55   H     H_    0.360118 0.533018 0.715733 0.135961
H56   H     H_    0.180310 0.673882 0.033063 0.110943
H57   H     H_    0.146735 0.555637 0.395300 0.065592
H58   H     H_    0.658545 0.458114 0.596744 0.082414
H59   H     H_    0.936816 0.198550 0.678744 0.123673
H60   H     H_    0.717641 0.605263 0.616629 -0.009265
H61   H     H_    0.928583 0.575560 0.620765 0.073659
N1    N     N_R   0.220682 0.516322 0.200781 -0.438633
N2    N     N_R   0.559807 0.491753 0.794913 -0.422896
O1    O     O_2   0.106080 0.324280 0.466820 -0.501391
O2    O     O_3   0.395321 0.652863 0.631962 -0.616702
O3    O     O_3   0.036224 0.324628 0.659576 -0.589286
O4    O     O_2   0.704230 0.675760 0.533200 -0.477333
O5    O     O_3   0.951180 0.586390 0.529420 -0.498565
O6    O     O_3   0.434080 0.629720 0.443130 -0.474325
O7    O     O_3   0.885479 0.682606 0.612939 -0.600353
O8    O     O_3   0.351080 0.462080 0.440130 -0.480139
O9    O     O_3   0.839200 0.593040 0.416790 -0.491029
O10   O     O_2   0.660153 0.562012 0.332488 -0.498766
O11   O     O_3   0.839792 0.673690 0.335368 -0.587941
O12   O     O_3   0.859130 0.413620 0.470620 -0.460495
O13   O     O_3   0.459240 0.537930 0.559910 -0.489961
O14   O     O_2   0.583120 0.462390 0.379940 -0.418526
O15   O     O_3   0.388185 0.350478 0.354220 -0.658078
O16   O     O_2   0.559580 0.756586 0.479566 -0.504154
O17   O     O_3   0.454531 0.743555 0.386638 -0.604514
O18   O     O_2   0.330608 0.403882 0.196660 -0.594669
O19   O     O_2   0.648283 0.376837 0.797593 -0.619409
O20   O     O_2   0.107618 0.626864 0.198677 -0.517500
O21   O     O_2   0.469411 0.607521 0.799766 -0.584483
O22   O     O_3   0.376230 0.370290 0.556910 -0.486495
O23   O     O_2   0.249629 0.243404 0.519786 -0.495611
O24   O     O_3   0.924684 0.313754 0.387284 -0.576759
O25   O     O_3   0.356793 0.254559 0.612244 -0.606547
O26   O     O_2   0.227190 0.537650 0.620070 -0.463509
O27   O     O_3   0.971110 0.406970 0.583250 -0.494696
O28   O     O_2   0.083157 0.464325 0.675112 -0.494986
P1    P     P_3+3 0.929380 0.335110 0.452880 1.070887
P2    P     P_3+3 0.398530 0.559060 0.613740 1.007637
P3    P     P_3+3 0.961331 0.408603 0.647671 0.946109
P4    P     P_3+3 0.880940 0.664900 0.547160 0.996575
P5    P     P_3+3 0.832174 0.587275 0.351475 0.972704
P6    P     P_3+3 0.393288 0.276712 0.553417 0.935088
P7    P     P_3+3 0.397793 0.443336 0.376594 1.011378
P8    P     P_3+3 0.416027 0.723107 0.445868 0.924120
F1    F     F_    0.218923 0.785235 0.647990 -0.668262
F2    F     F_    0.607125 0.320666 0.401179 -0.738360
F3    F     F_    0.092347 0.689276 0.121735 -0.647406

loop_
_geom_bond_atom_site_label_1
_geom_bond_atom_site_label_2
_ccdc_geom_bond_type
C65   O21   D    
C36   C38   A    
Ba1   P1    S    
Ba2   O8    S    
C77   F3    S    
C39   C40   A    
C17   C18   A    
C3    F2    S    
C78   C82   S    
C9    C25   A    
C29   H39   S    
C11   H34   S    
O8    P7    S    
C34   O7    S    
C5    C6    S    
C37   C39   A    
C5    O11   S    
C51   C52   A    
C1    H21   S    
C10   C11   A    
Ba1   O26   S    
C20   P8    S    
C55   H58   S    
Ba1   O5    S    
C82   H13   S    
C62   C66   A    
C69   P3    S    
C33   H40   S    
C33   C35   A    
C35   C36   A    
C22   C24   A    
O15   P7    S    
C67   H9    S    
C3    C4    S    
C19   C31   A    
C75   C81   A    
C13   C14   A    
C34   C45   S    
C16   C17   A    
C41   P1    S    
O14   P7    D    
Ba1   O8    S    
O11   P5    S    
C44   H51   S    
Ba1   P2    S    
O25   P6    S    
C28   H38   S    
Ba2   O12   S    
C68   C72   D    
C42   N1    Am   
C21   C22   A    
C1    H12   S    
C45   H4    S    
C4    H20   S    
C67   H8    S    
C7    C8    S    
O27   P3    S    
C8    H30   S    
C50   C53   A    
C40   H44   S    
O3    P3    S    
C7    H28   S    
C64   C65   A    
C24   C29   A    
C55   C70   D    
O7    P4    S    
C27   C41   A    
C39   P6    S    
C23   H59   S    
C70   P2    S    
C42   C51   A    
Ba2   O14   S    
C81   H56   S    
C56   H5    S    
C23   H22   S    
C79   C80   A    
O28   P3    D    
C35   H41   S    
C25   C32   A    
Ba2   O5    S    
C78   O2    S    
C52   H46   S    
C3    H17   S    
Ba1   O27   S    
C57   C59   A    
C46   P5    S    
O16   P8    D    
C43   N1    Am   
C45   H2    S    
O6    P8    S    
C72   N2    S    
C82   F1    S    
C17   C20   A    
C74   C75   A    
C1    H16   S    
C6    H27   S    
C21   H36   S    
C14   C15   A    
C2    H1    S    
C71   H55   S    
C26   C37   A    
C48   C49   S    
C61   H48   S    
C44   C49   D    
C15   C19   A    
C12   H43   S    
C61   C62   A    
C58   C59   A    
O10   P5    D    
C45   H3    S    
C7    O17   S    
C23   H53   S    
C73   C74   A    
C30   C33   A    
C60   C61   A    
C5    H24   S    
C48   H45   S    
C6    H26   S    
C64   C80   A    
C53   C77   A    
C58   C79   A    
O4    P4    D    
C29   C30   A    
Ba1   O12   S    
C38   H42   S    
C12   O3    S    
C22   P4    S    
O2    P2    S    
C31   C32   A    
O1    P1    D    
C4    H19   S    
C55   C69   S    
C78   H11   S    
C43   O20   D    
O22   P6    S    
C68   C69   S    
C66   N2    Am   
C56   H6    S    
C54   H57   S    
Ba2   O13   S    
C47   C48   D    
Ba2   O6    S    
O12   P1    S    
C11   C13   A    
O23   P6    D    
C65   N2    Am   
C5    H23   S    
Ba2   P4    S    
C78   H10   S    
C1    C2    S    
C26   C27   A    
C71   C72   S    
C57   C73   A    
C37   C38   A    
C50   C51   A    
C60   H49   S    
C79   H52   S    
Ba2   O4    S    
C46   C54   S    
C9    C15   A    
C57   C60   A    
Ba2   O9    S    
C2    O25   S    
C10   C28   A    
C32   C36   A    
Ba1   O13   S    
C58   C75   A    
C70   C71   D    
C50   C74   A    
C9    C10   A    
C56   C67   S    
C47   C54   D    
O24   P1    S    
C49   N1    S    
C82   H14   S    
C3    O15   S    
O5    P4    S    
C56   O24   S    
C34   H60   S    
C7    H29   S    
C80   H54   S    
O17   P8    S    
C6    H25   S    
C30   C31   A    
C77   C81   A    
O9    P5    S    
C18   C24   A    
C12   H32   S    
Ba1   Ba2   S    
C62   C63   A    
Ba1   O22   S    
C68   H47   S    
C13   H35   S    
C42   O18   D    
C4    H18   S    
C12   C23   S    
C73   C76   A    
O13   P2    S    
C16   H37   S    
C27   C28   A    
C47   P7    S    
C76   H50   S    
C44   C46   S    
C59   C63   A    
C34   H61   S    
C18   C19   A    
C43   C53   A    
C14   C16   A    
C63   C64   A    
C40   C41   A    
C2    H15   S    
C25   C26   A    
C8    H33   S    
C20   C21   A    
Ba1   O1    S    
O26   P2    D    
C67   H7    S    
C8    H31   S    
C52   C76   A    
C66   O19   D    
