data_mof_unit_8112.cif
_audit_creation_date              2012-10-26T19:21:05-0400
_audit_creation_method            fapswitch 2.2
_symmetry_space_group_name_H-M    P1
_symmetry_Int_Tables_number       1
_space_group_crystal_system       triclinic
_cell_length_a                    9.807874
_cell_length_b                    11.060893
_cell_length_c                    13.437889
_cell_angle_alpha                 94.388943
_cell_angle_beta                  81.44878
_cell_angle_gamma                 111.548643
_cell_volume                      1340.44923546

loop_
_atom_site_label
_atom_site_type_symbol
_atom_type_description
_atom_site_fract_x
_atom_site_fract_y
_atom_site_fract_z
_atom_type_partial_charge
C1    C     C_R   0.556881 0.745591 0.507352 0.558268
C2    C     C_R   0.376971 0.490867 0.800461 0.002516
C3    C     C_2   0.588947 0.884904 0.511416 -0.132965
C4    C     C_R   0.423666 0.494543 0.690828 0.533898
C5    C     C_2   0.483353 0.928970 0.498853 -0.122007
C6    C     C_2   0.407789 0.114285 0.488934 0.216303
C7    C     C_2   0.512037 0.067759 0.501859 -0.123440
C8    C     C_2   0.922285 0.489694 0.491565 -0.004188
C9    C     C_2   0.077174 0.509351 0.509152 -0.005845
C10   C     C_R   0.442736 0.254239 0.492825 0.581269
C11   C     C_R   0.578214 0.513389 0.309578 0.552229
C12   C     C_R   0.439212 0.506120 0.972395 0.045577
C13   C     C_R   0.808988 0.655247 0.067630 0.232729
C14   C     C_R   0.626567 0.537201 0.202027 -0.043920
C15   C     C_R   0.228432 0.421579 0.835718 -0.112244
C16   C     C_R   0.183937 0.397775 0.937488 -0.104192
C17   C     C_R   0.287569 0.436755 0.005015 -0.088607
C18   C     C_R   0.480822 0.543331 0.870392 0.033236
C19   C     C_R   0.550550 0.540918 0.037749 0.001146
C20   C     C_R   0.698243 0.621961 0.003137 0.058384
C21   C     C_R   0.731181 0.670386 0.905915 -0.105311
C22   C     C_R   0.624161 0.633404 0.841410 -0.125580
C23   C     C_R   0.519426 0.496509 0.136553 -0.132802
C24   C     C_R   0.772039 0.613547 0.166741 -0.089600
Cl1   Cl    Cl    0.226828 0.011962 0.467304 -0.594546
Cl2   Cl    Cl    0.994874 0.752255 0.028931 -0.601712
Cu1   Cu    Cu3+1 0.362000 0.479240 0.482530 0.992112
Cu2   Cu    Cu3+1 0.638000 0.520760 0.517470 0.964784
H1    H     H_    0.374555 0.861212 0.486054 0.217741
H2    H     H_    0.655095 0.679439 0.769226 0.147056
H3    H     H_    0.621942 0.133634 0.514946 0.124526
H4    H     H_    0.855801 0.645051 0.217134 0.175905
H5    H     H_    0.125882 0.577155 0.568141 0.154633
H6    H     H_    0.840067 0.737609 0.878511 0.179935
H7    H     H_    0.698547 0.951317 0.524467 0.128463
H8    H     H_    0.873015 0.420849 0.433300 0.146970
H9    H     H_    0.106178 0.384978 0.400208 0.214183
H10   H     H_    0.894986 0.617250 0.598286 0.216429
H11   H     H_    0.411326 0.430906 0.165598 0.136683
H12   H     H_    0.146752 0.382608 0.784151 0.142394
H13   H     H_    0.244301 0.413521 0.082483 0.114900
H14   H     H_    0.068696 0.344918 0.963931 0.137532
N1    N     N_2   0.845330 0.551960 0.543750 -0.341756
N2    N     N_2   0.154690 0.448120 0.456210 -0.346685
O1    O     O_R   0.426290 0.668220 0.490680 -0.498560
O2    O     O_R   0.659360 0.703290 0.520190 -0.478715
O3    O     O_R   0.326580 0.473880 0.629020 -0.501839
O4    O     O_R   0.559660 0.508940 0.658530 -0.500539
O5    O     O_R   0.340640 0.296710 0.479810 -0.438809
O6    O     O_R   0.573710 0.331780 0.509320 -0.528698
O7    O     O_R   0.440340 0.491060 0.341470 -0.489892
O8    O     O_R   0.673420 0.526120 0.370980 -0.497347

loop_
_geom_bond_atom_site_label_1
_geom_bond_atom_site_label_2
_ccdc_geom_bond_type
C12   C17   A    
C6    C10   S    
C2    C4    S    
C24   H4    S    
C6    C7    D    
C11   O8    A    
C2    C18   A    
Cu2   N1    S    
C19   C23   A    
C19   C20   A    
C8    N1    D    
C3    H7    S    
C1    O1    A    
C15   H12   S    
Cu1   O1    S    
H9    N2    S    
H10   N1    S    
C21   C22   A    
C9    H5    S    
C2    C15   A    
Cu2   O8    S    
Cu2   O2    S    
C16   C17   A    
C14   C24   A    
C23   H11   S    
C12   C19   A    
C14   C23   A    
Cu1   O7    S    
C5    H1    S    
C4    O4    A    
C13   Cl2   S    
C11   C14   S    
C17   H13   S    
C1    O2    A    
C6    Cl1   S    
C11   O7    A    
Cu1   O3    S    
C15   C16   A    
C10   O6    A    
C16   H14   S    
C7    H3    S    
C20   C21   A    
C8    H8    S    
C12   C18   A    
Cu1   Cu2   S    
C5    C7    S    
Cu2   O4    S    
C9    N2    D    
C21   H6    S    
C22   H2    S    
C13   C20   A    
C3    C5    D    
C18   C22   A    
C10   O5    A    
Cu2   O6    S    
Cu1   N2    S    
Cu1   O5    S    
C13   C24   A    
C8    C9    S    
C1    C3    S    
C4    O3    A    
