data_mof_unit_19917.cif
_audit_creation_date              2012-12-10T20:31:59-0500
_audit_creation_method            fapswitch 2.2
_symmetry_space_group_name_H-M    P1
_symmetry_Int_Tables_number       1
_space_group_crystal_system       triclinic
_cell_length_a                    9.891086
_cell_length_b                    10.692997
_cell_length_c                    15.434434
_cell_angle_alpha                 90.580753
_cell_angle_beta                  67.58445
_cell_angle_gamma                 90.472993
_cell_volume                      1508.99174122

loop_
_atom_site_label
_atom_site_type_symbol
_atom_type_description
_atom_site_fract_x
_atom_site_fract_y
_atom_site_fract_z
_atom_type_partial_charge
C1    C     C_R   0.499749 0.739775 0.501158 0.927962
C2    C     C_R   0.718613 0.597340 0.035769 0.001357
C3    C     C_R   0.577814 0.549674 0.089768 0.064027
C4    C     C_R   0.408034 0.501455 0.675964 0.917532
C5    C     C_R   0.819335 0.618170 0.078851 -0.193420
C6    C     C_R   0.781920 0.589638 0.173386 0.349161
C7    C     C_R   0.555493 0.498700 0.176892 -0.219359
C8    C     C_R   0.392349 0.934369 0.484196 0.045868
C9    C     C_R   0.493807 0.871561 0.509442 -0.097156
C10   C     C_R   0.580831 0.936729 0.548210 -0.135102
C11   C     C_R   0.579446 0.066199 0.548696 -0.170657
C12   C     C_R   0.400659 0.542571 0.915989 0.052166
C13   C     C_R   0.489612 0.128370 0.511481 -0.159867
C14   C     C_R   0.387408 0.061931 0.487076 0.140791
C15   C     C_3   0.357015 0.067628 0.399267 0.215030
C16   C     C_R   0.498434 0.260108 0.501540 0.863672
C17   C     C_3   0.368098 0.926267 0.394527 -0.466879
C18   C     C_R   0.890116 0.565935 0.566563 0.216910
C19   C     C_R   0.964128 0.428283 0.438387 -0.015931
C20   C     C_R   0.107987 0.428862 0.438136 0.027426
C21   C     C_R   0.032360 0.565010 0.567017 0.196943
C22   C     C_3   0.031433 0.702451 0.583138 -0.441541
C23   C     C_R   0.265632 0.485331 0.970609 0.031265
C24   C     C_3   0.879836 0.704352 0.580878 -0.464042
C25   C     C_R   0.592044 0.504142 0.323686 0.902770
C26   C     C_R   0.348180 0.505738 0.777748 -0.118592
C27   C     C_R   0.649484 0.526044 0.222378 -0.168712
C28   C     C_R   0.174222 0.437095 0.927565 -0.129072
C29   C     C_R   0.220277 0.440379 0.830289 -0.171547
C30   C     C_R   0.425601 0.570962 0.822723 0.316142
C31   C     C_R   0.506504 0.564597 0.955743 -0.016243
C32   C     C_R   0.466634 0.545557 0.052990 -0.022923
C33   C     C_R   0.316894 0.522251 0.109265 0.391765
C34   C     C_R   0.221867 0.482026 0.067489 -0.201049
C35   C     C_R   0.653531 0.594547 0.900090 -0.179502
C36   C     C_R   0.755918 0.618660 0.939928 0.374342
Cl1   Cl    Cl    0.174918 0.118606 0.423121 -0.626588
Cl2   Cl    Cl    0.899703 0.642303 0.227585 -0.548597
Cl3   Cl    Cl    0.933374 0.664949 0.864968 -0.638176
Cl4   Cl    Cl    0.512755 0.712587 0.771928 -0.645745
Cl5   Cl    Cl    0.235641 0.563839 0.228988 -0.596235
H1    H     H_    0.462427 0.438607 0.211389 0.199480
H2    H     H_    0.264692 0.877320 0.402432 0.251620
H3    H     H_    0.466124 0.891793 0.335089 0.187174
H4    H     H_    0.940037 0.372383 0.387186 0.170841
H5    H     H_    0.192626 0.374927 0.385925 0.195638
H6    H     H_    0.032868 0.726120 0.653055 0.253666
H7    H     H_    0.113721 0.752792 0.523643 0.227868
H8    H     H_    0.071500 0.391769 0.968458 0.156107
H9    H     H_    0.155980 0.393496 0.796364 0.179475
H10   H     H_    0.795323 0.732031 0.649219 0.255851
H11   H     H_    0.875508 0.754608 0.519273 0.233742
H12   H     H_    0.692753 0.596356 0.824626 0.206982
H13   H     H_    0.111589 0.453359 0.110937 0.198487
H14   H     H_    0.924804 0.660849 0.040870 0.231342
H15   H     H_    0.653343 0.888459 0.574174 0.185774
H16   H     H_    0.652401 0.116987 0.574054 0.186607
H17   H     H_    0.443478 0.116521 0.340542 0.107274
N1    N     N_R   0.856900 0.500860 0.500610 -0.117640
N2    N     N_R   0.142540 0.500820 0.500610 -0.121833
O1    O     O_R   0.385310 0.683210 0.499990 -0.616714
O2    O     O_R   0.614650 0.683240 0.500000 -0.599481
O3    O     O_R   0.319830 0.499970 0.632240 -0.603103
O4    O     O_R   0.549170 0.500000 0.632250 -0.597332
O5    O     O_R   0.385350 0.316760 0.500000 -0.597524
O6    O     O_R   0.614690 0.316790 0.500010 -0.625409
O7    O     O_R   0.450830 0.500000 0.367750 -0.601780
O8    O     O_R   0.680170 0.500030 0.367760 -0.564880
Zn1   Zn    Zn3+2 0.346870 0.499980 0.499990 0.999770
Zn2   Zn    Zn3+2 0.653130 0.500020 0.500010 1.009803

loop_
_geom_bond_atom_site_label_1
_geom_bond_atom_site_label_2
_ccdc_geom_bond_type
C24   H11   S    
C4    C26   S    
C6    Cl2   S    
C34   H13   S    
O4    Zn2   S    
C35   H12   S    
C18   C21   A    
C10   H15   S    
C9    C10   A    
C4    O4    A    
C22   H7    S    
C8    C17   S    
C12   C23   A    
C6    C27   A    
C23   C34   A    
C33   Cl5   S    
C1    O2    A    
C24   H10   S    
C17   H2    S    
C33   C34   A    
C13   C16   S    
C17   H3    S    
C30   Cl4   S    
C3    C32   A    
C11   H16   S    
C23   C28   A    
C32   C33   A    
C11   C13   A    
C4    O3    A    
C22   H6    S    
O6    Zn2   S    
C25   O8    A    
N2    Zn1   S    
C21   N2    A    
C18   C24   S    
C31   C35   A    
C28   C29   A    
C25   O7    A    
C26   C30   A    
C3    C7    A    
C29   H9    S    
C12   C31   A    
C5    C6    A    
C15   H17   S    
O5    Zn1   S    
C7    H1    S    
C2    C5    A    
C20   N2    A    
C10   C11   A    
N1    Zn2   S    
O1    Zn1   S    
C13   C14   A    
C1    C9    S    
O3    Zn1   S    
C18   N1    A    
C7    C27   A    
O2    Zn2   S    
C26   C29   A    
O8    Zn2   S    
C28   H8    S    
C22   C24   S    
C2    C36   A    
C15   C17   S    
C14   C15   S    
C15   Cl1   S    
C16   O6    A    
C2    C3    A    
C16   O5    A    
C8    C14   A    
C19   C20   A    
C19   N1    A    
C21   C22   S    
C12   C30   A    
C35   C36   A    
C5    H14   S    
C36   Cl3   S    
C20   H5    S    
C19   H4    S    
C31   C32   A    
C8    C9    A    
O7    Zn1   S    
C25   C27   S    
C1    O1    A    
