data_mof_unit_29885.cif
_audit_creation_date              2012-12-10T17:11:53-0500
_audit_creation_method            fapswitch 2.2
_symmetry_space_group_name_H-M    P1
_symmetry_Int_Tables_number       1
_space_group_crystal_system       triclinic
_cell_length_a                    19.22412
_cell_length_b                    10.60723
_cell_length_c                    10.033884
_cell_angle_alpha                 86.404092
_cell_angle_beta                  90.558016
_cell_angle_gamma                 89.884222
_cell_volume                      2041.92387066

loop_
_atom_site_label
_atom_site_type_symbol
_atom_type_description
_atom_site_fract_x
_atom_site_fract_y
_atom_site_fract_z
_atom_type_partial_charge
C1    C     C_R   0.491670 0.263432 0.504348 0.980391
C2    C     C_R   0.853999 0.505278 0.502820 0.064544
C3    C     C_2   0.439316 0.933127 0.455201 -0.106106
C4    C     C_R   0.365656 0.498797 0.499479 0.888688
C5    C     C_2   0.501374 0.872730 0.473812 -0.247668
C6    C     C_2   0.438953 0.069541 0.427919 0.040952
C7    C     C_2   0.470999 0.133697 0.520888 -0.416296
C8    C     C_2   0.546176 0.559201 0.924170 0.009057
C9    C     C_2   0.539014 0.573344 0.071561 -0.178127
C10   C     C_R   0.500661 0.738155 0.494869 0.922237
C11   C     C_R   0.634099 0.497274 0.500790 0.875483
C12   C     C_R   0.290144 0.495721 0.498356 0.009252
C13   C     C_R   0.254419 0.470514 0.618018 -0.194996
C14   C     C_R   0.182413 0.472196 0.618231 -0.181155
C15   C     C_R   0.145372 0.499883 0.498908 0.085140
C16   C     C_R   0.181082 0.522819 0.378746 -0.184609
C17   C     C_R   0.253206 0.519914 0.378329 -0.166261
C18   C     C_2   0.569750 0.927505 0.428638 0.871631
C19   C     C_2   0.408464 0.126594 0.301612 0.965951
C20   C     C_R   0.610601 0.612299 0.865523 0.204023
C21   C     C_R   0.673744 0.548702 0.892467 -0.156707
C22   C     C_R   0.736507 0.601863 0.847764 -0.149380
C23   C     C_R   0.929608 0.509032 0.503134 0.294971
C24   C     C_R   0.736666 0.718985 0.776492 -0.092707
C25   C     C_R   0.674409 0.785056 0.754093 -0.125459
C26   C     C_R   0.611623 0.733470 0.800847 -0.120256
C27   C     C_R   0.715061 0.304157 0.672646 0.117607
C28   C     C_R   0.738052 0.278755 0.805444 -0.167039
C29   C     C_R   0.708107 0.181876 0.886169 -0.132925
C30   C     C_R   0.656474 0.106482 0.834236 -0.122240
C31   C     C_R   0.635607 0.126773 0.701026 -0.118145
C32   C     C_R   0.664544 0.224877 0.620292 -0.100163
C33   C     C_R   0.371768 0.874375 0.494468 0.095655
C34   C     C_R   0.069739 0.504591 0.500446 0.284047
C35   C     C_R   0.359437 0.837100 0.629063 -0.123068
C36   C     C_R   0.293619 0.794736 0.669098 -0.138137
C37   C     C_R   0.239492 0.790719 0.575559 -0.087790
C38   C     C_R   0.251472 0.826500 0.441388 -0.140893
C39   C     C_R   0.317373 0.867893 0.400723 -0.149137
C40   C     C_R   0.820105 0.415206 0.586704 -0.211056
C41   C     C_R   0.747718 0.407138 0.586991 -0.003584
C42   C     C_R   0.709403 0.493953 0.501765 -0.060738
C43   C     C_R   0.743640 0.582624 0.416652 -0.175539
C44   C     C_R   0.815583 0.588325 0.417016 -0.173222
H1    H     H_    0.282008 0.450667 0.711649 0.154452
H2    H     H_    0.714452 0.649139 0.351335 0.170604
H3    H     H_    0.841057 0.658413 0.351338 0.153818
H4    H     H_    0.622438 0.060317 0.317629 0.335685
H5    H     H_    0.354803 0.270787 0.208532 0.327740
H6    H     H_    0.674247 0.459048 0.950258 0.139409
H7    H     H_    0.785166 0.553078 0.869146 0.134804
H8    H     H_    0.785173 0.759742 0.741088 0.140643
H9    H     H_    0.675311 0.877191 0.702404 0.175837
H10   H     H_    0.564426 0.788982 0.789058 0.132338
H11   H     H_    0.778794 0.334536 0.847499 0.121408
H12   H     H_    0.483527 0.085448 0.617087 0.135686
H13   H     H_    0.725355 0.164715 0.988720 0.137730
H14   H     H_    0.633684 0.030586 0.896306 0.138784
H15   H     H_    0.598014 0.064454 0.659880 0.121963
H16   H     H_    0.648487 0.237204 0.516576 0.112307
H17   H     H_    0.400293 0.843822 0.703359 0.137471
H18   H     H_    0.284333 0.766568 0.772926 0.132595
H19   H     H_    0.188370 0.759116 0.606870 0.138334
H20   H     H_    0.209608 0.822363 0.368895 0.141756
H21   H     H_    0.325607 0.895997 0.296609 0.165834
H22   H     H_    0.455434 0.472535 0.898184 0.152828
H23   H     H_    0.571389 0.642498 0.117762 0.172879
H24   H     H_    0.475116 0.428636 0.105514 0.179328
H25   H     H_    0.155911 0.454125 0.712220 0.151285
H26   H     H_    0.153426 0.543219 0.285315 0.148529
H27   H     H_    0.279935 0.539407 0.284790 0.153613
H28   H     H_    0.850329 0.347890 0.649085 0.151498
N1    N     N_R   0.033454 0.558557 0.395157 -0.183195
N2    N     N_R   0.964422 0.560867 0.396512 -0.178330
N3    N     N_R   0.965948 0.456098 0.608675 -0.183136
N4    N     N_R   0.034846 0.454170 0.607491 -0.179585
N5    N     N_2   0.500750 0.501330 0.852150 -0.206218
N6    N     N_2   0.500770 0.501360 0.147810 -0.192741
O1    O     O_R   0.499990 0.319060 0.613040 -0.619524
O2    O     O_R   0.572953 0.034774 0.340369 -0.786584
O3    O     O_2   0.412165 0.070131 0.199353 -0.636313
O4    O     O_R   0.373519 0.242350 0.300367 -0.809496
O5    O     O_R   0.500010 0.319100 0.386900 -0.569714
O6    O     O_R   0.398130 0.499970 0.613110 -0.634569
O7    O     O_R   0.398150 0.500010 0.386970 -0.596274
O8    O     O_R   0.499990 0.680900 0.613100 -0.626597
O9    O     O_R   0.500010 0.680940 0.386960 -0.599527
O10   O     O_R   0.601850 0.499990 0.613030 -0.586972
O11   O     O_R   0.601870 0.500030 0.386890 -0.618879
O12   O     O_2   0.623755 0.873727 0.464153 -0.679602
Zn1   Zn    Zn3+2 0.499990 0.499970 0.650990 0.959461
Zn2   Zn    Zn3+2 0.500010 0.500030 0.349010 0.982410

loop_
_geom_bond_atom_site_label_1
_geom_bond_atom_site_label_2
_ccdc_geom_bond_type
C24   H8    S    
N1    N2    A    
C35   C36   A    
C43   C44   A    
C3    C6    S    
C6    C19   S    
C33   C39   A    
C28   C29   A    
C25   H9    S    
O8    Zn1   S    
C30   C31   A    
C3    C33   S    
C15   C16   A    
C11   C42   S    
C41   C42   A    
C31   H15   S    
C11   O11   A    
C28   H11   S    
N5    Zn1   S    
C2    C44   A    
C8    C9    S    
C12   C17   A    
O6    Zn1   S    
C13   C14   A    
C4    C12   S    
C19   O4    S    
C15   C34   S    
O1    Zn1   S    
C44   H3    S    
C21   C22   A    
C39   H21   S    
C7    H12   S    
C36   H18   S    
C26   H10   S    
C21   H6    S    
C37   H19   S    
O7    Zn2   S    
C38   H20   S    
H24   N6    S    
C10   O9    A    
C18   O12   D    
C16   H26   S    
C24   C25   A    
C16   C17   A    
C4    O7    A    
N6    Zn2   S    
C25   C26   A    
H5    O4    S    
N3    N4    A    
C9    H23   S    
C37   C38   A    
O5    Zn2   S    
C27   C41   S    
C31   C32   A    
C4    O6    A    
O10   Zn1   S    
C11   O10   A    
C35   H17   S    
C8    C20   S    
C12   C13   A    
O11   Zn2   S    
C40   C41   A    
C29   H13   S    
C17   H27   S    
C8    N5    D    
C1    O1    A    
C14   H25   S    
C22   C24   A    
C42   C43   A    
C32   H16   S    
C23   N2    A    
C2    C23   S    
O9    Zn2   S    
H22   N5    S    
C36   C37   A    
C40   H28   S    
C27   C32   A    
C1    C7    S    
C23   N3    A    
C3    C5    D    
C6    C7    D    
C5    C18   S    
C1    O5    A    
H4    O2    S    
C5    C10   S    
C13   H1    S    
C10   O8    A    
C38   C39   A    
C20   C26   A    
C30   H14   S    
C33   C35   A    
C9    N6    D    
C43   H2    S    
C34   N1    A    
C29   C30   A    
C2    C40   A    
C20   C21   A    
C18   O2    S    
C27   C28   A    
C14   C15   A    
C19   O3    D    
C34   N4    A    
C22   H7    S    
