data_mof_unit_57237.cif
_audit_creation_date              2012-12-10T17:35:35-0500
_audit_creation_method            fapswitch 2.2
_symmetry_space_group_name_H-M    P1
_symmetry_Int_Tables_number       1
_space_group_crystal_system       triclinic
_cell_length_a                    10.768954
_cell_length_b                    12.328472
_cell_length_c                    13.246186
_cell_angle_alpha                 116.494012
_cell_angle_beta                  76.573485
_cell_angle_gamma                 102.123904
_cell_volume                      1519.43186766

loop_
_atom_site_label
_atom_site_type_symbol
_atom_type_description
_atom_site_fract_x
_atom_site_fract_y
_atom_site_fract_z
_atom_type_partial_charge
C1    C     C_R   0.506753 0.854811 0.287178 0.801527
C2    C     C_3   0.121389 0.997518 0.496654 -0.052144
C3    C     C_3   0.041170 0.009146 0.613798 -0.431766
C4    C     C_3   0.066816 0.878179 0.398728 0.384450
C5    C     C_R   0.423656 0.269175 0.036514 -0.186175
C6    C     C_R   0.475113 0.227874 0.835896 -0.097593
C7    C     C_R   0.547695 0.820370 0.084045 -0.128051
C8    C     C_R   0.560716 0.743988 0.968372 -0.087039
C9    C     C_R   0.531448 0.618295 0.931976 -0.166579
C10   C     C_R   0.480674 0.566099 0.011443 0.096707
C11   C     C_R   0.455221 0.645455 0.129101 0.088411
C12   C     C_R   0.739757 0.001657 0.501128 0.845619
C13   C     C_R   0.460100 0.437650 0.979074 0.085529
C14   C     C_R   0.420948 0.392270 0.064194 0.097445
C15   C     C_R   0.378609 0.470304 0.175900 -0.190420
C16   C     C_R   0.387989 0.594167 0.206022 -0.135584
C17   C     C_R   0.478794 0.352620 0.865150 -0.258028
C18   C     C_R   0.457685 0.187879 0.923591 0.319808
C19   C     C_R   0.499572 0.772607 0.165827 -0.081761
C20   C     C_R   0.708236 0.346814 0.326332 0.069995
C21   C     C_R   0.325431 0.753640 0.647169 0.395678
C22   C     C_R   0.289568 0.653879 0.674709 -0.210935
C23   C     C_R   0.486655 0.145011 0.713619 0.884947
C24   C     C_R   0.354961 0.552987 0.617720 -0.226499
C25   C     C_R   0.459630 0.549237 0.531039 0.009233
C26   C     C_R   0.493986 0.652984 0.503229 0.249097
C27   C     C_R   0.531272 0.446074 0.471872 -0.045819
C28   C     C_R   0.636375 0.447190 0.384877 0.104163
C29   C     C_R   0.667898 0.548445 0.358456 -0.219794
C30   C     C_R   0.598966 0.648269 0.416104 -0.190371
C31   C     C_R   0.503176 0.341230 0.496056 0.019903
C32   C     C_R   0.675029 0.247488 0.355144 0.073211
C33   C     C_R   0.259842 0.998547 0.498275 0.847606
C34   C     C_3   0.962743 0.115798 0.482711 0.157412
C35   C     C_3   0.104719 0.111293 0.480600 -0.409204
C36   C     C_3   0.896968 0.000197 0.612389 0.153204
C37   C     C_3   0.925147 0.887334 0.398403 -0.544025
C38   C     C_3   0.877750 0.003992 0.501025 -0.059257
Cu1   Cu    Cu3+1 0.529690 0.098270 0.475420 0.982991
Cu2   Cu    Cu3+1 0.470310 0.901730 0.524580 0.994491
H1    H     H_    0.850105 0.910431 0.612064 0.162643
H2    H     H_    0.054343 0.934791 0.633555 0.213920
H3    H     H_    0.337191 0.435490 0.240123 0.164424
H4    H     H_    0.402805 0.236870 0.103286 0.170630
H5    H     H_    0.493613 0.381749 0.797458 0.166116
H6    H     H_    0.579033 0.917022 0.109365 0.178845
H7    H     H_    0.552501 0.565035 0.841233 0.142519
H8    H     H_    0.599407 0.782087 0.906326 0.184354
H9    H     H_    0.953098 0.108732 0.397990 0.142891
H10   H     H_    0.341731 0.647480 0.290572 0.212782
H11   H     H_    0.729404 0.170229 0.310880 0.142772
H12   H     H_    0.747422 0.552481 0.292728 0.198679
H13   H     H_    0.425304 0.332290 0.560438 0.124726
H14   H     H_    0.321084 0.479878 0.644508 0.156517
H15   H     H_    0.209973 0.654595 0.742158 0.191531
H16   H     H_    0.632463 0.720263 0.389285 0.200256
H17   H     H_    0.161412 0.110104 0.398467 0.205737
H18   H     H_    0.143695 0.195822 0.549404 0.209491
H19   H     H_    0.074564 0.096827 0.682605 0.222530
H20   H     H_    0.861754 0.804923 0.401579 0.194014
H21   H     H_    0.915331 0.888880 0.317281 0.202356
N1    N     N_R   0.574690 0.246280 0.438200 -0.196122
N2    N     N_R   0.426100 0.754320 0.561190 -0.223994
O1    O     O_R   0.537340 0.972510 0.318130 -0.581314
O2    O     O_R   0.487200 0.806530 0.359650 -0.623215
O3    O     O_R   0.707380 0.082980 0.479220 -0.556755
O4    O     O_R   0.657240 0.917000 0.520740 -0.601188
O5    O     O_R   0.512800 0.193470 0.640350 -0.588178
O6    O     O_R   0.462660 0.027490 0.681870 -0.525870
O7    O     O_R   0.342760 0.083000 0.479260 -0.592448
O8    O     O_R   0.292620 0.917020 0.520780 -0.558331
Br1   Br    Br    0.913884 0.277306 0.591463 -0.437692
I1    I     I_    0.069720 0.711938 0.416568 -0.333483
Br2   Br    Br    0.488577 0.029276 0.899017 -0.447954
I2    I     I_    0.867743 0.336088 0.194096 -0.269689
I3    I     I_    0.212116 0.897134 0.752778 -0.274511
Br3   Br    Br    0.814694 0.120148 0.754778 -0.403154
Br4   Br    Br    0.168757 0.855289 0.249220 -0.514219

loop_
_geom_bond_atom_site_label_1
_geom_bond_atom_site_label_2
_ccdc_geom_bond_type
C2    C35   S    
C3    H2    S    
Cu2   O8    S    
Cu1   O5    S    
C23   O6    A    
C7    C8    A    
Cu1   O1    S    
C21   I3    S    
C11   C19   A    
C29   C30   A    
Cu2   N2    S    
C35   H18   S    
C28   C29   A    
C17   H5    S    
C36   Br3   S    
C24   H14   S    
C15   C16   A    
C34   C35   S    
C6    C17   A    
C8    C9    A    
Cu2   O4    S    
C1    O2    A    
C9    C10   A    
C18   Br2   S    
C21   C22   A    
C31   N1    A    
C36   H1    S    
C6    C18   A    
C12   O4    A    
C1    C19   S    
Cu2   O6    S    
C27   C31   A    
C7    H6    S    
C24   C25   A    
Cu1   Cu2   S    
C5    C18   A    
C20   C28   A    
C25   C26   A    
C30   H16   S    
C20   I2    S    
C23   O5    A    
C2    C4    S    
C26   N2    A    
C8    H8    S    
C32   H11   S    
C4    Br4   S    
C37   C38   S    
C11   C16   A    
C4    I1    S    
C31   H13   S    
C5    C14   A    
C33   O7    A    
C2    C33   S    
C5    H4    S    
C9    H7    S    
C7    C19   A    
Cu2   O2    S    
Cu1   O3    S    
C22   C24   A    
C1    O1    A    
C34   Br1   S    
C20   C32   A    
Cu1   N1    S    
C34   H9    S    
C34   C38   S    
C16   H10   S    
C10   C13   A    
C37   H21   S    
C26   C30   A    
C22   H15   S    
C25   C27   A    
C13   C17   A    
C35   H17   S    
C36   C38   S    
C2    C3    S    
C15   H3    S    
C12   O3    A    
C3    C36   S    
C6    C23   S    
Cu1   O7    S    
C12   C38   S    
C21   N2    A    
C37   H20   S    
C10   C11   A    
C33   O8    A    
C32   N1    A    
C4    C37   S    
C27   C28   A    
C14   C15   A    
C13   C14   A    
C29   H12   S    
C3    H19   S    
