data_mof_unit_68572.cif
_audit_creation_date              2012-12-11T18:25:58-0500
_audit_creation_method            fapswitch 2.2
_symmetry_space_group_name_H-M    P1
_symmetry_Int_Tables_number       1
_space_group_crystal_system       triclinic
_cell_length_a                    8.68165
_cell_length_b                    15.014668
_cell_length_c                    16.789154
_cell_angle_alpha                 106.527875
_cell_angle_beta                  79.818343
_cell_angle_gamma                 94.630798
_cell_volume                      2063.96035228

loop_
_atom_site_label
_atom_site_type_symbol
_atom_type_description
_atom_site_fract_x
_atom_site_fract_y
_atom_site_fract_z
_atom_type_partial_charge
Ba1   Ba    Ba6+2 0.356390 0.534880 0.456030 1.887475
Ba2   Ba    Ba6+2 0.833430 0.465200 0.543970 1.882382
C1    C     C_3   0.363837 0.793868 0.181257 -0.157239
C2    C     C_3   0.314119 0.725173 0.234113 0.588338
C3    C     C_3   0.091391 0.233041 0.269215 0.347428
C4    C     C_3   0.124648 0.161789 0.178295 0.375489
C5    C     C_3   0.500415 0.285776 0.795384 0.565674
C6    C     C_3   0.517627 0.254945 0.875160 0.481041
C7    C     C_3   0.009680 0.290673 0.786457 0.251406
C8    C     C_3   0.942359 0.215197 0.718518 -0.199191
C9    C     C_2   0.283243 0.529431 0.750001 -0.198593
C10   C     C_R   0.897824 0.471999 0.249191 -0.224114
C11   C     C_2   0.443668 0.615896 0.854276 0.004121
C12   C     C_3   0.813684 0.745060 0.239780 0.312180
C13   C     C_2   0.432282 0.577713 0.772359 0.154227
C14   C     C_2   0.169333 0.508710 0.808332 0.032456
C15   C     C_3   0.207419 0.522403 0.896043 -0.084222
C16   C     C_3   0.306781 0.611350 0.922357 0.221682
C17   C     C_2   0.082954 0.507612 0.967531 -0.110327
C18   C     C_2   0.123197 0.481603 0.032405 -0.097265
C19   C     C_R   0.876641 0.403394 0.079171 0.057465
C20   C     C_R   0.005078 0.460950 0.101954 0.026703
C21   C     C_R   0.761565 0.378760 0.139096 -0.087627
C22   C     C_R   0.765935 0.416979 0.225554 0.068132
C23   C     C_3   0.829576 0.736645 0.144913 0.529378
C24   C     C_R   0.024063 0.488093 0.188559 0.022142
C25   C     C_R   0.165078 0.963494 0.558020 0.471588
C26   C     C_R   0.018336 0.806105 0.505918 0.132843
C27   C     C_R   0.896378 0.762427 0.461878 -0.298208
C28   C     C_R   0.795787 0.813584 0.436884 -0.076710
C29   C     C_R   0.822892 0.908782 0.449236 0.340278
C30   C     C_R   0.959394 0.953071 0.478391 -0.044459
C31   C     C_R   0.049385 0.906435 0.515780 -0.017021
C32   C     C_R   0.121920 0.099521 0.510140 -0.066186
C33   C     C_R   0.191434 0.059914 0.562337 0.041239
C34   C     C_3   0.617743 0.805322 0.682044 0.133821
C35   C     C_R   0.169837 0.194078 0.506818 -0.044434
C36   C     C_R   0.292291 0.239414 0.551438 -0.261731
C37   C     C_R   0.368505 0.195608 0.596225 -0.082353
C38   C     C_R   0.299104 0.114675 0.613171 -0.056878
C39   C     C_R   0.012514 0.040361 0.463387 -0.001521
C40   C     C_3   0.577776 0.907275 0.738016 0.587264
C41   C     C_3   0.507308 0.218616 0.340153 0.196836
C42   C     C_3   0.464994 0.115996 0.293716 0.672268
C43   C     C_3   0.066190 0.723016 0.723038 0.558070
C44   C     C_3   0.947917 0.769440 0.802879 0.708254
H1    H     H_    0.418327 0.692092 0.241155 0.082696
H2    H     H_    0.400313 0.257896 0.368056 -0.060920
H3    H     H_    0.371363 0.115166 0.258044 0.085419
H4    H     H_    0.029440 0.650685 0.692678 -0.070704
H5    H     H_    0.455678 0.842820 0.208693 0.184614
H6    H     H_    0.827497 0.762316 0.789863 -0.013326
H7    H     H_    0.262586 0.835822 0.183471 0.223447
H8    H     H_    0.378411 0.270873 0.782953 -0.110142
H9    H     H_    0.130671 0.309582 0.759875 -0.151630
H10   H     H_    0.021715 0.158098 0.691441 0.057451
H11   H     H_    0.920221 0.243370 0.667438 0.130882
H12   H     H_    0.849176 0.678885 0.247911 -0.050033
H13   H     H_    0.834719 0.184123 0.745889 0.181362
H14   H     H_    0.543961 0.660571 0.871784 0.131721
H15   H     H_    0.258580 0.523721 0.687655 0.061466
H16   H     H_    0.905044 0.499566 0.315404 0.087665
H17   H     H_    0.961742 0.520875 0.967834 0.152240
H18   H     H_    0.872611 0.688496 0.451801 0.058218
H19   H     H_    0.894071 0.802301 0.267816 0.109984
O1    O     O_2   0.449810 0.404330 0.292300 -0.430854
O2    O     O_3   0.102117 0.779673 0.667540 -0.511274
O3    O     O_3   0.657987 0.765626 0.278811 -0.599938
O4    O     O_2   0.739870 0.595710 0.707750 -0.504035
O5    O     O_3   0.524260 0.572010 0.600550 -0.424145
O6    O     O_3   0.006540 0.415640 0.663000 -0.507462
O7    O     O_3   0.555149 0.743710 0.730494 -0.559230
O8    O     O_3   0.149240 0.378950 0.461440 -0.377555
O9    O     O_3   0.608760 0.358670 0.621950 -0.436309
O10   O     O_2   0.694158 0.187084 0.567525 -0.390640
O11   O     O_3   0.606522 0.238251 0.725830 -0.615549
O12   O     O_3   0.665430 0.428070 0.399450 -0.480488
O13   O     O_3   0.040450 0.621130 0.538560 -0.518210
O14   O     O_2   0.903680 0.264350 0.468980 -0.436735
O15   O     O_3   0.146592 0.201219 0.331169 -0.708641
O16   O     O_2   0.853127 0.526656 0.801956 -0.372547
O17   O     O_3   0.907449 0.365256 0.814677 -0.598402
O18   O     O_3   0.183150 0.584440 0.337010 -0.433071
O19   O     O_2   0.359976 0.513699 0.195282 -0.401733
O20   O     O_3   0.596768 0.257516 0.279368 -0.577175
O21   O     O_3   0.206855 0.659129 0.196275 -0.634463
O22   O     O_2   0.286000 0.735700 0.531070 -0.360016
O23   O     O_3   0.580930 0.641410 0.378050 -0.444190
O24   O     O_2   0.478972 0.808829 0.423448 -0.313631
P1    P     P_3+3 0.619500 0.379780 0.307000 1.107843
P2    P     P_3+3 0.105540 0.727570 0.557610 1.130982
P3    P     P_3+3 0.631511 0.756502 0.382102 1.127933
P4    P     P_3+3 0.570190 0.620290 0.693000 1.096111
P5    P     P_3+3 0.562140 0.245252 0.629824 1.042306
P6    P     P_3+3 0.197224 0.557204 0.228479 1.044177
P7    P     P_3+3 0.089494 0.259318 0.441586 1.017634
P8    P     P_3+3 0.984991 0.456116 0.772874 1.051057
Cl1   Cl    Cl    0.640249 0.925960 0.837791 -0.337037
C45   C     C_2   0.654827 0.982279 0.697680 0.470677
H20   H     H_    0.758116 0.020394 0.719246 0.133342
O25   O     O_2   0.610710 0.997602 0.638056 -0.583312
Cl2   Cl    Cl    0.374403 0.924910 0.767590 -0.305314
C46   C     C_2   0.599179 0.222810 0.408604 0.580981
H21   H     H_    0.623704 0.288208 0.452283 0.071071
O26   O     O_2   0.656406 0.153576 0.412899 -0.483024
Cl3   Cl    Cl    0.392021 0.042090 0.358877 -0.561560
Cl4   Cl    Cl    0.624671 0.059899 0.219029 -0.398499
Cl5   Cl    Cl    0.237174 0.724676 0.762123 -0.610051
Cl6   Cl    Cl    0.997089 0.890049 0.844438 -0.203215
Cl7   Cl    Cl    0.936274 0.716933 0.887087 -0.544265
Cl8   Cl    Cl    0.219261 0.791042 0.332636 -0.644440
Cl9   Cl    Cl    0.891605 0.240954 0.294509 -0.720054
C47   C     C_2   0.156689 0.327442 0.264957 0.550769
H22   H     H_    0.230867 0.336469 0.208721 0.105050
O27   O     O_2   0.120163 0.396414 0.322294 -0.549053
C48   C     C_2   0.067753 0.064337 0.178850 0.792443
H23   H     H_    0.946850 0.051539 0.203496 0.097595
O28   O     O_2   0.154251 0.998494 0.150604 -0.419744
Cl10  Cl    Cl    0.025019 0.193160 0.105497 -0.510690
Cl11  Cl    Cl    0.326112 0.159632 0.130285 -0.448519
C49   C     C_2   0.423544 0.746364 0.090989 0.635075
H24   H     H_    0.435216 0.671604 0.069883 -0.071223
O29   O     O_2   0.459870 0.791951 0.040431 -0.419324
Cl12  Cl    Cl    0.027503 0.724152 0.095737 -0.621303
Cl13  Cl    Cl    0.534986 0.407049 0.810671 -0.730185
C50   C     C_2   0.629552 0.315374 0.928923 0.665455
H25   H     H_    0.734348 0.286388 0.936154 -0.033841
O30   O     O_2   0.606568 0.396891 0.965394 -0.546668
Cl14  Cl    Cl    0.331907 0.241308 0.934483 -0.459694
Cl15  Cl    Cl    0.586749 0.141825 0.850309 -0.564074
C51   C     C_2   0.022756 0.257779 0.861486 0.602029
H26   H     H_    0.061743 0.307159 0.915363 0.019323
O31   O     O_2   0.985246 0.178580 0.864869 -0.419997
C52   C     C_2   0.644292 0.308353 0.108292 0.644900
H27   H     H_    0.679877 0.241568 0.065624 0.094698
O32   O     O_2   0.506522 0.326170 0.127008 -0.463363
C53   C     C_2   0.286730 0.461670 0.029942 0.613715
H28   H     H_    0.382598 0.498150 0.000780 0.053970
O33   O     O_2   0.315239 0.402360 0.061107 -0.450373
Cl16  Cl    Cl    0.675752 0.975458 0.436607 -0.480468
C54   C     C_2   0.310208 0.100393 0.695793 0.601938
H29   H     H_    0.418033 0.113000 0.720072 0.097762
O34   O     O_2   0.196776 0.072739 0.737556 -0.430890
C55   C     C_2   0.322702 0.339466 0.568958 0.512027
H30   H     H_    0.292786 0.379343 0.632906 -0.076646
O35   O     O_2   0.397641 0.375232 0.517136 -0.583224
Cl17  Cl    Cl    0.302565 0.915326 0.592301 -0.558540
C56   C     C_2   0.994040 0.047784 0.380233 0.612179
H31   H     H_    0.925190 0.100717 0.373740 0.110362
O36   O     O_2   0.046386 0.987545 0.317549 -0.531110
C57   C     C_2   0.737791 0.654603 0.098722 0.419406
H32   H     H_    0.733642 0.644632 0.032509 0.107949
O37   O     O_2   0.669526 0.598078 0.133535 -0.597816
Cl18  Cl    Cl    0.770519 0.841020 0.130433 -0.444674
C58   C     C_2   0.786258 0.796921 0.662510 0.268661
H33   H     H_    0.827413 0.727440 0.637792 -0.036162
O38   O     O_2   0.875140 0.864933 0.674344 -0.608990
C59   C     C_2   0.566405 0.784685 0.598162 0.435198
H34   H     H_    0.555633 0.840392 0.572173 0.096959
O39   O     O_2   0.570509 0.707305 0.549968 -0.560457

loop_
_geom_bond_atom_site_label_1
_geom_bond_atom_site_label_2
_ccdc_geom_bond_type
C42   H3    S    
Ba1   O22   S    
C50   H25   S    
O22   P2    D    
C58   O38   D    
C32   C35   A    
Ba1   O12   S    
O9    P5    S    
C34   C40   S    
C17   C18   D    
C5    C6    S    
O1    P1    D    
C11   H14   S    
C43   C44   S    
C25   C31   A    
C53   O33   D    
O3    P3    S    
Ba1   P1    S    
C11   C16   S    
C26   C27   A    
C56   O36   D    
C32   C33   A    
O4    P4    D    
C40   Cl1   S    
C28   C29   A    
C14   P8    S    
C2    O21   S    
C44   H6    S    
C10   H16   S    
C48   H23   S    
Ba1   Ba2   S    
Ba2   O14   S    
O11   P5    S    
C9    C13   S    
O23   P3    S    
C17   H17   S    
C14   C15   S    
C43   O2    S    
C21   C22   A    
C7    H9    S    
O15   P7    S    
Ba2   O4    S    
C8    H10   S    
C7    C8    S    
Ba2   O9    S    
C43   Cl5   S    
C34   C59   S    
C7    O17   S    
Ba1   O23   S    
C27   H18   S    
Ba1   P2    S    
C19   C20   A    
C59   O39   D    
Ba1   O13   S    
C32   C39   A    
C40   Cl2   S    
C4    Cl11  S    
Ba1   O1    S    
C7    C51   S    
C36   C37   A    
C12   H12   S    
O12   P1    S    
C41   O20   S    
O5    P4    S    
C56   H31   S    
C55   O35   D    
C37   C38   A    
C1    H5    S    
C52   O32   D    
C25   C33   A    
C40   C45   S    
C35   P7    S    
C10   C24   A    
O24   P3    D    
O19   P6    D    
C18   C53   S    
C41   C42   S    
C37   P5    S    
C9    H15   S    
C35   C36   A    
Ba2   O13   S    
O6    P8    S    
C9    C14   D    
C29   C30   A    
C11   C13   D    
C30   C39   A    
O18   P6    S    
C8    H11   S    
O2    P2    S    
C15   C16   S    
C46   O26   D    
C5    Cl13  S    
C3    O15   S    
C4    C48   S    
C49   H24   S    
C5    O11   S    
Ba2   O8    S    
O7    P4    S    
C28   P3    S    
C45   O25   D    
C2    Cl8   S    
C18   C20   S    
C26   C31   A    
C19   C21   A    
C6    Cl15  S    
C59   H34   S    
O17   P8    S    
C1    C2    S    
C4    Cl10  S    
C58   H33   S    
C47   H22   S    
C41   H2    S    
C42   Cl4   S    
C6    C50   S    
C24   P6    S    
C50   O30   D    
C21   C52   S    
C3    C47   S    
C23   Cl18  S    
C36   C55   S    
Ba2   P4    S    
C55   H30   S    
C51   O31   D    
C22   P1    S    
C13   P4    S    
O20   P1    S    
C52   H27   S    
C3    Cl9   S    
C42   Cl3   S    
O13   P2    S    
Ba1   O18   S    
C53   H28   S    
C10   C22   A    
Ba1   O5    S    
O8    P7    S    
C45   H20   S    
C23   C57   S    
Ba1   O8    S    
C30   C31   A    
C54   O34   D    
C33   C38   A    
O14   P7    D    
C44   Cl7   S    
Ba2   O5    S    
C54   H29   S    
C1    H7    S    
C3    C4    S    
C39   C56   S    
O16   P8    D    
C43   H4    S    
C6    Cl14  S    
C15   C17   S    
C12   H19   S    
C48   O28   D    
C8    H13   S    
C26   P2    S    
C1    C49   S    
C57   O37   D    
C12   C23   S    
C51   H26   S    
C23   Cl12  S    
C41   C46   S    
C49   O29   D    
O21   P6    S    
C27   C28   A    
C34   O7    S    
C34   C58   S    
C25   Cl17  S    
C20   C24   A    
C44   Cl6   S    
C46   H21   S    
Ba2   O12   S    
C12   O3    S    
C5    H8    S    
C29   Cl16  S    
C38   C54   S    
C57   H32   S    
Ba2   O6    S    
O10   P5    D    
C47   O27   D    
C2    H1    S    
