data_mof_unit_17737.cif
_audit_creation_date              2012-12-10T18:33:38-0500
_audit_creation_method            fapswitch 2.2
_symmetry_space_group_name_H-M    P1
_symmetry_Int_Tables_number       1
_space_group_crystal_system       triclinic
_cell_length_a                    10.505853
_cell_length_b                    15.004809
_cell_length_c                    15.477761
_cell_angle_alpha                 81.666319
_cell_angle_beta                  89.702727
_cell_angle_gamma                 104.730612
_cell_volume                      2332.52297742

loop_
_atom_site_label
_atom_site_type_symbol
_atom_type_description
_atom_site_fract_x
_atom_site_fract_y
_atom_site_fract_z
_atom_type_partial_charge
C1    C     C_R   0.479451 0.441302 0.661925 0.932411
C2    C     C_R   0.503856 0.487609 0.045367 0.019263
C3    C     C_R   0.472407 0.390817 0.079601 0.126269
C4    C     C_R   0.535512 0.611743 0.919908 0.174345
C5    C     C_R   0.479678 0.325436 0.024167 0.045639
C6    C     C_R   0.528356 0.676962 0.975039 0.046934
C7    C     C_R   0.696563 0.841126 0.638235 0.012792
C8    C     C_R   0.297800 0.156093 0.366859 -0.002455
C9    C     C_R   0.667372 0.753461 0.611720 -0.018064
C10   C     C_R   0.329205 0.244850 0.390782 -0.029058
C11   C     C_R   0.511307 0.793628 0.513844 -0.026145
C12   C     C_R   0.520819 0.558778 0.338087 0.930260
C13   C     C_R   0.489769 0.206847 0.486052 -0.025315
C14   C     C_R   0.546104 0.886594 0.529872 -0.041372
C15   C     C_R   0.454085 0.113334 0.471505 -0.046557
C16   C     C_R   0.742480 0.501058 0.500099 0.949014
C17   C     C_R   0.257521 0.498941 0.499904 0.948558
C18   C     C_R   0.632175 0.907469 0.598674 0.118884
C19   C     C_R   0.365154 0.091158 0.404602 0.129207
C20   C     C_R   0.492738 0.957206 0.483669 0.032485
C21   C     C_R   0.508313 0.043085 0.517504 0.031024
C22   C     C_R   0.574813 0.054508 0.596912 0.089601
C23   C     C_R   0.444130 0.460602 0.813648 0.367033
C24   C     C_R   0.426095 0.945921 0.404243 0.083280
C25   C     C_R   0.645376 0.991240 0.630904 -0.204533
C26   C     C_R   0.352851 0.007936 0.371704 -0.200683
C27   C     C_3   0.932350 0.432228 0.560342 0.448375
C28   C     C_3   0.067658 0.567773 0.439669 0.448470
C29   C     C_3   0.047334 0.512536 0.579443 -0.239490
C30   C     C_3   0.952676 0.487465 0.420567 -0.239883
C31   C     C_3   0.121893 0.497581 0.499622 -0.130627
C32   C     C_3   0.878112 0.502418 0.500387 -0.130980
C33   C     C_3   0.008626 0.416376 0.481290 -0.234235
C34   C     C_R   0.560959 0.541139 0.186419 0.372148
C35   C     C_3   0.991381 0.583623 0.518721 -0.232751
C36   C     C_R   0.470033 0.404894 0.754670 -0.137100
C37   C     C_R   0.532156 0.595757 0.245404 -0.141315
C38   C     C_R   0.499702 0.291591 0.875304 -0.143034
C39   C     C_R   0.505682 0.710167 0.124706 -0.178130
C40   C     C_R   0.498252 0.319827 0.785531 -0.225344
C41   C     C_R   0.504465 0.680978 0.214492 -0.198077
C42   C     C_R   0.481428 0.444736 0.899888 -0.011549
C43   C     C_R   0.525943 0.557670 0.099691 0.009073
C44   C     C_R   0.490182 0.353718 0.933594 0.086734
C45   C     C_R   0.517061 0.648735 0.066015 0.042004
C46   C     C_R   0.504537 0.514948 0.954065 -0.001095
Cl1   Cl    Cl    0.837698 0.342528 0.640950 -0.637219
Cl2   Cl    Cl    0.162330 0.657494 0.359082 -0.636268
Cl3   Cl    Cl    0.672323 0.471411 0.215740 -0.633837
Cl4   Cl    Cl    0.331999 0.530021 0.785637 -0.627978
H1    H     H_    0.089519 0.521554 0.644203 0.217404
H2    H     H_    0.516149 0.274793 0.740704 0.196476
H3    H     H_    0.512138 0.222812 0.898485 0.174816
H4    H     H_    0.493347 0.779031 0.102185 0.147831
H5    H     H_    0.702536 0.004635 0.687818 0.168838
H6    H     H_    0.295081 0.994722 0.314958 0.176743
H7    H     H_    0.841051 0.811249 0.717263 0.184729
H8    H     H_    0.734502 0.858979 0.762913 0.186081
H9    H     H_    0.227117 0.177134 0.246520 0.171975
H10   H     H_    0.111048 0.143161 0.328984 0.200131
H11   H     H_    0.619405 0.125292 0.702464 0.212544
H12   H     H_    0.910519 0.478444 0.355803 0.218189
H13   H     H_    0.462962 0.106984 0.671809 0.183073
H14   H     H_    0.383910 0.877064 0.297327 0.211359
H15   H     H_    0.540306 0.896497 0.328201 0.181815
H16   H     H_    0.376743 0.202285 0.093389 0.182847
H17   H     H_    0.542698 0.226259 0.102361 0.204482
H18   H     H_    0.622864 0.814347 0.963995 0.187690
H19   H     H_    0.456943 0.791359 0.953202 0.201116
H20   H     H_    0.468829 0.312639 0.199503 0.224563
H21   H     H_    0.320048 0.322852 0.164155 0.164447
H22   H     H_    0.683675 0.683920 0.833634 0.172105
H23   H     H_    0.571338 0.233893 0.524806 0.200652
H24   H     H_    0.532377 0.688767 0.800762 0.246274
H25   H     H_    0.431014 0.767159 0.473923 0.201166
H26   H     H_    0.279083 0.296214 0.362744 0.144673
H27   H     H_    0.714757 0.700800 0.640522 0.142579
H28   H     H_    0.018941 0.348150 0.466801 0.184294
H29   H     H_    0.981067 0.651849 0.533210 0.186582
H30   H     H_    0.484885 0.725456 0.259364 0.193981
N1    N     N_R   0.574200 0.731700 0.552740 -0.116974
N2    N     N_3   0.586476 0.644517 0.831502 -0.424841
N3    N     N_R   0.425800 0.268300 0.447260 -0.113742
N4    N     N_3   0.788916 0.862271 0.705257 -0.457580
N5    N     N_3   0.198183 0.132048 0.305199 -0.468147
N6    N     N_3   0.560861 0.124593 0.647999 -0.454435
N7    N     N_3   0.442256 0.877422 0.351879 -0.456048
N8    N     N_3   0.467473 0.229453 0.059002 -0.472747
N9    N     N_3   0.542204 0.772324 0.937340 -0.481074
N10   N     N_3   0.418634 0.358773 0.167455 -0.429139
O1    O     O_R   0.462600 0.383110 0.605620 -0.617726
O2    O     O_R   0.537400 0.616890 0.394380 -0.618582
O3    O     O_R   0.510210 0.531900 0.639510 -0.580869
O4    O     O_R   0.489790 0.468100 0.360490 -0.578074
O5    O     O_R   0.662240 0.425610 0.483080 -0.590149
O6    O     O_R   0.337760 0.574390 0.516920 -0.589354
O7    O     O_R   0.709860 0.574400 0.516970 -0.636458
O8    O     O_R   0.290140 0.425600 0.483030 -0.636831
Zn1   Zn    Zn3+2 0.468210 0.400660 0.477370 0.991283
Zn2   Zn    Zn3+2 0.531790 0.599340 0.522630 0.991325

loop_
_geom_bond_atom_site_label_1
_geom_bond_atom_site_label_2
_ccdc_geom_bond_type
C30   C32   S    
C6    C45   A    
C27   C29   S    
C34   C37   A    
C14   C18   A    
C41   H30   S    
C39   C41   A    
C4    C46   A    
C11   N1    A    
C15   C19   A    
H21   N10   S    
H17   N8    S    
C23   C42   A    
C3    N10   S    
C24   C26   A    
H16   N8    S    
C11   C14   A    
O5    Zn1   S    
C16   O7    A    
C39   H4    S    
C10   N3    A    
C8    N5    S    
C42   C46   A    
C35   H29   S    
C12   C37   S    
C19   C26   A    
C2    C46   A    
C5    N8    S    
C10   H26   S    
C20   C24   A    
C28   C35   S    
C16   O5    A    
C22   C25   A    
C31   C33   S    
C17   O8    A    
H14   N7    S    
C39   C45   A    
C7    N4    S    
C1    O1    A    
N3    Zn1   S    
C21   C22   A    
C12   O4    A    
H20   N10   S    
C18   C25   A    
C42   C44   A    
H24   N2    S    
H19   N9    S    
H15   N7    S    
C8    C19   A    
C32   C35   S    
C14   C20   A    
C36   C40   A    
C4    C6    A    
C23   Cl4   S    
C40   H2    S    
C27   C33   S    
H9    N5    S    
C38   C44   A    
H8    N4    S    
C2    C43   A    
C7    C18   A    
H18   N9    S    
H7    N4    S    
C17   O6    A    
C9    H27   S    
C43   C45   A    
O3    Zn2   S    
C8    C10   A    
C5    C44   A    
C13   H23   S    
C23   C36   A    
C13   C15   A    
H13   N6    S    
C17   C31   S    
O7    Zn2   S    
O2    Zn2   S    
C29   H1    S    
C27   Cl1   S    
C7    C9    A    
C13   N3    A    
C28   Cl2   S    
C34   Cl3   S    
C30   C33   S    
C27   C32   S    
C12   O2    A    
C28   C31   S    
C34   C43   A    
C25   H5    S    
C3    C5    A    
C26   H6    S    
H10   N5    S    
N1    Zn2   S    
C16   C32   S    
C6    N9    S    
C29   C35   S    
C30   H12   S    
C2    C3    A    
C29   C31   S    
C11   H25   S    
C38   C40   A    
C38   H3    S    
O4    Zn1   S    
O6    Zn2   S    
C28   C30   S    
C22   N6    S    
C37   C41   A    
C33   H28   S    
C24   N7    S    
H11   N6    S    
C15   C21   A    
C4    N2    S    
C20   C21   A    
C1    O3    A    
O8    Zn1   S    
O1    Zn1   S    
H22   N2    S    
C1    C36   S    
C9    N1    A    
