data_mof_unit_25779.cif
_audit_creation_date              2012-12-10T20:28:47-0500
_audit_creation_method            fapswitch 2.2
_symmetry_space_group_name_H-M    P1
_symmetry_Int_Tables_number       1
_space_group_crystal_system       triclinic
_cell_length_a                    10.652705
_cell_length_b                    10.648347
_cell_length_c                    9.862199
_cell_angle_alpha                 89.913073
_cell_angle_beta                  90.022332
_cell_angle_gamma                 89.099641
_cell_volume                      1118.56621096

loop_
_atom_site_label
_atom_site_type_symbol
_atom_type_description
_atom_site_fract_x
_atom_site_fract_y
_atom_site_fract_z
_atom_type_partial_charge
C1    C     C_R   0.505871 0.259759 0.499947 0.866807
C2    C     C_R   0.061191 0.623089 0.550790 0.048171
C3    C     C_R   0.127564 0.516879 0.498413 -0.103759
C4    C     C_R   0.066717 0.414342 0.442771 -0.250601
C5    C     C_R   0.938599 0.411616 0.442712 -0.196502
C6    C     C_R   0.871307 0.510378 0.500556 -0.058749
C7    C     C_R   0.563295 0.063075 0.615756 0.142923
C8    C     C_R   0.531432 0.128325 0.497623 -0.132947
C9    C     C_R   0.530001 0.064395 0.373267 -0.220732
C10   C     C_R   0.531177 0.934847 0.373081 -0.213246
C11   C     C_R   0.533071 0.870431 0.497252 -0.115929
C12   C     C_R   0.260312 0.506808 0.499854 0.994573
C13   C     C_R   0.563065 0.934699 0.615646 0.044073
C14   C     C_3   0.513634 0.927210 0.757347 -0.483767
C15   C     C_3   0.513646 0.070425 0.757665 -0.024565
C16   C     C_R   0.438006 0.409246 0.071358 0.213928
C17   C     C_R   0.570731 0.582222 0.071864 -0.124520
C18   C     C_R   0.570920 0.582067 0.927828 -0.123112
C19   C     C_R   0.437738 0.409514 0.928887 0.209027
C20   C     C_3   0.300674 0.384121 0.923145 -0.497516
C21   C     C_3   0.300913 0.383669 0.077171 -0.506566
C22   C     C_R   0.508281 0.739706 0.499662 0.951896
C23   C     C_R   0.739530 0.500464 0.500102 0.849975
C24   C     C_R   0.119938 0.735603 0.593918 0.435473
C25   C     C_R   0.046748 0.834570 0.648480 -0.236466
C26   C     C_R   0.917312 0.825701 0.656267 -0.192789
C27   C     C_R   0.858662 0.719222 0.608257 -0.195487
C28   C     C_R   0.929389 0.617230 0.554768 0.029364
H1    H     H_    0.119011 0.335083 0.401125 0.145921
H2    H     H_    0.582845 0.882397 0.827428 0.200959
H3    H     H_    0.418119 0.113770 0.763823 0.160830
H4    H     H_    0.625829 0.650271 0.126125 0.145520
H5    H     H_    0.626457 0.649683 0.873329 0.141085
H6    H     H_    0.245308 0.463552 0.878920 0.227512
H7    H     H_    0.281164 0.290621 0.878618 0.191318
H8    H     H_    0.245503 0.462718 0.121794 0.228529
H9    H     H_    0.281680 0.289873 0.121483 0.195698
H10   H     H_    0.090184 0.920040 0.683124 0.128583
H11   H     H_    0.861797 0.902906 0.697005 0.156770
H12   H     H_    0.757484 0.718747 0.612353 0.149779
H13   H     H_    0.891604 0.330964 0.400378 0.147485
H14   H     H_    0.516803 0.113017 0.277591 0.170567
H15   H     H_    0.518977 0.886806 0.277320 0.170102
H16   H     H_    0.417859 0.888046 0.763341 0.194794
N1    N     N_R   0.499160 0.499140 0.142800 -0.108120
N2    N     N_R   0.499160 0.499180 0.857150 -0.107990
O1    O     O_R   0.500020 0.316790 0.614690 -0.625489
O2    O     O_R   0.500000 0.316760 0.385350 -0.625475
O3    O     O_R   0.316770 0.500020 0.614690 -0.596490
O4    O     O_R   0.316760 0.499980 0.385350 -0.621975
O5    O     O_R   0.500000 0.683240 0.614650 -0.599395
O6    O     O_R   0.499980 0.683210 0.385310 -0.624064
O7    O     O_R   0.683240 0.500020 0.614650 -0.629798
O8    O     O_R   0.683230 0.499980 0.385310 -0.620042
Zn1   Zn    Zn3+2 0.500010 0.500020 0.653130 0.954473
Zn2   Zn    Zn3+2 0.499990 0.499980 0.346870 0.950672
C29   C     C_3   0.608229 0.126176 0.856873 -0.859934
H17   H     H_    0.701629 0.078789 0.848208 0.238717
H18   H     H_    0.619747 0.227641 0.835557 0.257576
H19   H     H_    0.573233 0.115299 0.962208 0.232389
O9    O     O_3   0.246874 0.750679 0.576454 -0.792136
H20   H     H_    0.269028 0.838211 0.599182 0.312669

loop_
_geom_bond_atom_site_label_1
_geom_bond_atom_site_label_2
_ccdc_geom_bond_type
C16   N1    A    
N2    Zn1   S    
C4    H1    S    
C12   O4    A    
C1    O2    A    
C15   H3    S    
C16   C21   S    
C25   H10   S    
C1    C8    S    
C15   C29   S    
C9    C10   A    
C10   H15   S    
C11   C22   S    
C19   C20   S    
C9    H14   S    
C27   H12   S    
C20   H6    S    
O9    H20   S    
C7    C15   S    
C2    C3    A    
C29   H17   S    
C19   N2    A    
C7    C8    A    
C21   H8    S    
C13   C14   S    
C24   C25   A    
C4    C5    A    
C11   C13   A    
C26   C27   A    
C24   O9    S    
C14   H2    S    
C16   C19   A    
C6    C23   S    
C18   N2    A    
C23   O7    A    
C14   H16   S    
C17   N1    A    
C17   C18   A    
O5    Zn1   S    
O7    Zn1   S    
C2    C24   A    
C5    C6    A    
C17   H4    S    
C18   H5    S    
O8    Zn2   S    
C26   H11   S    
C29   H18   S    
C12   O3    A    
C10   C11   A    
C3    C4    A    
O4    Zn2   S    
C7    C13   A    
C21   H9    S    
C20   C21   S    
C23   O8    A    
C22   O6    A    
C27   C28   A    
O2    Zn2   S    
O1    Zn1   S    
C5    H13   S    
C14   C15   S    
C1    O1    A    
C29   H19   S    
C2    C28   A    
C3    C12   S    
C25   C26   A    
O3    Zn1   S    
C20   H7    S    
C22   O5    A    
C6    C28   A    
O6    Zn2   S    
N1    Zn2   S    
C8    C9    A    
