data_mof_unit_59014.cif
_audit_creation_date              2012-12-11T15:33:42-0500
_audit_creation_method            fapswitch 2.2
_symmetry_space_group_name_H-M    P1
_symmetry_Int_Tables_number       1
_space_group_crystal_system       triclinic
_cell_length_a                    27.057131
_cell_length_b                    7.189804
_cell_length_c                    22.787625
_cell_angle_alpha                 89.997205
_cell_angle_beta                  101.225996
_cell_angle_gamma                 89.999892
_cell_volume                      4348.18436747

loop_
_atom_site_label
_atom_site_type_symbol
_atom_type_description
_atom_site_fract_x
_atom_site_fract_y
_atom_site_fract_z
_atom_type_partial_charge
O1    O     O_R   0.207310 0.594030 0.676830 -0.533115
O2    O     O_R   0.792690 0.405970 0.323170 -0.534867
O3    O     O_R   0.292690 0.094030 0.823170 -0.533111
O4    O     O_R   0.707310 0.905970 0.176830 -0.534858
O5    O     O_R   0.197320 0.262370 0.795700 -0.539115
O6    O     O_R   0.802680 0.737630 0.204300 -0.538955
O7    O     O_R   0.302680 0.762370 0.704300 -0.539113
O8    O     O_R   0.697320 0.237630 0.295700 -0.538956
C1    C     C_R   0.184695 0.432498 0.812031 0.675801
C2    C     C_R   0.815309 0.567501 0.187975 0.675414
C3    C     C_R   0.315305 0.932502 0.687969 0.675807
C4    C     C_R   0.684691 0.067498 0.312025 0.675406
O9    O     O_R   0.201410 0.264250 0.675590 -0.535236
O10   O     O_R   0.798590 0.735750 0.324410 -0.535208
O11   O     O_R   0.298590 0.764250 0.824410 -0.535240
O12   O     O_R   0.701410 0.235750 0.175590 -0.535219
O13   O     O_R   0.296810 0.094940 0.702210 -0.538776
O14   O     O_R   0.703190 0.905060 0.297790 -0.538462
O15   O     O_R   0.203190 0.594940 0.797790 -0.538775
O16   O     O_R   0.796810 0.405060 0.202210 -0.538461
C5    C     C_R   0.190128 0.431538 0.652941 0.696200
C6    C     C_R   0.809857 0.568463 0.347077 0.700180
C7    C     C_R   0.309872 0.931530 0.847059 0.696198
C8    C     C_R   0.690143 0.068473 0.152921 0.700224
O17   O     O_3   0.281300 0.427390 0.758870 -0.372412
O18   O     O_3   0.718700 0.572610 0.241130 -0.372537
O19   O     O_3   0.218700 0.927390 0.741130 -0.372412
O20   O     O_3   0.781300 0.072610 0.258870 -0.372537
V1    V     V_3+5 0.244190 0.152150 0.748350 1.404183
V2    V     V_3+5 0.755810 0.847850 0.251650 1.397757
V3    V     V_3+5 0.255810 0.652150 0.751650 1.404184
V4    V     V_3+5 0.744190 0.347850 0.248350 1.397744
C9    C     C_R   0.655518 0.073752 0.093916 -0.071599
C10   C     C_R   0.344659 0.926207 0.905943 -0.063469
C11   C     C_R   0.844482 0.573704 0.406081 -0.071594
C12   C     C_R   0.155346 0.426245 0.594055 -0.063473
C13   C     C_R   0.630907 0.249521 0.001669 -0.006810
C14   C     C_R   0.369517 0.746649 0.997416 -0.001954
C15   C     C_R   0.869064 0.749284 0.498369 -0.006621
C16   C     C_R   0.130505 0.246794 0.502563 -0.001972
C17   C     C_R   0.666810 0.199238 0.051664 -0.201550
C18   C     C_R   0.333146 0.802270 0.948493 -0.187583
C19   C     C_R   0.833171 0.699062 0.448357 -0.201536
C20   C     C_R   0.166868 0.302365 0.551498 -0.187591
C21   C     C_R   0.607621 0.990862 0.084527 -0.238422
C22   C     C_R   0.393033 0.004850 0.914529 -0.226338
C23   C     C_R   0.892388 0.490878 0.415457 -0.238218
C24   C     C_R   0.106970 0.504871 0.585468 -0.226344
C25   C     C_R   0.569565 0.038417 0.033871 0.071029
C26   C     C_R   0.431130 0.956084 0.964971 0.063663
C27   C     C_R   0.930437 0.538400 0.466121 0.071092
C28   C     C_R   0.068879 0.456148 0.535015 0.063674
C29   C     C_R   0.581952 0.171278 0.992654 0.092688
C30   C     C_R   0.418677 0.823285 0.006150 0.080762
C31   C     C_R   0.918032 0.671143 0.507364 0.092809
C32   C     C_R   0.081343 0.323420 0.493823 0.080763
C33   C     C_R   0.518995 0.966060 0.024378 0.070726
C34   C     C_R   0.481655 0.028673 0.974573 0.064982
C35   C     C_R   0.981016 0.466114 0.475600 0.070668
C36   C     C_R   0.018348 0.528694 0.525418 0.064970
C37   C     C_R   0.495954 0.162778 0.936107 -0.199385
C38   C     C_R   0.504380 0.834682 0.063507 -0.191263
C39   C     C_R   0.004034 0.662721 0.563903 -0.199339
C40   C     C_R   0.995645 0.334831 0.436449 -0.191200
C41   C     C_R   0.544714 0.230627 0.944661 -0.194089
C42   C     C_R   0.455506 0.767801 0.055103 -0.206652
C43   C     C_R   0.955267 0.730496 0.555361 -0.194151
C44   C     C_R   0.044523 0.267984 0.444854 -0.206633
H1    H     H_    0.552617 0.334344 0.913330 0.144159
H2    H     H_    0.446976 0.669859 0.087794 0.143452
H3    H     H_    0.947357 0.834171 0.586704 0.144143
H4    H     H_    0.053063 0.170103 0.412151 0.143441
H5    H     H_    0.400500 0.092983 0.879064 0.109365
H6    H     H_    0.600417 0.900566 0.119590 0.110814
H7    H     H_    0.099496 0.592950 0.620939 0.109360
H8    H     H_    0.899602 0.400673 0.380377 0.110772
H9    H     H_    0.296303 0.736762 0.940928 0.121525
H10   H     H_    0.703384 0.266775 0.059470 0.124708
H11   H     H_    0.203712 0.236864 0.559066 0.121528
H12   H     H_    0.796584 0.766508 0.440567 0.124623
H13   H     H_    0.470038 0.221349 0.898860 0.126242
H14   H     H_    0.529966 0.779082 0.101565 0.125322
H15   H     H_    0.029944 0.721291 0.601159 0.126234
H16   H     H_    0.970067 0.279270 0.398376 0.125323
C45   C     C_R   0.630006 0.881595 0.368316 -0.159747
C46   C     C_R   0.369916 0.118402 0.631579 -0.160410
C47   C     C_R   0.869995 0.381603 0.131688 -0.159745
C48   C     C_R   0.130084 0.618393 0.868418 -0.160410
H17   H     H_    0.645454 0.753821 0.354314 0.124417
H18   H     H_    0.354434 0.246171 0.645539 0.124251
H19   H     H_    0.854547 0.253829 0.145694 0.124423
H20   H     H_    0.145565 0.746163 0.854456 0.124255
C49   C     C_R   0.594113 0.868634 0.404847 -0.139619
C50   C     C_R   0.405791 0.131364 0.595025 -0.141030
C51   C     C_R   0.905888 0.368642 0.095158 -0.139627
C52   C     C_R   0.094210 0.631356 0.904972 -0.141039
H21   H     H_    0.583218 0.731786 0.417593 0.133356
H22   H     H_    0.416642 0.268207 0.582223 0.133276
H23   H     H_    0.916783 0.231793 0.082416 0.133355
H24   H     H_    0.083359 0.768199 0.917771 0.133274
C53   C     C_R   0.572749 0.029403 0.424717 0.020092
C54   C     C_R   0.427194 0.970602 0.575207 0.019956
C55   C     C_R   0.927253 0.529409 0.075285 0.020088
C56   C     C_R   0.072806 0.470595 0.924794 0.019954
C57   C     C_R   0.588280 0.203920 0.406745 -0.134783
C58   C     C_R   0.411714 0.796090 0.593245 -0.135724
C59   C     C_R   0.911721 0.703927 0.093252 -0.134779
C60   C     C_R   0.088285 0.296083 0.906759 -0.135723
H25   H     H_    0.572717 0.330973 0.421100 0.138533
H26   H     H_    0.427308 0.669042 0.578930 0.138413
H27   H     H_    0.927284 0.830980 0.078894 0.138534
H28   H     H_    0.072691 0.169035 0.921077 0.138414
C61   C     C_R   0.624274 0.217022 0.370073 -0.159163
C62   C     C_R   0.375739 0.782987 0.629941 -0.158972
C63   C     C_R   0.875727 0.717030 0.129924 -0.159151
C64   C     C_R   0.124261 0.282979 0.870063 -0.158976
H29   H     H_    0.635345 0.353735 0.357426 0.120725
H30   H     H_    0.364711 0.646278 0.642643 0.120546
H31   H     H_    0.864656 0.853742 0.142568 0.120723
H32   H     H_    0.135288 0.146271 0.857363 0.120542
C65   C     C_R   0.645756 0.055893 0.350352 -0.047306
C66   C     C_R   0.354222 0.944110 0.649617 -0.046771
C67   C     C_R   0.854244 0.555901 0.149648 -0.047307
C68   C     C_R   0.145777 0.444102 0.850383 -0.046772
N1    N     N_R   0.513895 0.168767 0.483568 -0.280929
N2    N     N_R   0.486041 0.831238 0.516347 -0.281031
N3    N     N_R   0.986107 0.668768 0.016429 -0.280929
N4    N     N_R   0.013959 0.331236 0.983659 -0.281032
N5    N     N_R   0.479966 0.154764 0.518708 -0.286440
N6    N     N_R   0.519969 0.845241 0.481206 -0.286103
N7    N     N_R   0.020035 0.654762 0.981289 -0.286446
N8    N     N_R   0.980031 0.345243 0.018800 -0.286108
C69   C     C_R   0.465236 0.985725 0.535940 0.511295
C70   C     C_R   0.534699 0.014280 0.463975 0.512026
C71   C     C_R   0.034764 0.485721 0.964061 0.511292
C72   C     C_R   0.965302 0.514284 0.036027 0.512023
C73   C     C_R   0.644593 0.397767 0.962752 0.079390
C74   C     C_R   0.653890 0.354924 0.905814 -0.142867
C75   C     C_R   0.666270 0.496450 0.869101 -0.106740
C76   C     C_R   0.669478 0.680845 0.889073 -0.094881
C77   C     C_R   0.660435 0.724072 0.945856 -0.114729
C78   C     C_R   0.648126 0.583030 0.982724 -0.117978
H33   H     H_    0.651366 0.212551 0.889946 0.107487
H34   H     H_    0.673314 0.463251 0.825139 0.113054
H35   H     H_    0.678977 0.790210 0.860565 0.105766
H36   H     H_    0.662921 0.866768 0.961257 0.123242
H37   H     H_    0.641000 0.618054 0.026567 0.121100
C79   C     C_R   0.355824 0.594265 0.034982 0.079183
C80   C     C_R   0.377418 0.416961 0.033253 -0.127744
C81   C     C_R   0.363165 0.271381 0.067087 -0.110040
C82   C     C_R   0.327074 0.301331 0.102394 -0.097016
C83   C     C_R   0.305150 0.476953 0.103905 -0.107406
C84   C     C_R   0.319310 0.623067 0.070158 -0.136144
H38   H     H_    0.405060 0.391640 0.005573 0.123723
H39   H     H_    0.379970 0.135294 0.065850 0.125136
H40   H     H_    0.316008 0.188336 0.128455 0.106312
H41   H     H_    0.277076 0.499726 0.131107 0.112668
H42   H     H_    0.301924 0.758360 0.071409 0.108379
C85   C     C_R   0.855329 0.897206 0.537375 0.079347
C86   C     C_R   0.846173 0.853950 0.594351 -0.142913
C87   C     C_R   0.833728 0.995121 0.631151 -0.106748
C88   C     C_R   0.830313 0.179585 0.611231 -0.094821
C89   C     C_R   0.839217 0.223237 0.554412 -0.114640
C90   C     C_R   0.851588 0.082539 0.517454 -0.118039
H43   H     H_    0.848855 0.711521 0.610179 0.107538
H44   H     H_    0.826793 0.961589 0.675142 0.113048
H45   H     H_    0.820761 0.288671 0.639809 0.105776
H46   H     H_    0.836575 0.365997 0.539051 0.122985
H47   H     H_    0.858602 0.117895 0.473583 0.121054
C91   C     C_R   0.144205 0.094443 0.464993 0.079174
C92   C     C_R   0.122631 0.917106 0.466733 -0.127699
C93   C     C_R   0.136898 0.771546 0.432906 -0.110064
C94   C     C_R   0.172980 0.801553 0.397591 -0.097017
C95   C     C_R   0.194883 0.977212 0.396067 -0.107393
C96   C     C_R   0.180710 0.123305 0.429808 -0.136157
H48   H     H_    0.094997 0.891741 0.494421 0.123718
H49   H     H_    0.120111 0.635429 0.434156 0.125127
H50   H     H_    0.184058 0.688574 0.371536 0.106308
H51   H     H_    0.222950 0.000029 0.368858 0.112669
H52   H     H_    0.198080 0.258627 0.428548 0.108375

loop_
_geom_bond_atom_site_label_1
_geom_bond_atom_site_label_2
_ccdc_geom_bond_type
C93   H49   S    
O17   V3    S    
C92   C93   A    
C48   C52   A    
O1    C5    A    
C56   C71   S    
C47   H19   S    
O19   V1    S    
C9    C21   A    
O3    C7    A    
C89   C90   A    
C10   C18   A    
C48   C68   A    
O15   V3    S    
C16   C91   S    
C87   C88   A    
C25   C33   A    
C33   C38   A    
C5    C12   S    
C53   C70   S    
O7    C3    A    
C6    C11   S    
C35   C40   A    
C26   C30   A    
C58   C62   A    
C36   C39   A    
C40   C44   A    
C57   C61   A    
C23   H8    S    
C14   C18   A    
N7    C71   A    
C74   H33   S    
C58   H26   S    
O4    C8    A    
C51   H23   S    
C44   H4    S    
C91   C92   A    
C50   H22   S    
C55   C72   S    
O1    V3    S    
C1    C68   S    
O13   V1    S    
C82   H40   S    
O2    V4    S    
C84   H42   S    
O3    V1    S    
C95   C96   A    
C40   H16   S    
C46   C50   A    
C45   C49   A    
C1    O15   A    
C15   C31   A    
C4    C65   S    
C48   H20   S    
N2    C69   A    
C2    O16   A    
C16   C32   A    
C47   C51   A    
O2    C6    A    
C82   C83   A    
C45   C65   A    
C10   C22   A    
C11   C19   A    
C16   C20   A    
C43   H3    S    
C87   H44   S    
N8    C72   A    
C13   C29   A    
C34   C37   A    
O11   C7    A    
C38   H14   S    
C73   C74   A    
C11   C23   A    
C35   C36   A    
O12   C8    A    
C13   C73   S    
C24   H7    S    
C90   H47   S    
N6    C70   A    
O10   V2    S    
N4    N8    A    
C51   C55   A    
O5    V1    S    
C91   C96   A    
C53   C57   A    
C39   C43   A    
C73   C78   A    
O7    V3    S    
C38   C42   A    
C26   C34   A    
C63   C67   A    
N3    C72   A    
C2    C67   S    
C46   H18   S    
N4    C71   A    
C49   C53   A    
C17   H10   S    
C45   H17   S    
O18   V4    S    
C23   C27   A    
C19   H12   S    
C32   C44   A    
C64   H32   S    
C39   H15   S    
C21   H6    S    
O8    V4    S    
C80   H38   S    
O5    C1    A    
C37   C41   A    
C75   H34   S    
C31   C43   A    
C85   C86   A    
C14   C30   A    
C21   C25   A    
O8    C4    A    
C7    C10   S    
C14   C79   S    
O9    C5    A    
C86   H43   S    
C76   C77   A    
C59   C63   A    
C62   H30   S    
C77   H36   S    
C61   H29   S    
O6    V2    S    
C63   H31   S    
C81   H39   S    
C52   C56   A    
N1    N5    A    
O14   V2    S    
N5    C69   A    
C12   C20   A    
C3    C66   S    
C27   C35   A    
C79   C84   A    
C49   H21   S    
C56   C60   A    
C29   C41   A    
C93   C94   A    
C88   C89   A    
O16   V4    S    
O9    V1    S    
C57   H25   S    
C83   H41   S    
C3    O13   A    
C64   C68   A    
C15   C85   S    
C85   C90   A    
C59   H27   S    
C78   H37   S    
C20   H11   S    
C76   H35   S    
O6    C2    A    
C15   C19   A    
C75   C76   A    
O11   V3    S    
C96   H52   S    
C30   C42   A    
O12   V4    S    
C92   H48   S    
C22   C26   A    
C8    C9    S    
C9    C17   A    
C86   C87   A    
O10   C6    A    
O20   V2    S    
C89   H46   S    
C54   C69   S    
N1    C70   A    
C37   H13   S    
C77   C78   A    
C47   C67   A    
C60   C64   A    
C33   C34   A    
C42   H2    S    
C94   H50   S    
C41   H1    S    
C52   H24   S    
C12   C24   A    
C27   C31   A    
C79   C80   A    
C13   C17   A    
C46   C66   A    
N3    N7    A    
C25   C29   A    
C74   C75   A    
C94   C95   A    
C88   H45   S    
C62   C66   A    
C60   H28   S    
C24   C28   A    
C61   C65   A    
C83   C84   A    
C50   C54   A    
C18   H9    S    
C28   C36   A    
C54   C58   A    
C4    O14   A    
N2    N6    A    
C81   C82   A    
C55   C59   A    
C80   C81   A    
C95   H51   S    
C22   H5    S    
O4    V2    S    
C28   C32   A    
