data_mof_unit_15219.cif
_audit_creation_date              2012-12-11T15:33:47-0500
_audit_creation_method            fapswitch 2.2
_symmetry_space_group_name_H-M    P1
_symmetry_Int_Tables_number       1
_space_group_crystal_system       triclinic
_cell_length_a                    27.073891
_cell_length_b                    7.211425
_cell_length_c                    22.711256
_cell_angle_alpha                 90.000023
_cell_angle_beta                  101.221047
_cell_angle_gamma                 89.999952
_cell_volume                      4349.4110641

loop_
_atom_site_label
_atom_site_type_symbol
_atom_type_description
_atom_site_fract_x
_atom_site_fract_y
_atom_site_fract_z
_atom_type_partial_charge
O1    O     O_R   0.207310 0.594030 0.676830 -0.526134
O2    O     O_R   0.792690 0.405970 0.323170 -0.526134
O3    O     O_R   0.292690 0.094030 0.823170 -0.526135
O4    O     O_R   0.707310 0.905970 0.176830 -0.526134
O5    O     O_R   0.197320 0.262370 0.795700 -0.534315
O6    O     O_R   0.802680 0.737630 0.204300 -0.534315
O7    O     O_R   0.302680 0.762370 0.704300 -0.534315
O8    O     O_R   0.697320 0.237630 0.295700 -0.534315
C1    C     C_R   0.184627 0.432240 0.811817 0.699740
C2    C     C_R   0.815373 0.567760 0.188183 0.699740
C3    C     C_R   0.315373 0.932240 0.688183 0.699740
C4    C     C_R   0.684627 0.067760 0.311817 0.699740
O9    O     O_R   0.201410 0.264250 0.675590 -0.533282
O10   O     O_R   0.798590 0.735750 0.324410 -0.533282
O11   O     O_R   0.298590 0.764250 0.824410 -0.533282
O12   O     O_R   0.701410 0.235750 0.175590 -0.533281
O13   O     O_R   0.296810 0.094940 0.702210 -0.536978
O14   O     O_R   0.703190 0.905060 0.297790 -0.536979
O15   O     O_R   0.203190 0.594940 0.797790 -0.536979
O16   O     O_R   0.796810 0.405060 0.202210 -0.536979
C5    C     C_R   0.189890 0.433201 0.653243 0.733772
C6    C     C_R   0.810110 0.566799 0.346757 0.733773
C7    C     C_R   0.310110 0.933201 0.846757 0.733773
C8    C     C_R   0.689890 0.066799 0.153243 0.733773
O17   O     O_3   0.281300 0.427390 0.758870 -0.373283
O18   O     O_3   0.718700 0.572610 0.241130 -0.373283
O19   O     O_3   0.218700 0.927390 0.741130 -0.373283
O20   O     O_3   0.781300 0.072610 0.258870 -0.373283
V1    V     V_3+5 0.244190 0.152150 0.748350 1.472349
V2    V     V_3+5 0.755810 0.847850 0.251650 1.472349
V3    V     V_3+5 0.255810 0.652150 0.751650 1.472350
V4    V     V_3+5 0.744190 0.347850 0.248350 1.472350
C9    C     C_R   0.656194 0.054221 0.093623 -0.119925
C10   C     C_R   0.343806 0.945779 0.906377 -0.119925
C11   C     C_R   0.843805 0.554221 0.406377 -0.119925
C12   C     C_R   0.156194 0.445779 0.593623 -0.119926
C13   C     C_R   0.644115 0.002305 0.985753 0.155849
C14   C     C_R   0.355885 0.997695 0.014247 0.155849
C15   C     C_R   0.855885 0.502295 0.514246 0.155849
C16   C     C_R   0.144115 0.497705 0.485754 0.155849
C17   C     C_R   0.676449 0.026259 0.041925 0.117640
C18   C     C_R   0.323551 0.973741 0.958075 0.117640
C19   C     C_R   0.823551 0.526253 0.458075 0.117640
C20   C     C_R   0.176449 0.473747 0.541925 0.117641
C21   C     C_R   0.603818 0.053756 0.089496 -0.245067
C22   C     C_R   0.396182 0.946244 0.910504 -0.245067
C23   C     C_R   0.896182 0.553758 0.410505 -0.245067
C24   C     C_R   0.103818 0.446241 0.589495 -0.245067
C25   C     C_R   0.570000 0.023962 0.033950 0.067414
C26   C     C_R   0.430000 0.976038 0.966050 0.067414
C27   C     C_R   0.929999 0.523962 0.466050 0.067414
C28   C     C_R   0.070000 0.476038 0.533950 0.067414
C29   C     C_R   0.591061 0.999916 0.981752 0.034443
C30   C     C_R   0.408939 0.000083 0.018248 0.034443
C31   C     C_R   0.908939 0.499909 0.518248 0.034443
C32   C     C_R   0.091061 0.500091 0.481752 0.034443
C33   C     C_R   0.516055 0.015433 0.028644 0.078927
C34   C     C_R   0.483944 0.984567 0.971356 0.078927
C35   C     C_R   0.983944 0.515435 0.471356 0.078927
C36   C     C_R   0.016055 0.484565 0.528644 0.078926
C37   C     C_R   0.506868 0.964341 0.921156 -0.182947
C38   C     C_R   0.493132 0.035659 0.078844 -0.182947
C39   C     C_R   0.993132 0.464331 0.578843 -0.182946
C40   C     C_R   0.006868 0.535669 0.421157 -0.182946
C41   C     C_R   0.558705 0.971824 0.926310 -0.136177
C42   C     C_R   0.441295 0.028175 0.073690 -0.136177
C43   C     C_R   0.941294 0.471812 0.573690 -0.136177
C44   C     C_R   0.058705 0.528188 0.426310 -0.136177
H1    H     H_    0.572788 0.953958 0.885383 0.172631
H2    H     H_    0.427212 0.046042 0.114617 0.172631
H3    H     H_    0.927212 0.453940 0.614617 0.172631
H4    H     H_    0.072788 0.546060 0.385383 0.172631
H5    H     H_    0.409007 0.926809 0.868950 0.111529
H6    H     H_    0.590992 0.073191 0.131050 0.111529
H7    H     H_    0.090993 0.426802 0.631050 0.111529
H8    H     H_    0.909007 0.573197 0.368950 0.111529
C45   C     C_R   0.638901 0.895635 0.381442 -0.119611
C46   C     C_R   0.361099 0.104365 0.618558 -0.119611
C47   C     C_R   0.861099 0.395634 0.118559 -0.119611
C48   C     C_R   0.138901 0.604366 0.881441 -0.119611
H9    H     H_    0.662193 0.775376 0.378766 0.161815
H10   H     H_    0.337807 0.224624 0.621234 0.161815
H11   H     H_    0.837808 0.275374 0.121235 0.161815
H12   H     H_    0.162192 0.724626 0.878765 0.161815
C49   C     C_R   0.602785 0.886283 0.417783 -0.112280
C50   C     C_R   0.397215 0.113717 0.582217 -0.112279
C51   C     C_R   0.897216 0.386282 0.082217 -0.112280
C52   C     C_R   0.102784 0.613718 0.917783 -0.112280
C53   C     C_R   0.571035 0.037487 0.422664 -0.028695
C54   C     C_R   0.428965 0.962513 0.577336 -0.028695
C55   C     C_R   0.928965 0.537486 0.077336 -0.028694
C56   C     C_R   0.071035 0.462514 0.922664 -0.028694
C57   C     C_R   0.576302 0.200063 0.389314 0.190045
C58   C     C_R   0.423698 0.799937 0.610686 0.190045
C59   C     C_R   0.923698 0.700063 0.110685 0.190044
C60   C     C_R   0.076302 0.299937 0.889315 0.190044
C61   C     C_R   0.613646 0.209893 0.354161 -0.160411
C62   C     C_R   0.386354 0.790107 0.645839 -0.160411
C63   C     C_R   0.886354 0.709893 0.145839 -0.160411
C64   C     C_R   0.113646 0.290107 0.854161 -0.160412
H13   H     H_    0.616912 0.335435 0.329037 0.145646
H14   H     H_    0.383088 0.664565 0.670963 0.145646
H15   H     H_    0.883088 0.835435 0.170962 0.145646
H16   H     H_    0.116912 0.164565 0.829038 0.145646
C65   C     C_R   0.645359 0.058154 0.349689 -0.082912
C66   C     C_R   0.354641 0.941846 0.650311 -0.082913
C67   C     C_R   0.854641 0.558154 0.150311 -0.082912
C68   C     C_R   0.145359 0.441846 0.849689 -0.082912
N1    N     N_R   0.520574 0.166586 0.493627 -0.209003
N2    N     N_R   0.479426 0.833414 0.506373 -0.209003
N3    N     N_R   0.979425 0.666585 0.006371 -0.209003
N4    N     N_R   0.020575 0.333415 0.993629 -0.209003
N5    N     N_R   0.487788 0.147840 0.530137 -0.234319
N6    N     N_R   0.512212 0.852160 0.469863 -0.234320
N7    N     N_R   0.012211 0.647839 0.969861 -0.234318
N8    N     N_R   0.987789 0.352161 0.030139 -0.234318
C69   C     C_R   0.466698 0.980537 0.537682 0.536807
C70   C     C_R   0.533301 0.019463 0.462318 0.536807
C71   C     C_R   0.033302 0.480537 0.962318 0.536806
C72   C     C_R   0.966698 0.519463 0.037682 0.536806
I1    I     I_    0.243343 0.984303 0.949518 -0.328251
I2    I     I_    0.756657 0.015697 0.050482 -0.328251
I3    I     I_    0.256657 0.484311 0.550483 -0.328251
I4    I     I_    0.743343 0.515689 0.449517 -0.328251
I5    I     I_    0.676650 0.966223 0.907405 -0.233279
I6    I     I_    0.323350 0.033777 0.092595 -0.233279
I7    I     I_    0.823350 0.466203 0.592594 -0.233281
I8    I     I_    0.176650 0.533797 0.407406 -0.233281
H17   H     H_    0.485827 0.941926 0.876438 0.131891
H18   H     H_    0.514173 0.058074 0.123562 0.131891
H19   H     H_    0.014173 0.441912 0.623561 0.131891
H20   H     H_    0.985827 0.558088 0.376439 0.131891
H21   H     H_    0.600036 0.759992 0.442727 0.180330
H22   H     H_    0.399964 0.240008 0.557272 0.180330
H23   H     H_    0.899964 0.259990 0.057273 0.180330
H24   H     H_    0.100035 0.740010 0.942727 0.180330
I9    I     I_    0.526687 0.430258 0.383622 -0.293958
I10   I     I_    0.473313 0.569743 0.616378 -0.293958
I11   I     I_    0.973313 0.930258 0.116377 -0.293959
I12   I     I_    0.026687 0.069742 0.883623 -0.293959

loop_
_geom_bond_atom_site_label_1
_geom_bond_atom_site_label_2
_ccdc_geom_bond_type
O17   V3    S    
C63   H15   S    
C25   C29   A    
O1    C5    A    
C51   C55   A    
O19   V1    S    
C9    C21   A    
C38   H18   S    
O3    C7    A    
C10   C18   A    
O1    V3    S    
C48   H12   S    
C11   C23   A    
C47   C51   A    
C25   C33   A    
C33   C38   A    
C5    C12   S    
C1    C68   S    
O7    C3    A    
C6    C11   S    
C35   C40   A    
C26   C30   A    
C36   C39   A    
C40   C44   A    
O9    V1    S    
C56   C71   S    
C23   H8    S    
C14   C18   A    
C4    C65   S    
O4    C8    A    
C59   C63   A    
C44   H4    S    
C43   H3    S    
C58   C62   A    
C16   I8    S    
C56   C60   A    
O13   V1    S    
O2    V4    S    
O3    V1    S    
C28   C36   A    
C50   H22   S    
C64   H16   S    
C15   C31   A    
C52   C56   A    
C2    O16   A    
C16   C32   A    
O2    C6    A    
C10   C22   A    
C39   H19   S    
C11   C19   A    
N2    N6    A    
C16   C20   A    
O5    V1    S    
C37   H17   S    
C13   C29   A    
C46   C50   A    
C34   C37   A    
O11   C7    A    
O15   V3    S    
C35   C36   A    
O12   C8    A    
C53   C57   A    
C24   H7    S    
C2    C67   S    
O10   V2    S    
N2    C69   A    
C14   I6    S    
C1    O15   A    
N1    C70   A    
C54   C58   A    
C13   I5    S    
C39   C43   A    
C64   C68   A    
C15   I7    S    
C38   C42   A    
C47   C67   A    
C26   C34   A    
C54   C69   S    
C51   H23   S    
O7    V3    S    
C52   H24   S    
C50   C54   A    
C49   C53   A    
O18   V4    S    
C15   C19   A    
C62   H14   S    
C55   C59   A    
N8    C72   A    
N3    C72   A    
O8    V4    S    
C17   I2    S    
O5    C1    A    
C46   H10   S    
C31   C43   A    
C14   C30   A    
C45   H9    S    
O8    C4    A    
C7    C10   S    
C3    C66   S    
C21   C25   A    
O9    C5    A    
N6    C70   A    
N5    C69   A    
O6    V2    S    
N7    C71   A    
O14   V2    S    
C58   I10   S    
C12   C20   A    
C27   C35   A    
C57   C61   A    
N4    N8    A    
C29   C41   A    
O16   V4    S    
C48   C68   A    
C3    O13   A    
C59   I11   S    
C60   I12   S    
N4    C71   A    
C23   C27   A    
O11   V3    S    
C30   C42   A    
N1    N5    A    
O12   V4    S    
C63   C67   A    
C22   C26   A    
C20   I3    S    
C40   H20   S    
C8    C9    S    
C62   C66   A    
C46   C66   A    
C9    C17   A    
O10   C6    A    
O20   V2    S    
C61   C65   A    
C48   C52   A    
C32   C44   A    
C47   H11   S    
C33   C34   A    
C42   H2    S    
C41   H1    S    
C60   C64   A    
C45   C65   A    
C12   C24   A    
C27   C31   A    
C13   C17   A    
C61   H13   S    
C57   I9    S    
O6    C2    A    
C45   C49   A    
C37   C41   A    
C24   C28   A    
C53   C70   S    
C4    O14   A    
C55   C72   S    
C21   H6    S    
N3    N7    A    
C19   I4    S    
C22   H5    S    
O4    V2    S    
C28   C32   A    
C18   I1    S    
C49   H21   S    
