data_mof_unit_56931.cif
_audit_creation_date              2012-12-11T17:37:40-0500
_audit_creation_method            fapswitch 2.2
_symmetry_space_group_name_H-M    P1
_symmetry_Int_Tables_number       1
_space_group_crystal_system       triclinic
_cell_length_a                    12.959098
_cell_length_b                    13.047362
_cell_length_c                    15.318606
_cell_angle_alpha                 115.928989
_cell_angle_beta                  64.414713
_cell_angle_gamma                 96.524421
_cell_volume                      2091.91351496

loop_
_atom_site_label
_atom_site_type_symbol
_atom_type_description
_atom_site_fract_x
_atom_site_fract_y
_atom_site_fract_z
_atom_type_partial_charge
C1    C     C_R   0.019265 0.833725 0.033073 -0.120397
C2    C     C_R   0.319103 0.541901 0.781136 -0.160199
C3    C     C_R   0.244505 0.482471 0.108261 -0.117844
C4    C     C_R   0.699252 0.410557 0.210654 -0.154850
C5    C     C_R   0.987858 0.301861 0.696991 -0.160927
C6    C     C_R   0.337385 0.540974 0.074189 0.123545
C7    C     C_R   0.932845 0.206632 0.696095 0.056737
C8    C     C_R   0.324226 0.479754 0.679608 0.056978
C9    C     C_R   0.072306 0.142874 0.981723 -0.117283
C10   C     C_R   0.357995 0.804409 0.311649 -0.084785
C11   C     C_R   0.240126 0.837985 0.368239 -0.145731
C12   C     C_R   0.701909 0.445044 0.308052 0.054967
C13   C     C_R   0.193620 0.922863 0.359169 0.131381
C14   C     C_R   0.265568 0.971897 0.291265 -0.167636
C15   C     C_R   0.383051 0.936623 0.233296 -0.116948
C16   C     C_R   0.739469 0.578002 0.947097 -0.156796
C17   C     C_R   0.429477 0.854099 0.244630 -0.077909
C18   C     C_R   0.054098 0.068300 0.524906 -0.237020
C19   C     C_R   0.942028 0.113706 0.599744 0.070004
C20   C     C_R   0.845643 0.066064 0.583707 0.017286
C21   C     C_R   0.865317 0.967040 0.490320 -0.247275
C22   C     C_R   0.978322 0.921339 0.416027 0.063262
C23   C     C_R   0.637923 0.560187 0.019747 0.139547
C24   C     C_R   0.073550 0.971783 0.432211 -0.000498
C25   C     C_R   0.640508 0.053792 0.698740 -0.160444
C26   C     C_R   0.529048 0.104682 0.772672 -0.120819
C27   C     C_R   0.502496 0.221320 0.809183 -0.093958
C28   C     C_R   0.966223 0.716694 0.315143 -0.148727
C29   C     C_R   0.587236 0.287160 0.771339 -0.100330
C30   C     C_R   0.698699 0.236599 0.697296 -0.132607
C31   C     C_R   0.726686 0.119513 0.661012 0.124811
C32   C     C_R   0.920451 0.267877 0.349414 -0.126959
C33   C     C_R   0.810979 0.295184 0.364476 -0.219420
C34   C     C_R   0.995272 0.822788 0.320548 0.065831
C35   C     C_R   0.736414 0.382832 0.461007 0.137415
C36   C     C_R   0.772048 0.440383 0.543787 -0.246085
C37   C     C_R   0.881503 0.412848 0.528830 -0.173741
C38   C     C_R   0.956657 0.326912 0.431084 0.419262
C39   C     C_R   0.526094 0.429247 0.566632 -0.248659
C40   C     C_R   0.661967 0.481092 0.046518 -0.102328
C41   C     C_R   0.420373 0.469984 0.584582 0.066133
C42   C     C_R   0.407880 0.502192 0.512869 0.017935
C43   C     C_R   0.502129 0.482802 0.418395 -0.244496
C44   C     C_R   0.608240 0.442130 0.399623 0.064962
C45   C     C_R   0.323181 0.577646 0.008846 -0.123519
C46   C     C_R   0.622894 0.417454 0.474683 0.037061
C47   C     C_R   0.254702 0.526427 0.462333 -0.186431
C48   C     C_R   0.157037 0.586163 0.483897 -0.112272
C49   C     C_R   0.106275 0.684739 0.579867 -0.118653
C50   C     C_R   0.153775 0.724481 0.653971 -0.108680
C51   C     C_R   0.251916 0.665500 0.632397 -0.124244
C52   C     C_R   0.053634 0.816604 0.218949 -0.124236
C53   C     C_R   0.302334 0.564694 0.537019 0.119699
C54   C     C_2   0.433162 0.560295 0.101310 -0.188750
C55   C     C_2   0.525215 0.600667 0.046487 -0.219124
C56   C     C_R   0.907667 0.199747 0.790011 -0.120185
C57   C     C_2   0.886301 0.962946 0.030055 -0.189260
C58   C     C_2   0.864920 0.050631 0.125110 -0.178643
C59   C     C_R   0.798567 0.499998 0.307523 -0.119581
C60   C     C_R   0.925370 0.748512 0.931207 -0.147404
C61   C     C_R   0.945387 0.853734 0.996851 0.129522
C62   C     C_3   0.249763 0.183957 0.052237 0.174651
C63   C     C_3   0.216706 0.093557 0.095577 -0.295759
C64   C     C_3   0.309256 0.993231 0.030391 -1.047936
C65   C     C_3   0.075495 0.298378 0.412225 -1.121019
C66   C     C_R   0.216288 0.452852 0.685484 -0.110353
C67   C     C_R   0.090927 0.249408 0.050781 0.559187
C68   C     C_R   0.991402 0.166753 0.954491 -0.183953
H1    H     H_    0.056741 0.897345 0.081006 0.095161
H2    H     H_    0.185869 0.800982 0.421871 0.115180
H3    H     H_    0.640253 0.355878 0.182609 0.097812
H4    H     H_    0.231045 0.038779 0.284950 0.116991
H5    H     H_    0.438429 0.974914 0.181315 0.115642
H6    H     H_    0.126889 0.106542 0.540666 0.146764
H7    H     H_    0.793582 0.927008 0.473900 0.137267
H8    H     H_    0.659923 0.963584 0.672014 0.107864
H9    H     H_    0.463400 0.053544 0.801727 0.106767
H10   H     H_    0.416269 0.260675 0.866503 0.107354
H11   H     H_    0.566518 0.377357 0.799224 0.110351
H12   H     H_    0.858290 0.137917 0.816507 0.091381
H13   H     H_    0.762974 0.288666 0.667982 0.119727
H14   H     H_    0.747063 0.625548 0.902595 0.088955
H15   H     H_    0.977857 0.201802 0.273605 0.129105
H16   H     H_    0.784675 0.249862 0.300348 0.143836
H17   H     H_    0.716180 0.508564 0.619043 0.125228
H18   H     H_    0.907831 0.459408 0.593043 0.120765
H19   H     H_    0.532786 0.407221 0.624744 0.134890
H20   H     H_    0.494861 0.508860 0.362787 0.129361
H21   H     H_    0.292708 0.449856 0.387789 0.118726
H22   H     H_    0.120542 0.555824 0.426265 0.123279
H23   H     H_    0.190890 0.410110 0.620448 0.103736
H24   H     H_    0.030540 0.730691 0.596507 0.101857
H25   H     H_    0.114870 0.801358 0.727963 0.112825
H26   H     H_    0.928612 0.691308 0.379988 0.097331
H27   H     H_    0.288634 0.698487 0.689940 0.110922
H28   H     H_    0.435798 0.520127 0.149144 0.115764
H29   H     H_    0.521565 0.645589 0.002743 0.126870
H30   H     H_    0.850611 0.969580 0.980195 0.126820
H31   H     H_    0.893552 0.046031 0.180278 0.128588
H32   H     H_    0.603763 0.441633 0.095571 0.083897
H33   H     H_    0.098132 0.882852 0.197218 0.094619
H34   H     H_    0.956826 0.104593 0.901954 0.125951
H35   H     H_    0.830285 0.529908 0.368382 0.106350
H36   H     H_    0.880755 0.734196 0.882233 0.089025
H37   H     H_    0.368545 0.639885 0.980991 0.090652
H38   H     H_    0.323393 0.225520 0.068380 0.117926
H39   H     H_    0.281332 0.144064 0.963246 0.086575
H40   H     H_    0.203581 0.132816 0.180518 0.197616
H41   H     H_    0.134816 0.061692 0.092852 0.194733
H42   H     H_    0.321460 0.950479 0.945533 0.269675
H43   H     H_    0.282835 0.929761 0.064385 0.268591
H44   H     H_    0.391912 0.023513 0.033202 0.266836
H45   H     H_    0.387559 0.581408 0.803134 0.099210
H46   H     H_    0.085160 0.208168 0.397718 0.258295
H47   H     H_    0.139354 0.310191 0.341230 0.264418
H48   H     H_    0.093879 0.354699 0.481802 0.256743
H49   H     H_    0.221699 0.459107 0.173440 0.143996
H50   H     H_    0.011953 0.336065 0.639014 0.109028
H51   H     H_    0.520903 0.828800 0.201595 0.115167
H52   H     H_    0.394108 0.740633 0.320506 0.114289
N1    N     N_R   0.037320 0.720000 0.995830 -0.043893
N2    N     N_R   0.824900 0.517970 0.936430 -0.038915
N3    N     N_R   0.003190 0.648180 0.211390 -0.039040
N4    N     N_R   0.774330 0.457010 0.995830 -0.043875
N5    N     N_R   0.053760 0.709130 0.151980 -0.039236
N6    N     N_R   0.853840 0.498830 0.211390 -0.042505
N7    N     N_R   0.974250 0.667320 0.936430 -0.038716
N8    N     N_R   0.225670 0.542990 0.004170 -0.050081
N9    N     N_R   0.946240 0.290870 0.848020 -0.038910
N10   N     N_R   0.146160 0.501170 0.788610 -0.042433
N11   N     N_R   0.025750 0.332680 0.063570 -0.087076
N12   N     N_R   0.962680 0.280000 0.004170 -0.068755
N13   N     N_R   0.209230 0.553860 0.848010 -0.039715
N14   N     N_R   0.175100 0.482030 0.063570 -0.046353
N15   N     N_R   0.996810 0.351820 0.788610 -0.039038
N16   N     N_R   0.790770 0.446140 0.151990 -0.039034
Ni1   Ni    Ni4+2 0.130310 0.630310 0.000000 0.206673
Ni2   Ni    Ni4+2 0.869690 0.369690 0.000000 0.204686
Ni3   Ni    Ni4+2 0.985660 0.509480 0.863750 0.210166
Ni4   Ni    Ni4+2 0.014340 0.490520 0.136250 0.230036
O1    O     O_3   0.157504 0.269738 0.106380 -0.700201

loop_
_geom_bond_atom_site_label_1
_geom_bond_atom_site_label_2
_ccdc_geom_bond_type
C25   C31   A    
C8    C66   A    
C6    C45   A    
C27   C29   A    
C47   H21   S    
C65   H46   S    
C35   C36   A    
C39   H19   S    
N8    Ni1   S    
C27   H10   S    
C28   N3    A    
C39   C41   A    
C59   N6    A    
N13   Ni1   S    
N6    Ni4   S    
C26   C27   A    
C37   C38   A    
C18   C24   A    
C43   H20   S    
N4    Ni2   S    
C36   C37   A    
C68   H34   S    
N2    Ni3   S    
N1    N7    A    
C42   C53   S    
N14   Ni4   S    
C30   C31   A    
C2    H45   S    
C64   H44   S    
C10   C17   A    
N12   Ni2   S    
C23   C40   A    
C28   H26   S    
C18   C19   A    
C41   C42   A    
N1    Ni1   S    
C68   N12   A    
C16   N2    A    
N11   Ni4   S    
C3    H49   S    
C13   C14   A    
N9    N15   A    
C12   C59   A    
N9    Ni2   S    
C19   C20   A    
C45   H37   S    
C32   C38   A    
C4    C12   A    
C29   C30   A    
C54   H28   S    
C56   N9    A    
C4    N16   A    
C3    C6    A    
C28   C34   A    
C18   H6    S    
C48   H22   S    
C21   C22   A    
C65   H47   S    
N7    Ni3   S    
C7    C56   A    
C6    C54   S    
C22   C34   S    
N10   Ni3   S    
C44   C46   A    
C40   N4    A    
C67   N11   A    
C52   H33   S    
C11   H2    S    
C26   H9    S    
C2    N13   A    
C37   H18   S    
C10   H52   S    
C8    C41   S    
N16   Ni2   S    
C5    C7    A    
C64   H43   S    
C62   H39   S    
N5    Ni1   S    
C25   C26   A    
N3    Ni4   S    
C1    H1    S    
C13   C24   S    
C60   C61   A    
C51   C53   A    
C63   H41   S    
N15   Ni3   S    
C43   C44   A    
C9    C67   A    
C62   C63   S    
N8    N14   A    
C64   H42   S    
C47   C48   A    
C29   H11   S    
C38   C65   S    
C55   H29   S    
C16   H14   S    
C50   C51   A    
C57   C61   S    
C39   C46   A    
C48   C49   A    
C15   H5    S    
C16   C23   A    
C7    C19   S    
C65   H48   S    
C22   C24   A    
N10   N13   A    
C42   C43   A    
C49   H24   S    
N2    N4    A    
N11   N12   A    
C67   O1    S    
C5    N15   A    
C32   H15   S    
C54   C55   D    
C14   H4    S    
C60   N7    A    
C2    C8    A    
C58   H31   S    
C1    C61   A    
C40   H32   S    
C52   N5    A    
C50   H25   S    
C23   C55   S    
C66   H23   S    
C62   H38   S    
C36   H17   S    
C21   H7    S    
C34   C52   A    
C45   N8    A    
C56   H12   S    
C47   C53   A    
C5    H50   S    
C3    N14   A    
C59   H35   S    
C32   C33   A    
C25   H8    S    
C30   H13   S    
C9    C68   A    
C12   C44   S    
C60   H36   S    
C11   C13   A    
C57   C58   D    
C57   H30   S    
C33   C35   A    
C33   H16   S    
C1    N1    A    
N3    N5    A    
C10   C11   A    
C17   H51   S    
N6    N16   A    
C63   C64   S    
C20   C21   A    
C49   C50   A    
C14   C15   A    
C62   O1    S    
C63   H40   S    
C15   C17   A    
C35   C46   S    
C4    H3    S    
C51   H27   S    
C66   N10   A    
C20   C31   S    
