data_mof_unit_50304.cif
_audit_creation_date              2012-10-26T19:50:23-0400
_audit_creation_method            fapswitch 2.2
_symmetry_space_group_name_H-M    P1
_symmetry_Int_Tables_number       1
_space_group_crystal_system       triclinic
_cell_length_a                    13.944143
_cell_length_b                    15.163794
_cell_length_c                    15.644734
_cell_angle_alpha                 92.566846
_cell_angle_beta                  70.901566
_cell_angle_gamma                 90.404276
_cell_volume                      3122.70022338

loop_
_atom_site_label
_atom_site_type_symbol
_atom_type_description
_atom_site_fract_x
_atom_site_fract_y
_atom_site_fract_z
_atom_type_partial_charge
C1    C     C_R   0.500350 0.669524 0.500160 0.624859
C2    C     C_R   0.584944 0.184239 0.503875 0.189189
C3    C     C_R   0.501792 0.765356 0.498948 -0.018171
C4    C     C_R   0.497710 0.231562 0.503774 -0.046663
C5    C     C_R   0.574829 0.806698 0.428163 0.242985
C6    C     C_R   0.409641 0.184591 0.503478 0.240935
C7    C     C_R   0.570123 0.898062 0.421056 0.248470
C8    C     C_R   0.412502 0.092926 0.490985 0.244835
C9    C     C_R   0.498806 0.948816 0.491251 -0.041724
C10   C     C_R   0.499188 0.045832 0.491491 -0.045044
C11   C     C_R   0.919334 0.467677 0.422611 0.172791
C12   C     C_R   0.499040 0.329457 0.501892 0.571964
C13   C     C_R   0.099026 0.576924 0.527562 0.178451
C14   C     C_R   0.815169 0.457031 0.430679 0.444626
C15   C     C_R   0.195181 0.569588 0.539728 0.425493
C16   C     C_R   0.438070 0.495854 0.672861 0.541481
C17   C     C_R   0.561766 0.500328 0.326742 0.604357
C18   C     C_R   0.767803 0.542298 0.568858 0.337905
C19   C     C_R   0.221369 0.430239 0.461028 0.391904
C20   C     C_R   0.865951 0.534543 0.574163 0.208543
C21   C     C_R   0.117902 0.425115 0.469801 0.220825
C22   C     C_R   0.946021 0.501211 0.498159 -0.103017
C23   C     C_R   0.394222 0.399998 0.085793 0.262273
C24   C     C_R   0.055302 0.501316 0.498083 -0.115290
C25   C     C_R   0.401086 0.476237 0.771021 -0.056802
C26   C     C_R   0.599158 0.493952 0.225674 0.035168
C27   C     C_R   0.277308 0.408919 0.901199 0.322124
C28   C     C_R   0.737138 0.476581 0.081132 0.278150
C29   C     C_R   0.305488 0.436279 0.811544 0.176417
C30   C     C_R   0.704026 0.488673 0.176535 0.194641
C31   C     C_R   0.467550 0.485959 0.822105 0.193259
C32   C     C_R   0.529216 0.490998 0.178042 0.214841
C33   C     C_R   0.447535 0.442677 0.903810 -0.011633
C34   C     C_R   0.625279 0.420349 0.897469 0.324431
C35   C     C_R   0.561134 0.461169 0.085629 -0.085613
C36   C     C_R   0.348419 0.412091 0.948413 -0.062189
C37   C     C_R   0.666410 0.456769 0.035733 -0.041336
C38   C     C_R   0.522086 0.438401 0.946616 0.005753
C39   C     C_R   0.490659 0.436648 0.041122 -0.076449
C40   C     C_3   0.170457 0.399140 0.154846 -0.035533
C41   C     C_3   0.859450 0.451589 0.842906 -0.061233
C42   C     C_3   0.829754 0.324949 0.347060 -0.021459
C43   C     C_3   0.161936 0.644385 0.677392 -0.041474
C44   C     C_3   0.109554 0.442813 0.967017 -0.059666
C45   C     C_R   0.323089 0.387308 0.039436 0.285392
C46   C     C_3   0.862290 0.574536 0.022172 -0.151040
C47   C     C_3   0.411082 0.283904 0.166651 -0.067373
C48   C     C_3   0.700845 0.406182 0.741581 -0.026806
C49   C     C_3   0.392685 0.981427 0.701910 -0.125869
C50   C     C_3   0.666169 0.025225 0.584917 -0.120959
C51   C     C_3   0.738811 0.759622 0.372206 -0.047869
C52   C     C_3   0.259755 0.234484 0.601921 -0.005798
C53   C     C_R   0.698243 0.429210 0.942554 0.303123
C54   C     C_R   0.429144 0.907284 0.565003 0.227177
C55   C     C_R   0.584353 0.091112 0.499937 0.221676
C56   C     C_R   0.428656 0.814610 0.567203 0.200979
Cu1   Cu    Cu3+1 0.403570 0.500010 0.500000 1.076320
Cu2   Cu    Cu3+1 0.596430 0.499990 0.500000 1.045545
H1    H     H_    0.181189 0.471378 0.144878 0.081047
H2    H     H_    0.846951 0.297980 0.405633 0.120008
H3    H     H_    0.899397 0.324313 0.286833 0.167223
H4    H     H_    0.207217 0.661251 0.722305 0.135874
H5    H     H_    0.119138 0.583212 0.702903 0.041741
H6    H     H_    0.107719 0.699541 0.684025 0.187704
H7    H     H_    0.652320 0.619773 0.611641 0.352108
H8    H     H_    0.349146 0.386480 0.380852 0.368546
H9    H     H_    0.939775 0.533691 0.660027 0.307955
H10   H     H_    0.009215 0.341558 0.478846 0.322678
H11   H     H_    0.405029 0.547057 0.176186 0.331184
H12   H     H_    0.184007 0.381791 0.218107 0.214220
H13   H     H_    0.527594 0.593645 0.767448 0.346796
H14   H     H_    0.841527 0.480209 0.182676 0.359702
H15   H     H_    0.220308 0.479931 0.749234 0.318047
H16   H     H_    0.094707 0.469800 0.907713 0.126898
H17   H     H_    0.132631 0.496904 0.006602 0.071944
H18   H     H_    0.037032 0.415970 0.011374 0.184892
H19   H     H_    0.853470 0.609767 0.088222 0.153887
H20   H     H_    0.814817 0.607165 0.987521 0.126417
H21   H     H_    0.942727 0.580762 0.979220 0.108089
H22   H     H_    0.495316 0.283024 0.136846 0.110812
H23   H     H_    0.089760 0.384721 0.163720 0.166526
H24   H     H_    0.377302 0.237814 0.127153 0.151164
H25   H     H_    0.391243 0.259570 0.236084 0.179508
H26   H     H_    0.654660 0.406201 0.695857 0.196378
H27   H     H_    0.770184 0.366828 0.705683 0.115328
H28   H     H_    0.722768 0.475261 0.752744 0.200104
H29   H     H_    0.447250 0.036503 0.682359 0.114026
H30   H     H_    0.427761 0.925014 0.724519 0.114485
H31   H     H_    0.327999 0.005934 0.760764 0.158629
H32   H     H_    0.613666 0.969701 0.609969 0.110640
H33   H     H_    0.644262 0.083829 0.632997 0.126753
H34   H     H_    0.826616 0.518543 0.843224 0.113327
H35   H     H_    0.742686 0.003691 0.583097 0.160323
H36   H     H_    0.310120 0.812342 0.677025 0.359676
H37   H     H_    0.725141 0.189258 0.505499 0.353782
H38   H     H_    0.734620 0.739738 0.441008 0.110775
H39   H     H_    0.772347 0.826481 0.359818 0.175200
H40   H     H_    0.790827 0.712488 0.322448 0.154383
H41   H     H_    0.299255 0.270484 0.644185 0.136614
H42   H     H_    0.236071 0.168105 0.628554 0.158044
H43   H     H_    0.190032 0.272522 0.607814 0.168266
H44   H     H_    0.612384 0.995037 0.338868 0.333839
H45   H     H_    0.884069 0.421611 0.773267 0.111926
H46   H     H_    0.346279 0.991665 0.453035 0.338402
H47   H     H_    0.929619 0.459730 0.860963 0.161175
H48   H     H_    0.054674 0.478648 0.335954 0.333201
H49   H     H_    0.001503 0.660899 0.512937 0.347643
H50   H     H_    0.774868 0.279721 0.330428 0.151173
N1    N     N_R   0.741310 0.499980 0.500000 -0.290568
N2    N     N_R   0.258690 0.500020 0.500000 -0.294596
O1    O     O_R   0.418570 0.628550 0.499990 -0.409273
O2    O     O_3   0.794326 0.392573 0.902401 -0.496293
O3    O     O_3   0.991509 0.446361 0.340038 -0.717052
O4    O     O_3   0.051156 0.658365 0.545773 -0.656557
O5    O     O_3   0.786660 0.410696 0.364646 -0.474991
O6    O     O_3   0.228487 0.635389 0.587046 -0.463297
O7    O     O_3   0.699529 0.591772 0.637088 -0.639925
O8    O     O_3   0.282378 0.361834 0.413363 -0.571153
O9    O     O_3   0.880611 0.564792 0.653523 -0.663092
O10   O     O_3   0.082893 0.345423 0.445993 -0.619125
O11   O     O_3   0.432072 0.523114 0.221711 -0.635883
O12   O     O_R   0.581430 0.371450 0.500010 -0.432934
O13   O     O_3   0.546576 0.545064 0.799273 -0.678724
O14   O     O_3   0.773247 0.499976 0.222197 -0.642772
O15   O     O_3   0.238350 0.421207 0.764924 -0.689789
O16   O     O_3   0.181889 0.373566 0.940158 -0.474026
O17   O     O_3   0.839180 0.483962 0.032751 -0.565913
O18   O     O_3   0.371479 0.370083 0.172439 -0.531081
O19   O     O_3   0.645672 0.364060 0.821039 -0.550517
O20   O     O_3   0.355634 0.956723 0.630627 -0.544002
O21   O     O_3   0.670743 0.044327 0.496275 -0.553493
O22   O     O_3   0.359935 0.770234 0.636088 -0.680627
O23   O     O_R   0.581440 0.628540 0.499990 -0.550221
O24   O     O_3   0.668742 0.230260 0.509800 -0.694655
O25   O     O_3   0.643138 0.755964 0.359624 -0.522057
O26   O     O_3   0.320683 0.228095 0.509944 -0.463120
O27   O     O_3   0.634975 0.934412 0.344018 -0.639293
O28   O     O_3   0.328207 0.052247 0.479390 -0.611663
O29   O     O_R   0.418560 0.371460 0.500010 -0.481766
O30   O     O_R   0.372890 0.500010 0.629830 -0.479955
O31   O     O_R   0.627110 0.499990 0.370170 -0.402944
O32   O     O_R   0.535760 0.500000 0.629840 -0.503176
O33   O     O_R   0.464240 0.500000 0.370160 -0.490437
O34   O     O_3   0.231582 0.346040 0.080853 -0.511967

loop_
_geom_bond_atom_site_label_1
_geom_bond_atom_site_label_2
_ccdc_geom_bond_type
C25   C31   A    
C14   N1    A    
C26   C32   A    
C23   C45   A    
C29   O15   S    
C27   C29   A    
Cu2   N1    S    
C49   H29   S    
C16   O32   A    
C15   N2    A    
C18   N1    A    
C43   H5    S    
C47   O18   S    
Cu1   O1    S    
C44   O16   S    
C2    O24   S    
C40   H12   S    
C5    O25   S    
C17   C26   S    
H13   O13   S    
C19   C21   A    
C21   O10   S    
C2    C55   A    
C46   H21   S    
C27   O16   S    
H15   O15   S    
C14   O5    S    
C33   C36   A    
Cu1   O29   S    
C17   O31   A    
C47   H24   S    
C44   H18   S    
C6    O26   S    
C51   O25   S    
C50   H32   S    
C19   O8    S    
C41   O2    S    
C45   O34   S    
C31   C33   A    
C47   H25   S    
C4    C12   S    
C9    C10   S    
C18   C20   A    
C13   O4    S    
C28   O17   S    
C51   H38   S    
C37   C53   A    
C51   H40   S    
C40   H1    S    
H14   O14   S    
C49   H30   S    
C16   O30   A    
C47   H22   S    
C1    O23   A    
C32   O11   S    
C43   H6    S    
C5    C7    A    
C51   H39   S    
Cu2   O23   S    
C25   C29   A    
C54   O20   S    
C54   C56   A    
C52   H43   S    
Cu2   O12   S    
Cu1   O33   S    
H48   O3    S    
C32   C35   A    
C46   O17   S    
C34   O19   S    
C4    C6    A    
C42   H2    S    
C46   H20   S    
C8    O28   S    
C6    C8    A    
C52   H42   S    
H37   O24   S    
H36   O22   S    
C41   H45   S    
C13   C24   A    
C1    C3    S    
H44   O27   S    
C44   H17   S    
C2    C4    A    
H49   O4    S    
C43   O6    S    
C3    C56   A    
Cu2   O32   S    
Cu1   N2    S    
C18   O7    S    
H11   O11   S    
C12   O29   A    
C36   C45   A    
C44   H16   S    
C10   C55   A    
C42   H3    S    
C56   O22   S    
C41   H47   S    
C53   O2    S    
C30   O14   S    
C26   C30   A    
C55   O21   S    
C13   C15   A    
C52   O26   S    
C22   C24   S    
C48   O19   S    
C7    O27   S    
C19   N2    A    
C16   C25   S    
C7    C9    A    
C49   H31   S    
C11   C22   A    
C35   C37   A    
C34   C38   A    
C40   H23   S    
C20   C22   A    
C3    C5    A    
C46   H19   S    
C50   H35   S    
C27   C36   A    
C49   O20   S    
C15   O6    S    
C52   H41   S    
C33   C38   A    
C17   O33   A    
C40   O34   S    
C31   O13   S    
C1    O1    A    
Cu2   O31   S    
Cu1   Cu2   S    
C38   C39   A    
H9    O9    S    
C28   C37   A    
C23   C39   A    
C35   C39   A    
C28   C30   A    
C11   C14   A    
H46   O28   S    
C48   H28   S    
C11   O3    S    
C50   O21   S    
C48   H26   S    
C42   O5    S    
C41   H34   S    
C12   O12   A    
Cu1   O30   S    
C34   C53   A    
C8    C10   A    
H8    O8    S    
C21   C24   A    
H7    O7    S    
C48   H27   S    
C9    C54   A    
C42   H50   S    
C50   H33   S    
C20   O9    S    
H10   O10   S    
C43   H4    S    
C23   O18   S    
