data_mof_unit_47377.cif
_audit_creation_date              2012-12-10T17:16:36-0500
_audit_creation_method            fapswitch 2.2
_symmetry_space_group_name_H-M    P1
_symmetry_Int_Tables_number       1
_space_group_crystal_system       triclinic
_cell_length_a                    10.133893
_cell_length_b                    10.528773
_cell_length_c                    10.826242
_cell_angle_alpha                 88.93715
_cell_angle_beta                  94.275398
_cell_angle_gamma                 83.40445
_cell_volume                      1143.86565094

loop_
_atom_site_label
_atom_site_type_symbol
_atom_type_description
_atom_site_fract_x
_atom_site_fract_y
_atom_site_fract_z
_atom_type_partial_charge
C1    C     C_R   0.444848 0.511614 0.267680 0.945798
C2    C     C_R   0.555443 0.495197 0.732209 0.958801
C3    C     C_2   0.414361 0.529822 0.136224 -0.267492
C4    C     C_2   0.587091 0.503813 0.863291 -0.293279
C5    C     C_2   0.514423 0.539541 0.065249 -0.109250
C6    C     C_2   0.489148 0.543288 0.933558 -0.134692
C7    C     C_2   0.071023 0.495552 0.486355 0.158113
C8    C     C_2   0.929076 0.503961 0.514029 0.155978
C9    C     C_R   0.500141 0.259463 0.516934 0.925214
C10   C     C_R   0.499821 0.740489 0.482904 0.913958
C11   C     C_R   0.729883 0.079077 0.622681 0.612800
C12   C     C_R   0.270228 0.920691 0.376337 0.612109
C13   C     C_R   0.852538 0.004827 0.619178 -0.238257
C14   C     C_R   0.147594 0.995048 0.379436 -0.236314
C15   C     C_R   0.865958 0.904076 0.537837 0.550320
C16   C     C_R   0.133997 0.095898 0.460646 0.548941
C17   C     C_R   0.754053 0.869129 0.469219 0.307226
C18   C     C_R   0.245753 0.130806 0.529547 0.304432
C19   C     C_R   0.625277 0.928298 0.491760 -0.189751
C20   C     C_R   0.374620 0.071608 0.507316 -0.190662
C21   C     C_R   0.616309 0.044146 0.553590 -0.135849
C22   C     C_R   0.383658 0.955696 0.445578 -0.134178
C23   C     C_R   0.505296 0.876537 0.457093 0.010795
C24   C     C_R   0.494621 0.123315 0.542246 0.008504
H1    H     H_    0.939004 0.030414 0.673737 0.244858
H2    H     H_    0.061247 0.969447 0.324707 0.244967
H3    H     H_    0.387228 0.569754 0.894880 0.229734
H4    H     H_    0.617290 0.535219 0.103612 0.227207
H5    H     H_    0.688676 0.477025 0.902495 0.193213
H6    H     H_    0.311805 0.533809 0.097343 0.186528
H7    H     H_    0.894228 0.558426 0.591511 0.144302
H8    H     H_    0.105982 0.440558 0.409237 0.143862
N1    N     N_2   0.157300 0.551390 0.551120 0.069498
N2    N     N_2   0.842700 0.448610 0.448880 0.068826
O1    O     O_R   0.568940 0.489660 0.307530 -0.576939
O2    O     O_R   0.431060 0.510340 0.692470 -0.574782
O3    O     O_R   0.348880 0.522640 0.340350 -0.602287
O4    O     O_R   0.651120 0.477360 0.659650 -0.602377
O5    O     O_R   0.610030 0.300280 0.483580 -0.552315
O6    O     O_R   0.389970 0.699720 0.516420 -0.556246
O7    O     O_R   0.389970 0.333270 0.516400 -0.618968
O8    O     O_R   0.610030 0.666730 0.483600 -0.622453
Zn1   Zn    Zn3+2 0.646940 0.477980 0.478080 1.117218
Zn2   Zn    Zn3+2 0.353060 0.522020 0.521920 1.117518
F1    F     F_    0.011536 0.157694 0.474788 -0.614577
F2    F     F_    0.988364 0.842339 0.523368 -0.614583
F3    F     F_    0.720854 0.181226 0.697642 -0.629649
F4    F     F_    0.279415 0.818388 0.301578 -0.632462
Cl1   Cl    Cl    0.781531 0.775042 0.337911 -0.503582
Cl2   Cl    Cl    0.217841 0.224549 0.660985 -0.492967
Cl3   Cl    Cl    0.880879 0.379152 0.309787 -0.434448
Cl4   Cl    Cl    0.118885 0.622237 0.689519 -0.442364

loop_
_geom_bond_atom_site_label_1
_geom_bond_atom_site_label_2
_ccdc_geom_bond_type
C16   F1    S    
C3    H6    S    
C19   C23   A    
C9    C24   S    
C10   C23   S    
C10   O8    A    
C5    H4    S    
O1    Zn1   S    
C2    O4    A    
O6    Zn2   S    
C2    C4    S    
C4    H5    S    
C1    O3    A    
C12   F4    S    
O3    Zn2   S    
C11   F3    S    
O4    Zn1   S    
C8    N2    D    
C14   H2    S    
N1    Cl4   S    
C11   C13   A    
C13   H1    S    
N2    Cl3   S    
C16   C18   A    
C19   C21   A    
C12   C14   A    
C18   C20   A    
C13   C15   A    
C5    C6    S    
O7    Zn2   S    
C14   C16   A    
O2    Zn2   S    
O8    Zn1   S    
C7    N1    D    
C17   Cl1   S    
C12   C22   A    
C7    C8    S    
C18   Cl2   S    
C4    C6    D    
C21   C24   A    
C2    O2    A    
C1    C3    S    
C15   C17   A    
C1    O1    A    
C20   C24   A    
C22   C23   A    
C10   O6    A    
O5    Zn1   S    
C7    H8    S    
C15   F2    S    
C17   C19   A    
N2    Zn1   S    
N1    Zn2   S    
C9    O7    A    
C11   C21   A    
C9    O5    A    
C8    H7    S    
C6    H3    S    
C20   C22   A    
C3    C5    D    
