data_mof_unit_66694.cif
_audit_creation_date              2013-03-05T15:59:19-0500
_audit_creation_method            fapswitch 2.2
_symmetry_space_group_name_H-M    P1
_symmetry_Int_Tables_number       1
_space_group_crystal_system       triclinic
_cell_length_a                    8.229776
_cell_length_b                    12.744488
_cell_length_c                    16.629529
_cell_angle_alpha                 109.465703
_cell_angle_beta                  98.069941
_cell_angle_gamma                 81.363353
_cell_volume                      1618.180147

loop_
_atom_site_label
_atom_site_type_symbol
_atom_site_description
_atom_site_fract_x
_atom_site_fract_y
_atom_site_fract_z
_atom_type_partial_charge
P1    P     P_3+3 0.593410 0.640600 0.698510 0.484673
O1    O     O_2   0.429050 0.611890 0.712090 -0.358398
O2    O     O_3   0.649820 0.584130 0.603850 -0.422081
O3    O     O_3   0.201480 0.401240 0.659120 -0.360990
O4    O     O_2   0.358435 0.509752 0.806382 -0.390912
O5    O     O_3   0.562049 0.786540 0.722349 -0.529445
O6    O     O_3   0.292529 0.308861 0.791747 -0.514263
H1    H     H_    0.085712 0.233179 0.725812 0.062937
C1    C     C_3   0.215773 0.142179 0.808830 0.388946
H2    H     H_    0.270515 0.081824 0.751529 0.019890
P2    P     P_3+3 0.154920 0.233850 0.431950 0.537011
P3    P     P_3+3 0.662139 0.198350 0.616784 0.519644
O7    O     O_2   0.337150 0.224350 0.458110 -0.278475
O8    O     O_3   0.611620 0.334620 0.615460 -0.383501
O9    O     O_2   0.516991 0.133272 0.564868 -0.354898
O10   O     O_3   0.172271 0.160579 0.322689 -0.572679
O11   O     O_3   0.656064 0.199886 0.722065 -0.476436
C2    C     C_3   0.699525 0.304018 0.777832 0.413749
H3    H     H_    0.605733 0.372599 0.769755 0.155352
H4    H     H_    0.820783 0.320017 0.765555 -0.023456
C3    C     C_3   0.708103 0.306499 0.870254 -0.656288
H5    H     H_    0.583795 0.301535 0.886302 0.288000
H6    H     H_    0.793861 0.235471 0.880750 0.296583
C4    C     C_3   0.679058 0.138484 0.280522 0.653581
H7    H     H_    0.802787 0.161327 0.289817 -0.160653
C5    C     C_3   0.665558 0.027664 0.207353 -0.027797
H8    H     H_    0.728062 0.028604 0.152755 0.126755
H9    H     H_    0.726127 0.957056 0.229072 0.097712
Ba1   Ba    Ba6+2 0.363950 0.459210 0.542370 1.641330
C6    C     C_3   0.505285 0.817459 0.648945 0.326378
H10   H     H_    0.369093 0.829927 0.643881 0.085787
H11   H     H_    0.546920 0.756739 0.588394 0.126364
C7    C     C_3   0.569232 0.927371 0.659442 -0.778206
H12   H     H_    0.520159 0.994390 0.714890 0.279332
H13   H     H_    0.531482 0.951170 0.600722 0.221680
H14   H     H_    0.705679 0.918564 0.671116 0.275716
C8    C     C_3   0.082276 0.215694 0.268606 0.825941
H15   H     H_    0.972925 0.263343 0.296930 0.022960
C9    C     C_3   0.034450 0.128602 0.182491 -0.841798
H16   H     H_    0.141742 0.094183 0.144446 0.323735
H17   H     H_    0.935494 0.166667 0.144794 0.257346
H18   H     H_    0.991608 0.057080 0.193609 0.185345
P4    P     P_3+3 0.596300 0.359310 0.301480 0.605576
O12   O     O_2   0.760640 0.388070 0.287860 -0.431037
O13   O     O_3   0.539890 0.415780 0.396140 -0.328787
O14   O     O_3   0.988230 0.598670 0.340870 -0.345029
O15   O     O_3   0.559443 0.217864 0.260067 -0.496899
P5    P     P_3+3 0.537714 0.804655 0.385495 0.491094
O16   O     O_3   0.122980 0.641570 0.544110 -0.387836
O17   O     O_3   0.578090 0.665290 0.384530 -0.411995
O18   O     O_2   0.685967 0.865736 0.437905 -0.358615
O19   O     O_3   0.546415 0.808093 0.281447 -0.479598
Ba2   Ba    Ba6+2 0.825880 0.540700 0.457630 1.654576
P6    P     P_3+3 0.218162 0.433667 0.769505 0.463663
C10   C     C_3   0.157044 0.252511 0.790049 0.076880
H19   H     H_    0.075941 0.304231 0.840038 0.074074
O20   O     O_3   0.066730 0.358340 0.455880 -0.381684
C11   C     C_3   0.021223 0.761871 0.717997 0.369337
H20   H     H_    0.898302 0.733026 0.691470 0.092154
H21   H     H_    0.117781 0.689035 0.705010 0.120559
C12   C     C_3   0.021324 0.814744 0.814552 -0.768498
H22   H     H_    0.919144 0.883709 0.829722 0.297997
H23   H     H_    0.003995 0.751492 0.844009 0.183314
H24   H     H_    0.141108 0.848139 0.842341 0.280174
P7    P     P_3+3 0.042019 0.783205 0.571464 0.430011
O21   O     O_2   0.852540 0.775600 0.541830 -0.382156
O22   O     O_3   0.054555 0.841740 0.683080 -0.539931
H25   H     H_    0.752709 0.385946 0.913677 0.206195
C13   C     C_3   0.473155 0.715993 0.223007 0.309320
H26   H     H_    0.552528 0.637118 0.222116 0.118912
H27   H     H_    0.349936 0.713547 0.241394 -0.037722
C14   C     C_3   0.447856 0.725176 0.132435 -0.074713
H28   H     H_    0.359025 0.667468 0.091725 0.050832
H29   H     H_    0.392195 0.809982 0.133708 0.194229
P8    P     P_3+3 0.981074 0.573774 0.232383 0.551668
C15   C     C_3   0.984471 0.785479 0.259781 0.452887
H30   H     H_    0.091603 0.763351 0.302174 0.025024
O23   O     O_2   0.857109 0.486617 0.190198 -0.311911
O24   O     O_3   0.887044 0.697855 0.215251 -0.470711
H31   H     H_    0.906559 0.854823 0.302172 0.119088
H32   H     H_    0.116469 0.756838 0.149895 0.246650
C16   C     C_3   0.047449 0.827219 0.195598 -1.043707
H33   H     H_    0.129400 0.893395 0.229722 0.264774
H34   H     H_    0.943895 0.860533 0.157676 0.290997
C17   C     C_2   0.318586 0.512332 0.253834 -0.410985
C18   C     C_R   0.896052 0.532930 0.750201 -0.521908
C19   C     C_2   0.494053 0.396873 0.142750 0.272258
C20   C     C_2   0.466523 0.429776 0.226856 0.228632
C21   C     C_2   0.189179 0.523151 0.195228 0.102880
C22   C     C_3   0.207765 0.468788 0.100120 0.147923
C23   C     C_3   0.390195 0.454176 0.084378 -0.028298
C24   C     C_2   0.096414 0.527671 0.043526 -0.230554
C25   C     C_2   0.119315 0.506098 0.960852 -0.125955
C26   C     C_R   0.843795 0.603367 0.922731 0.246616
C27   C     C_R   0.994684 0.541344 0.897591 -0.123919
C28   C     C_R   0.721728 0.630979 0.863228 -0.265734
C29   C     C_R   0.746872 0.595121 0.776318 0.260945
C30   C     C_R   0.021117 0.507741 0.810050 0.175218
H35   H     H_    0.608153 0.680569 0.885131 0.203916
H36   H     H_    0.305263 0.550675 0.321727 0.195260
H37   H     H_    0.916918 0.507414 0.683272 0.179350
H38   H     H_    0.983891 0.576987 0.066803 0.229997
H39   H     H_    0.230837 0.454385 0.938230 0.202314
C31   C     C_R   0.263325 0.814091 0.470991 -0.523402
C32   C     C_R   0.940594 0.199623 0.535489 -0.415271
C33   C     C_R   0.923318 0.029178 0.565255 -0.141738
C34   C     C_R   0.860083 0.138272 0.570565 0.236949
C35   C     C_R   0.077562 0.150185 0.489028 0.229988
C36   C     C_R   0.140976 0.036877 0.481637 -0.060846
C37   C     C_R   0.063530 0.976848 0.521852 -0.056911
C38   C     C_R   0.125983 0.864853 0.515937 0.245138
C39   C     C_R   0.343505 0.872531 0.433721 0.207010
C40   C     C_R   0.279720 0.981757 0.436518 -0.177432
H40   H     H_    0.858436 0.985514 0.593797 0.188484
H41   H     H_    0.341693 0.022339 0.404233 0.232949
H42   H     H_    0.312191 0.729258 0.467851 0.164262
H43   H     H_    0.889525 0.284430 0.539717 0.167121
N1    N     N_R   0.493414 0.009743 0.177644 0.297764
O25   O     O_R   0.395264 0.001975 0.229684 -0.377794
O26   O     O_R   0.438078 0.999354 0.098449 -0.294551
N2    N     N_R   0.179636 0.294122 0.258046 0.229344
O27   O     O_R   0.216907 0.377988 0.324787 -0.394037
O28   O     O_R   0.218760 0.286038 0.182926 -0.403151
N3    N     N_R   0.074961 0.095508 0.823859 0.208560
O29   O     O_R   0.066698 0.080889 0.896958 -0.322314
O30   O     O_R   0.955698 0.067980 0.763396 -0.431335
N4    N     N_R   0.339980 0.159486 0.882981 0.267651
O31   O     O_R   0.483855 0.100628 0.876321 -0.328226
O32   O     O_R   0.304846 0.229967 0.957033 -0.331071
N5    N     N_R   0.601931 0.696583 0.092699 0.283524
O33   O     O_R   0.663566 0.592297 0.065081 -0.398704
O34   O     O_R   0.664331 0.771805 0.073180 -0.384784
N6    N     N_R   0.615107 0.306136 0.106091 0.263840
O35   O     O_R   0.592025 0.204692 0.098995 -0.305818
O36   O     O_R   0.715956 0.319882 0.057812 -0.340544
Br1   Br    Br    0.642336 0.115901 0.384323 -0.478235

loop_
_geom_bond_atom_site_label_1
_geom_bond_atom_site_label_2
_geom_bond_distance
_ccdc_geom_bond_type
C10   H19   1.108825 S    
C19   C23   1.502734 S    
C12   H24   1.110635 S    
C2    C3    1.518533 S    
O2    Ba2   2.858255 S    
C19   N6    1.433892 S    
C15   O24   1.410464 S    
O6    C10   1.406378 S    
C19   C20   1.361231 D    
C25   H39   1.080862 S    
H32   C16   1.103932 S    
C27   C30   1.412585 A    
C9    H17   1.110060 S    
Ba1   O16   2.814617 S    
C32   C34   1.399514 A    
C5    H8    1.108750 S    
C1    N4    1.465124 S    
O16   P7    1.756631 S    
C33   H40   1.075405 S    
O1    Ba1   2.875300 S    
P4    C20   1.889378 S    
O7    Ba1   2.878770 S    
C4    C5    1.533426 S    
P1    O1    1.517895 D    
C13   H26   1.110389 S    
C6    H10   1.103415 S    
C33   C34   1.387609 A    
C11   H21   1.110314 S    
C28   H35   1.081897 S    
C7    H14   1.107573 S    
C35   C36   1.430431 A    
C13   H27   1.107111 S    
C2    H3    1.106484 S    
C12   H23   1.107900 S    
C18   C29   1.397197 A    
N1    O25   1.299435 A    
C39   C40   1.399891 A    
O19   C13   1.404803 S    
C37   C38   1.418230 A    
O12   Ba2   2.875841 S    
P4    Ba2   3.404442 S    
P5    O18   1.545545 D    
P7    C38   1.856992 S    
P7    O22   1.748952 S    
P3    O11   1.752015 S    
C1    C10   1.534459 S    
P4    O15   1.758975 S    
C1    H2    1.109320 S    
O3    Ba1   2.843337 S    
C24   H38   1.079857 S    
O10   C8    1.388729 S    
C4    Br1   1.912442 S    
C11   C12   1.520168 S    
P5    O17   1.752308 S    
O13   Ba2   2.912810 S    
C25   C27   1.494695 S    
C31   H42   1.082142 S    
C3    H5    1.108674 S    
C32   H43   1.082125 S    
C26   C27   1.404402 A    
H1    C10   1.112827 S    
O14   P8    1.718478 S    
C7    H12   1.104033 S    
C9    H18   1.102953 S    
C32   C35   1.404036 A    
O17   Ba2   2.788456 S    
P1    O5    1.753929 S    
C15   H31   1.109315 S    
O4    P6    1.545989 D    
C15   H30   1.112291 S    
C14   H29   1.103264 S    
P1    C29   1.851040 S    
C9    H16   1.108111 S    
C31   C39   1.394396 A    
Ba2   O20   2.814013 S    
C11   H20   1.109688 S    
Ba1   O13   2.857809 S    
P1    O2    1.600373 S    
C13   C14   1.532224 S    
N5    O34   1.300062 A    
P4    O12   1.518247 D    
N4    O32   1.300640 A    
C8    H15   1.079232 S    
P3    C34   1.848099 S    
P2    O10   1.759466 S    
C22   C24   1.520099 S    
P3    O9    1.546264 D    
C28   C29   1.398523 A    
P1    Ba1   3.403822 S    
O11   C2    1.406534 S    
C4    H7    1.077196 S    
C26   C28   1.399630 A    
Ba2   O21   2.878906 S    
P4    O13   1.600373 S    
N2    O27   1.296361 A    
C8    N2    1.438372 S    
O5    C6    1.403112 S    
P3    O8    1.730750 S    
P7    O21   1.575335 D    
C16   H34   1.105944 S    
C3    H6    1.107630 S    
C3    H25   1.109637 S    
N6    O35   1.298952 A    
O8    Ba1   2.787790 S    
C15   C16   1.518998 S    
N4    O31   1.300629 A    
N3    O30   1.299478 A    
C33   C37   1.406821 A    
C17   C20   1.498192 S    
C17   C21   1.362749 D    
C6    C7    1.517316 S    
O3    P6    1.732037 S    
C4    O15   1.394443 S    
C5    N1    1.459034 S    
Ba1   O20   2.903236 S    
C14   H28   1.106500 S    
C31   C38   1.396442 A    
C14   N5    1.453697 S    
C36   C40   1.417241 A    
C5    H9    1.104548 S    
N5    O33   1.300294 A    
C8    C9    1.533376 S    
C17   H36   1.084649 S    
C36   C37   1.430336 A    
C6    H11   1.108185 S    
P2    O7    1.500147 D    
O2    Ba1   2.911972 S    
C22   C23   1.533357 S    
Ba1   Ba2   4.602354 S    
O16   Ba2   2.902370 S    
O14   Ba2   2.842880 S    
C24   C25   1.344084 D    
C7    H13   1.107230 S    
C2    H4    1.106880 S    
C1    N3    1.465122 S    
C12   H22   1.110452 S    
C18   C30   1.406790 A    
P8    O23   1.544932 D    
N1    O26   1.301103 A    
N2    O28   1.300775 A    
P8    C21   1.852232 S    
C11   O22   1.403931 S    
P5    O19   1.757034 S    
P2    Ba1   3.414982 S    
C16   H33   1.110217 S    
P2    C35   1.868487 S    
N6    O36   1.299460 A    
P5    C39   1.851560 S    
P6    C30   1.843495 S    
O6    P6    1.754293 S    
C21   C22   1.520081 S    
P2    O20   1.586431 S    
C18   H37   1.081509 S    
P8    O24   1.746850 S    
N3    O29   1.301923 A    
C40   H41   1.075646 S    
