data_mof_unit_42877.cif
_audit_creation_date              2012-10-26T19:59:41-0400
_audit_creation_method            fapswitch 2.2
_symmetry_space_group_name_H-M    P1
_symmetry_Int_Tables_number       1
_space_group_crystal_system       triclinic
_cell_length_a                    10.810745
_cell_length_b                    8.703179
_cell_length_c                    7.539557
_cell_angle_alpha                 103.691694
_cell_angle_beta                  93.32568
_cell_angle_gamma                 94.906966
_cell_volume                      684.448798736

loop_
_atom_site_label
_atom_site_type_symbol
_atom_type_description
_atom_site_fract_x
_atom_site_fract_y
_atom_site_fract_z
_atom_type_partial_charge
C1    C     C_R   0.495474 0.199696 0.452807 0.527544
C2    C     C_R   0.504247 0.800313 0.547327 0.537700
C3    C     C_R   0.736850 0.494147 0.495569 0.544259
C4    C     C_R   0.118544 0.277908 0.681985 -0.106415
C5    C     C_R   0.048143 0.173298 0.760114 -0.125036
C6    C     C_R   0.918997 0.167721 0.748051 -0.135117
C7    C     C_R   0.859457 0.267537 0.658907 -0.120443
C8    C     C_R   0.928755 0.378075 0.582681 -0.011751
C9    C     C_3   0.661395 0.794176 0.014066 -0.246450
C10   C     C_3   0.895676 0.552855 0.070273 -0.257366
C11   C     C_R   0.060398 0.382221 0.593385 0.010410
C12   C     C_R   0.129130 0.485975 0.507927 -0.024917
C13   C     C_R   0.069092 0.576269 0.407566 -0.141413
C14   C     C_R   0.940681 0.566574 0.387403 0.097245
C15   C     C_R   0.869795 0.477614 0.486410 0.020000
C16   C     C_2   0.492336 0.030894 0.427706 -0.161358
C17   C     C_2   0.507171 0.969209 0.572955 -0.165526
C18   C     C_R   0.262910 0.492943 0.502524 0.539121
Cu1   Cu    Cu3+1 0.513920 0.517380 0.684380 0.939882
Cu2   Cu    Cu3+1 0.486080 0.482620 0.315620 0.952359
H1    H     H_    0.122650 0.650632 0.336380 0.133308
H2    H     H_    0.732587 0.871118 0.116586 0.083246
H3    H     H_    0.577363 0.859022 0.014610 0.154431
H4    H     H_    0.703313 0.774677 0.881258 0.181698
H5    H     H_    0.916984 0.757929 0.279198 0.239122
H6    H     H_    0.862837 0.620954 0.973176 0.161296
H7    H     H_    0.838779 0.435930 0.041135 0.192360
H8    H     H_    0.994210 0.534053 0.045100 0.139336
H9    H     H_    0.218125 0.272976 0.688682 0.124190
H10   H     H_    0.093931 0.094102 0.827379 0.113622
H11   H     H_    0.864497 0.084039 0.805690 0.105912
H12   H     H_    0.758914 0.253430 0.646418 0.148248
H13   H     H_    0.476961 0.957021 0.288958 0.130147
H14   H     H_    0.521839 0.043000 0.712079 0.123926
H15   H     H_    0.397071 0.381109 0.951509 0.209242
H16   H     H_    0.637390 0.664646 0.200383 0.323647
N1    N     N_2   0.465100 0.456430 0.038520 -0.226751
N2    N     N_2   0.534900 0.543570 0.961480 -0.036415
N3    N     N_2   0.632568 0.645542 0.063847 -0.369168
N4    N     N_2   0.884787 0.639388 0.257642 -0.515928
O1    O     O_R   0.509050 0.286130 0.619770 -0.522641
O2    O     O_R   0.485540 0.256780 0.308360 -0.502992
O3    O     O_R   0.331410 0.514680 0.655740 -0.512558
O4    O     O_R   0.307900 0.485330 0.344330 -0.502504
O5    O     O_R   0.514460 0.743220 0.691640 -0.513272
O6    O     O_R   0.490950 0.713870 0.380230 -0.520680
O7    O     O_R   0.692100 0.514670 0.655670 -0.521745
O8    O     O_R   0.668590 0.485320 0.344260 -0.491803

loop_
_geom_bond_atom_site_label_1
_geom_bond_atom_site_label_2
_ccdc_geom_bond_type
C10   H7    S    
Cu2   O2    S    
C11   C12   A    
Cu1   O5    S    
C9    H4    S    
C6    C7    A    
Cu1   N2    S    
C18   O4    A    
C16   H13   S    
C3    O8    A    
C4    H9    S    
C10   H6    S    
C12   C18   S    
C6    H11   S    
C13   H1    S    
C7    C8    A    
C2    O5    A    
C1    C16   S    
C13   C14   A    
C2    O6    A    
C2    C17   S    
Cu2   N1    S    
Cu2   O8    S    
C8    C11   A    
C3    O7    A    
H15   N1    S    
N1    N2    D    
Cu1   O3    S    
C5    H10   S    
C8    C15   A    
H5    N4    S    
C5    C6    A    
Cu1   O7    S    
C9    H2    S    
C16   C17   D    
C17   H14   S    
C14   N4    S    
Cu1   O1    S    
C1    O2    A    
C9    N3    S    
C3    C15   S    
C12   C13   A    
C10   N4    S    
C10   H8    S    
C1    O1    A    
C14   C15   A    
C9    H3    S    
C7    H12   S    
Cu2   O4    S    
C18   O3    A    
H16   N3    S    
Cu2   O6    S    
Cu1   Cu2   S    
C4    C5    A    
C4    C11   A    
N2    N3    S    
