data_mof_unit_54420.cif
_audit_creation_date              2012-12-10T17:37:51-0500
_audit_creation_method            fapswitch 2.2
_symmetry_space_group_name_H-M    P1
_symmetry_Int_Tables_number       1
_space_group_crystal_system       triclinic
_cell_length_a                    12.318447
_cell_length_b                    13.08702
_cell_length_c                    17.34985
_cell_angle_alpha                 105.062143
_cell_angle_beta                  74.890159
_cell_angle_gamma                 116.460717
_cell_volume                      2383.76346495

loop_
_atom_site_label
_atom_site_type_symbol
_atom_type_description
_atom_site_fract_x
_atom_site_fract_y
_atom_site_fract_z
_atom_type_partial_charge
C1    C     C_R   0.144481 0.714989 0.507594 0.828066
C2    C     C_R   0.887372 0.524437 0.796020 -0.180166
C3    C     C_R   0.955868 0.546296 0.161404 -0.150232
C4    C     C_R   0.945197 0.538651 0.241429 -0.201257
C5    C     C_R   0.115702 0.479880 0.204387 -0.200195
C6    C     C_R   0.126108 0.487292 0.124074 -0.164597
C7    C     C_R   0.044791 0.518270 0.102020 0.192017
C8    C     C_2   0.954557 0.492725 0.984735 -0.221429
C9    C     C_2   0.054013 0.519903 0.016552 -0.225776
C10   C     C_R   0.024307 0.504481 0.263409 -0.024414
C11   C     C_R   0.734655 0.970500 0.393983 -0.183216
C12   C     C_R   0.986970 0.502287 0.651988 0.800034
C13   C     C_R   0.775134 0.162953 0.470913 -0.053401
C14   C     C_R   0.181243 0.927520 0.550844 0.228149
C15   C     C_R   0.262514 0.044515 0.557852 0.303405
C16   C     C_R   0.387338 0.075596 0.531003 -0.293170
C17   C     C_R   0.435201 0.991941 0.492384 0.032106
C18   C     C_R   0.352238 0.875744 0.472460 0.041005
C19   C     C_R   0.563578 0.021729 0.470055 0.108829
C20   C     C_R   0.607610 0.940262 0.418053 0.160951
C21   C     C_R   0.524185 0.830996 0.389084 -0.241508
C22   C     C_R   0.398530 0.799555 0.415030 -0.158427
C23   C     C_R   0.856109 0.285707 0.487812 0.807491
C24   C     C_R   0.649552 0.130358 0.499036 -0.246169
C25   C     C_R   0.818195 0.082043 0.419472 -0.166515
C26   C     C_R   0.225715 0.840488 0.508962 -0.231357
C27   C     C_R   0.635998 0.667403 0.634301 -0.272920
C28   C     C_R   0.250858 0.352285 0.389273 0.092427
C29   C     C_R   0.349881 0.320140 0.365255 -0.239834
C30   C     C_R   0.449456 0.375919 0.406727 -0.181123
C31   C     C_R   0.451136 0.465002 0.473362 0.008687
C32   C     C_R   0.346945 0.494520 0.496076 0.301962
C33   C     C_R   0.551103 0.524932 0.518793 -0.030969
C34   C     C_R   0.013559 0.498476 0.348071 0.777125
C35   C     C_R   0.542722 0.610274 0.586899 0.167229
C36   C     C_R   0.441026 0.637887 0.607811 -0.268691
C37   C     C_R   0.346020 0.582034 0.563191 -0.178941
C38   C     C_R   0.659692 0.504336 0.500206 0.016861
C39   C     C_R   0.738410 0.641096 0.613935 0.122973
C40   C     C_R   0.978395 0.499344 0.736945 -0.038473
C41   C     C_R   0.060071 0.468767 0.759328 -0.179028
C42   C     C_R   0.051917 0.464703 0.839752 -0.131732
C43   C     C_R   0.962913 0.492707 0.899089 0.181815
C44   C     C_R   0.879436 0.520540 0.876696 -0.164045
Cu1   Cu    Cu3+1 0.900140 0.524980 0.518800 0.965291
Cu2   Cu    Cu3+1 0.099860 0.475020 0.481200 0.941162
H1    H     H_    0.129883 0.447175 0.714754 0.183265
H2    H     H_    0.195995 0.466656 0.078879 0.127759
H3    H     H_    0.915531 0.106015 0.396937 0.155059
H4    H     H_    0.556070 0.769399 0.346243 0.141224
H5    H     H_    0.769099 0.908997 0.353638 0.137417
H6    H     H_    0.621002 0.192075 0.543707 0.157177
H7    H     H_    0.444508 0.167131 0.538149 0.174248
H8    H     H_    0.338911 0.716438 0.386556 0.173474
H9    H     H_    0.809109 0.682914 0.651464 0.158446
H10   H     H_    0.875463 0.560302 0.286034 0.155960
H11   H     H_    0.434616 0.703775 0.659521 0.156492
H12   H     H_    0.629284 0.731485 0.687205 0.149792
H13   H     H_    0.674477 0.442066 0.448923 0.121797
H14   H     H_    0.174055 0.308370 0.356713 0.119066
H15   H     H_    0.523203 0.347055 0.385823 0.133008
H16   H     H_    0.349380 0.251575 0.314323 0.143586
H17   H     H_    0.273104 0.610304 0.584174 0.204878
H18   H     H_    0.178702 0.454531 0.220087 0.149792
H19   H     H_    0.144093 0.540269 0.978861 0.146190
H20   H     H_    0.809460 0.541089 0.921854 0.126298
H21   H     H_    0.895191 0.575124 0.146475 0.124521
H22   H     H_    0.822668 0.547357 0.780065 0.154323
H23   H     H_    0.864509 0.472214 0.022505 0.146245
H24   H     H_    0.114323 0.438234 0.854944 0.138920
N1    N     N_R   0.749710 0.562810 0.547300 -0.184277
N2    N     N_R   0.249640 0.437820 0.453210 -0.205776
O1    O     O_R   0.025490 0.682370 0.523640 -0.527074
O2    O     O_R   0.194150 0.640180 0.491890 -0.615917
O3    O     O_R   0.905900 0.523560 0.631310 -0.589065
O4    O     O_R   0.074570 0.481370 0.599560 -0.596025
O5    O     O_R   0.805850 0.359820 0.508110 -0.590487
O6    O     O_R   0.974510 0.317630 0.476360 -0.572695
O7    O     O_R   0.925430 0.518630 0.400440 -0.589469
O8    O     O_R   0.094100 0.476440 0.368690 -0.605986
Br1   Br    Br    0.012338 0.894753 0.601103 -0.476313
Br2   Br    Br    0.208904 0.167882 0.606456 -0.475852

loop_
_geom_bond_atom_site_label_1
_geom_bond_atom_site_label_2
_ccdc_geom_bond_type
C24   H6    S    
Cu1   N1    S    
C41   C42   A    
C44   H20   S    
C35   C36   A    
C18   C26   A    
C8    C43   S    
Cu2   O4    S    
C22   H8    S    
Cu1   Cu2   S    
C8    H23   S    
C6    H2    S    
C1    O2    A    
C36   C37   A    
C3    C7    A    
C5    C6    A    
C11   C25   A    
C15   C16   A    
C42   H24   S    
C13   C23   S    
Cu1   O1    S    
C16   H7    S    
C17   C19   A    
C29   H16   S    
C39   H9    S    
C19   C20   A    
C2    C44   A    
C8    C9    D    
C31   C33   A    
Cu2   N2    S    
C34   O8    A    
C21   C22   A    
C4    H10   S    
C13   C25   A    
C28   N2    A    
C21   H4    S    
C37   H17   S    
C15   Br2   S    
C25   H3    S    
C28   H14   S    
C11   C20   A    
Cu1   O7    S    
C36   H11   S    
C27   C39   A    
Cu2   O6    S    
C16   C17   A    
C27   C35   A    
C23   O5    A    
C5    H18   S    
C12   C40   S    
C43   C44   A    
C29   C30   A    
C34   O7    A    
C31   C32   A    
C17   C18   A    
C41   H1    S    
C10   C34   S    
C32   C37   A    
C14   C26   A    
C40   C41   A    
C12   O4    A    
C1    C26   S    
C12   O3    A    
C42   C43   A    
C4    C10   A    
C3    C4    A    
Cu2   O2    S    
C7    C9    S    
C38   N1    A    
C28   C29   A    
C18   C22   A    
C3    H21   S    
C27   H12   S    
C6    C7    A    
C2    H22   S    
C33   C38   A    
Cu1   O3    S    
C1    O1    A    
C19   C24   A    
C5    C10   A    
Cu2   O8    S    
C30   C31   A    
C33   C35   A    
C23   O6    A    
C9    H19   S    
C11   H5    S    
C38   H13   S    
C2    C40   A    
C20   C21   A    
C13   C24   A    
C30   H15   S    
C39   N1    A    
C14   C15   A    
Cu1   O5    S    
C14   Br1   S    
C32   N2    A    
