data_mof_unit_22733.cif
_audit_creation_date              2013-03-05T15:53:32-0500
_audit_creation_method            fapswitch 2.2
_symmetry_space_group_name_H-M    P1
_symmetry_Int_Tables_number       1
_space_group_crystal_system       triclinic
_cell_length_a                    30.506529
_cell_length_b                    7.245803
_cell_length_c                    26.030791
_cell_angle_alpha                 90.352117
_cell_angle_beta                  112.051584
_cell_angle_gamma                 90.306473
_cell_volume                      5332.75149412

loop_
_atom_site_label
_atom_site_type_symbol
_atom_site_description
_atom_site_fract_x
_atom_site_fract_y
_atom_site_fract_z
_atom_type_partial_charge
O1    O     O_R   0.295360 0.592990 0.320420 -0.584992
O2    O     O_R   0.704640 0.407010 0.679580 -0.584205
O3    O     O_R   0.204640 0.092990 0.179580 -0.584640
O4    O     O_R   0.795360 0.907010 0.820420 -0.588393
O5    O     O_R   0.294060 0.265620 0.213230 -0.591854
O6    O     O_R   0.705940 0.734380 0.786770 -0.591103
O7    O     O_R   0.205940 0.765620 0.286770 -0.595019
O8    O     O_R   0.794060 0.234380 0.713230 -0.594344
C1    C     C_R   0.304149 0.432196 0.199607 0.915523
C2    C     C_R   0.695781 0.567765 0.800307 0.911448
C3    C     C_R   0.195800 0.932269 0.300509 0.921242
C4    C     C_R   0.804224 0.067729 0.699523 0.922898
O9    O     O_R   0.300850 0.263360 0.322080 -0.581668
O10   O     O_R   0.699150 0.736640 0.677920 -0.581104
O11   O     O_R   0.199150 0.763360 0.177920 -0.581870
O12   O     O_R   0.800850 0.236640 0.822080 -0.588515
O13   O     O_R   0.211480 0.091820 0.289210 -0.593424
O14   O     O_R   0.788520 0.908180 0.710790 -0.593012
O15   O     O_R   0.288520 0.591820 0.210790 -0.590063
O16   O     O_R   0.711480 0.408180 0.789210 -0.589749
C5    C     C_R   0.313155 0.432278 0.343167 0.939098
C6    C     C_R   0.686843 0.567721 0.656834 0.940854
C7    C     C_R   0.186760 0.930218 0.156664 0.942196
C8    C     C_R   0.813193 0.069930 0.843433 0.946479
O17   O     O_3   0.220670 0.426670 0.239090 -0.285613
O18   O     O_3   0.779330 0.573330 0.760910 -0.288753
O19   O     O_3   0.279330 0.926670 0.260910 -0.283345
O20   O     O_3   0.720670 0.073330 0.739090 -0.281390
V1    V     V_3+5 0.255440 0.152290 0.252020 1.159192
V2    V     V_3+5 0.744560 0.847710 0.747980 1.155937
V3    V     V_3+5 0.244560 0.652290 0.247980 1.158529
V4    V     V_3+5 0.755440 0.347710 0.752020 1.151481
C9    C     C_R   0.850206 0.074197 0.899941 -0.157886
C10   C     C_R   0.149713 0.928269 0.100288 -0.147887
C11   C     C_R   0.650143 0.560097 0.600582 -0.137288
C12   C     C_R   0.349854 0.439904 0.399421 -0.136510
C13   C     C_R   0.879788 0.231280 0.989300 0.545657
C14   C     C_R   0.122486 0.801996 0.006748 0.545191
C15   C     C_R   0.628077 0.605351 0.501887 0.549126
C16   C     C_R   0.371917 0.394659 0.498117 0.548876
C17   C     C_R   0.842914 0.188072 0.939394 -0.318587
C18   C     C_R   0.158423 0.832066 0.058566 -0.321261
C19   C     C_R   0.662349 0.604265 0.555659 -0.328726
C20   C     C_R   0.337647 0.395736 0.444344 -0.328981
C21   C     C_R   0.895144 0.997551 0.911490 -0.265512
C22   C     C_R   0.104116 0.995701 0.090017 -0.236648
C23   C     C_R   0.602843 0.520258 0.592079 -0.238189
C24   C     C_R   0.397153 0.479749 0.407926 -0.238363
C25   C     C_R   0.933787 0.037858 0.962285 0.056296
C26   C     C_R   0.066070 0.962512 0.038240 0.058079
C27   C     C_R   0.566539 0.527083 0.538211 0.061022
C28   C     C_R   0.433456 0.472932 0.461795 0.060985
C29   C     C_R   0.924856 0.153420 0.001577 -0.015714
C30   C     C_R   0.076010 0.860625 0.997089 0.004209
C31   C     C_R   0.580116 0.571171 0.493078 0.001596
C32   C     C_R   0.419878 0.428845 0.506928 0.001638
C33   C     C_R   0.981315 0.974907 0.974479 0.100759
C34   C     C_R   0.018433 0.023156 0.026314 0.102936
C35   C     C_R   0.517345 0.494053 0.527686 0.102916
C36   C     C_R   0.482651 0.505967 0.472321 0.102934
C37   C     C_R   0.006875 0.133010 0.064196 -0.215384
C38   C     C_R   0.993237 0.869493 0.935995 -0.228382
C39   C     C_R   0.498325 0.549971 0.429296 -0.216917
C40   C     C_R   0.501670 0.450054 0.570711 -0.216905
C41   C     C_R   0.961335 0.196421 0.052005 -0.171765
C42   C     C_R   0.039442 0.816107 0.946825 -0.164747
C43   C     C_R   0.545767 0.581271 0.439511 -0.171383
C44   C     C_R   0.454227 0.418753 0.560495 -0.171363
H1    H     H_    0.954990 0.283190 0.082518 0.184947
H2    H     H_    0.046339 0.737331 0.915183 0.181980
H3    H     H_    0.555448 0.614482 0.404605 0.180167
H4    H     H_    0.444546 0.385546 0.595401 0.180163
H5    H     H_    0.099099 0.063588 0.124299 0.121235
H6    H     H_    0.899135 0.915131 0.878988 0.127763
H7    H     H_    0.404300 0.510904 0.371422 0.112278
H8    H     H_    0.595697 0.489101 0.628584 0.112307
H9    H     H_    0.193205 0.775554 0.066706 0.143046
H10   H     H_    0.808737 0.251542 0.930292 0.148718
H11   H     H_    0.301279 0.361274 0.437667 0.136945
H12   H     H_    0.698716 0.638720 0.562334 0.137064
H13   H     H_    0.032624 0.177407 0.103525 0.140245
H14   H     H_    0.967664 0.827381 0.896299 0.139322
H15   H     H_    0.474745 0.561904 0.386700 0.137014
H16   H     H_    0.525250 0.438128 0.613307 0.136990
C45   C     C_R   0.082379 0.862507 0.469209 0.531134
C46   C     C_R   0.918015 0.137794 0.531282 0.531245
C47   C     C_R   0.422018 0.616731 0.041669 0.540610
C48   C     C_R   0.576463 0.380815 0.956406 0.541683
N1    N     N_R   0.072851 0.968891 0.423109 -0.190532
N2    N     N_R   0.927524 0.031360 0.577367 -0.190394
N3    N     N_R   0.426355 0.470524 0.076243 -0.195255
N4    N     N_R   0.572305 0.527602 0.922075 -0.195405
C49   C     C_R   0.035166 0.086153 0.406272 0.561960
C50   C     C_R   0.965227 0.914182 0.594235 0.560271
C51   C     C_R   0.458618 0.334428 0.081046 0.573662
C52   C     C_R   0.539983 0.663516 0.917219 0.573561
C53   C     C_R   0.006574 0.108779 0.438030 -0.241103
C54   C     C_R   0.993854 0.891668 0.562512 -0.241344
C55   C     C_R   0.489746 0.344955 0.051990 -0.196297
C56   C     C_R   0.508691 0.652410 0.946053 -0.195412
C57   C     C_R   0.014838 0.993852 0.484551 -0.080643
C58   C     C_R   0.985590 0.006579 0.515988 -0.080838
C59   C     C_R   0.484538 0.492727 0.014718 -0.042152
C60   C     C_R   0.513865 0.504495 0.983271 -0.042781
C61   C     C_R   0.052509 0.866577 0.499746 -0.203123
C62   C     C_R   0.947912 0.133825 0.500781 -0.202975
C63   C     C_R   0.449922 0.628790 0.008861 -0.165344
C64   C     C_R   0.548427 0.368267 0.989056 -0.166338
C65   C     C_R   0.969656 0.240017 0.424211 0.216502
C66   C     C_R   0.030799 0.760535 0.576359 0.217687
C67   C     C_R   0.525348 0.211520 0.058484 0.251078
C68   C     C_R   0.472926 0.785305 0.939351 0.251385
C69   C     C_R   0.940830 0.252578 0.455414 0.433916
C70   C     C_R   0.059610 0.747906 0.545137 0.432900
C71   C     C_R   0.554518 0.224180 0.027643 0.444901
C72   C     C_R   0.443648 0.772248 0.970044 0.443690
O21   O     O_2   0.121318 0.756242 0.485952 -0.528187
O22   O     O_2   0.879063 0.243985 0.514509 -0.527638
O23   O     O_2   0.390279 0.749144 0.038739 -0.528309
O24   O     O_2   0.608190 0.248398 0.959298 -0.525718
O25   O     O_2   0.025044 0.177293 0.358235 -0.488506
O26   O     O_2   0.975321 0.822987 0.642258 -0.492362
O27   O     O_2   0.460366 0.189512 0.113952 -0.487708
O28   O     O_2   0.538343 0.808857 0.884501 -0.487528
C73   C     C_R   0.890730 0.208002 0.632353 -0.038824
C74   C     C_R   0.109525 0.792085 0.368021 -0.036762
C75   C     C_R   0.632850 0.692836 0.896858 -0.060582
C76   C     C_R   0.366144 0.306090 0.102211 -0.066168
H17   H     H_    0.909326 0.331264 0.628194 0.150692
H18   H     H_    0.090945 0.668854 0.372239 0.151153
H19   H     H_    0.633553 0.803708 0.925258 0.156635
H20   H     H_    0.365245 0.194885 0.073832 0.155619
C77   C     C_R   0.860699 0.217112 0.661860 -0.191741
C78   C     C_R   0.139452 0.782930 0.338380 -0.191685
C79   C     C_R   0.662403 0.703625 0.866763 -0.174391
C80   C     C_R   0.336947 0.295702 0.132740 -0.174498
H21   H     H_    0.856758 0.348299 0.679746 0.142394
H22   H     H_    0.143343 0.651732 0.320465 0.142719
H23   H     H_    0.685211 0.823345 0.872431 0.136105
H24   H     H_    0.314194 0.175972 0.127394 0.133535
C81   C     C_R   0.836393 0.058651 0.668410 -0.127340
C82   C     C_R   0.163719 0.941369 0.331735 -0.126968
C83   C     C_R   0.663447 0.559045 0.830941 -0.120197
C84   C     C_R   0.336176 0.440638 0.168584 -0.118927
C85   C     C_R   0.842844 0.891213 0.644429 -0.167563
C86   C     C_R   0.157347 0.108815 0.355772 -0.166508
C87   C     C_R   0.633657 0.405070 0.825126 -0.196915
C88   C     C_R   0.365850 0.594672 0.173933 -0.200736
H25   H     H_    0.824589 0.766536 0.648204 0.135034
H26   H     H_    0.175583 0.233472 0.351937 0.134846
H27   H     H_    0.633432 0.292150 0.797565 0.140897
H28   H     H_    0.366252 0.707912 0.201469 0.141083
C89   C     C_R   0.872563 0.882754 0.614585 -0.078082
C90   C     C_R   0.127735 0.117319 0.385747 -0.078086
C91   C     C_R   0.603246 0.396524 0.854134 -0.035598
C92   C     C_R   0.395919 0.602828 0.144479 -0.035876
H29   H     H_    0.876552 0.752925 0.596008 0.124384
H30   H     H_    0.123798 0.247170 0.404348 0.124252
H31   H     H_    0.580109 0.277804 0.848307 0.159097
H32   H     H_    0.419001 0.721546 0.149961 0.159698
C93   C     C_R   0.896854 0.040838 0.608352 0.185914
C94   C     C_R   0.103470 0.959276 0.392061 0.185399
C95   C     C_R   0.602790 0.539461 0.890722 0.155478
C96   C     C_R   0.396126 0.459412 0.107919 0.156978
O29   O     O_3   0.871833 0.354476 0.025660 -0.627197
C97   C     C_3   0.875750 0.535747 0.007878 0.215329
H33   H     H_    0.846814 0.563729 0.967287 0.107671
H34   H     H_    0.910571 0.558459 0.003989 0.097653
C98   C     C_3   0.871885 0.673804 0.050170 -0.783092
H35   H     H_    0.900766 0.651358 0.091019 0.258093
H36   H     H_    0.874842 0.816481 0.036364 0.209262
H37   H     H_    0.837228 0.657412 0.054519 0.257700
O30   O     O_3   0.131940 0.699327 0.967160 -0.636231
C99   C     C_3   0.155873 0.813025 0.942135 0.210720
H38   H     H_    0.191123 0.856701 0.972714 0.102510
H39   H     H_    0.134651 0.937690 0.923694 0.108316
C100  C     C_3   0.163550 0.705304 0.895930 -0.787633
H40   H     H_    0.128950 0.661816 0.864218 0.264563
H41   H     H_    0.182434 0.793320 0.875971 0.211138
H42   H     H_    0.185098 0.580967 0.913061 0.248670
O31   O     O_3   0.641039 0.654168 0.458223 -0.635720
C101  C     C_3   0.662398 0.500772 0.443607 0.210844
H43   H     H_    0.638161 0.378555 0.433012 0.106542
H44   H     H_    0.696125 0.464656 0.477921 0.110721
C102  C     C_3   0.673558 0.548438 0.392990 -0.777001
H45   H     H_    0.698218 0.668423 0.402407 0.255619
H46   H     H_    0.690369 0.428689 0.381064 0.217295
H47   H     H_    0.640492 0.583065 0.357709 0.255373
O32   O     O_3   0.358954 0.345840 0.541780 -0.635744
C103  C     C_3   0.337587 0.499224 0.556390 0.212205
H48   H     H_    0.303860 0.535316 0.522073 0.110430
H49   H     H_    0.361820 0.621457 0.566983 0.106420
C104  C     C_3   0.326427 0.451557 0.607006 -0.779674
H50   H     H_    0.359493 0.416954 0.642290 0.255641
H51   H     H_    0.309609 0.571296 0.618928 0.216964
H52   H     H_    0.301771 0.331556 0.597591 0.255482
N5    N     N_R   0.961682 0.367441 0.379676 0.280129
O33   O     O_R   0.920633 0.372266 0.339108 -0.304839
O34   O     O_R   0.992377 0.498348 0.384423 -0.413170
N6    N     N_R   0.038825 0.633312 0.620952 0.279426
O35   O     O_R   0.079863 0.628945 0.661549 -0.316244
O36   O     O_R   0.008202 0.502152 0.616245 -0.414490
N7    N     N_R   0.534130 0.065576 0.098088 0.272624
O37   O     O_R   0.533510 0.894774 0.082147 -0.375247
O38   O     O_R   0.552104 0.104815 0.150817 -0.362431
N8    N     N_R   0.464034 0.930857 0.899613 0.272805
O39   O     O_R   0.464355 0.101742 0.915361 -0.374603
O40   O     O_R   0.446308 0.890994 0.846920 -0.363475
O41   O     O_3   0.903889 0.376575 0.438976 -0.547196
C105  C     C_3   0.919952 0.547414 0.466110 0.293245
H53   H     H_    0.947428 0.610140 0.452991 0.098476
H54   H     H_    0.934734 0.531778 0.512000 0.110751
C106  C     C_3   0.878242 0.677991 0.450811 -0.732449
H55   H     H_    0.850279 0.618962 0.463628 0.259337
H56   H     H_    0.889775 0.812313 0.472134 0.178512
H57   H     H_    0.863478 0.700611 0.405346 0.267127
O42   O     O_3   0.096555 0.623923 0.561580 -0.547933
C107  C     C_3   0.080482 0.453019 0.534492 0.295278
H58   H     H_    0.065709 0.468522 0.488598 0.110877
H59   H     H_    0.052996 0.390421 0.547619 0.098240
C108  C     C_3   0.122179 0.322366 0.549833 -0.737698
H60   H     H_    0.136933 0.299875 0.595305 0.265943
H61   H     H_    0.110635 0.187994 0.528542 0.179292
H62   H     H_    0.150153 0.381258 0.537010 0.259854
O43   O     O_3   0.588044 0.088857 0.034277 -0.564581
C109  C     C_3   0.630454 0.141553 0.077964 0.328887
H63   H     H_    0.625492 0.148672 0.118126 0.115492
H64   H     H_    0.643513 0.278138 0.069959 0.089340
C110  C     C_3   0.668104 0.998463 0.083003 -0.782373
H65   H     H_    0.674366 0.989690 0.043688 0.260195
H66   H     H_    0.701699 0.037979 0.117187 0.207235
H67   H     H_    0.656435 0.861101 0.092012 0.251187
O44   O     O_3   0.409675 0.906142 0.962851 -0.563798
C111  C     C_3   0.367436 0.850245 0.919404 0.341957
H68   H     H_    0.355176 0.712345 0.927614 0.082369
H69   H     H_    0.372306 0.844391 0.879173 0.114308
C112  C     C_3   0.329002 0.989729 0.914414 -0.812114
H70   H     H_    0.339794 0.128322 0.905152 0.254646
H71   H     H_    0.295545 0.947548 0.880421 0.201387
H72   H     H_    0.322869 0.997178 0.953825 0.260267

loop_
_geom_bond_atom_site_label_1
_geom_bond_atom_site_label_2
_geom_bond_distance
_ccdc_geom_bond_type
C13   O29   1.384181 S    
O17   V3    1.764435 S    
C55   C59   1.418408 A    
N7    O37   1.300679 A    
C25   C29   1.422214 A    
O1    C5    1.332373 A    
O29   C97   1.414576 S    
C54   C66   1.419031 A    
C47   N3    1.368792 A    
O19   V1    1.774266 S    
O13   V1    1.975196 S    
C98   H35   1.110663 S    
C82   C86   1.409205 A    
O3    C7    1.335856 A    
C10   C18   1.394758 A    
C76   C96   1.406383 A    
C77   H21   1.082867 S    
C80   H24   1.083196 S    
C11   C23   1.403342 A    
C102  H45   1.110766 S    
C25   C33   1.440255 A    
C33   C38   1.409386 A    
C5    C12   1.472433 S    
C106  H55   1.110650 S    
C79   H23   1.083184 S    
C6    C11   1.472426 S    
N7    O38   1.301471 A    
N3    C51   1.369776 A    
C35   C40   1.410511 A    
C57   C58   1.422175 A    
C36   C39   1.410510 A    
C40   C44   1.386934 A    
C64   C71   1.417138 A    
O9    V1    1.991408 S    
C49   O25   1.348148 S    
C23   H8    1.076634 S    
C14   C18   1.397216 A    
C110  H67   1.110899 S    
C74   C94   1.404694 A    
C76   C80   1.400741 A    
C97   C98   1.520457 S    
O4    C8    1.337194 A    
C51   C55   1.420887 A    
C102  H46   1.110528 S    
C74   H18   1.083116 S    
C73   C77   1.400712 A    
O31   C101  1.411882 S    
C60   C64   1.415096 A    
O1    V3    1.991190 S    
C9    C21   1.406740 A    
C4    C81   1.490012 S    
O2    V4    1.991190 S    
N5    O34   1.301550 A    
C101  H43   1.115295 S    
C40   H16   1.075782 S    
C85   H25   1.082924 S    
C28   C36   1.439168 A    
C103  C104  1.520665 S    
C99   H38   1.113848 S    
C65   N5    1.435057 S    
C1    O15   1.325054 A    
C56   C60   1.418446 A    
C15   C31   1.413553 A    
C16   O32   1.383567 S    
C48   N4    1.368940 A    
C2    O16   1.324992 A    
N6    O35   1.300961 A    
C16   C32   1.413558 A    
C86   C90   1.399267 A    
C72   O44   1.384807 S    
O2    C6    1.332370 A    
C75   C95   1.406558 A    
C58   C62   1.414948 A    
C10   C22   1.405278 A    
C48   O24   1.348776 S    
C11   C19   1.392422 A    
O44   C111  1.413507 S    
C66   C70   1.406308 A    
C16   C20   1.397785 A    
C43   H3    1.083604 S    
C104  H50   1.110773 S    
C65   C69   1.406251 A    
C13   C29   1.411115 A    
C7    C10   1.478275 S    
C34   C37   1.408819 A    
O11   C7    1.329218 A    
C78   H22   1.082865 S    
C38   H14   1.076002 S    
O15   V3    1.975740 S    
C35   C36   1.435903 A    
O12   C8    1.328851 A    
C86   H26   1.082924 S    
C112  H70   1.110868 S    
C97   H34   1.115717 S    
C98   H36   1.110840 S    
C24   H7    1.076631 S    
C46   C62   1.416606 A    
C111  H69   1.112182 S    
O10   V2    1.991408 S    
C45   C61   1.416687 A    
C76   H20   1.083046 S    
C91   C95   1.406381 A    
C1    C84   1.484208 S    
N2    C50   1.368362 A    
O5    V1    1.993755 S    
C106  H56   1.105526 S    
N4    C52   1.369834 A    
C57   C61   1.414953 A    
C39   C43   1.386924 A    
O7    V3    1.993832 S    
C38   C42   1.387345 A    
C62   C69   1.415834 A    
C66   N6    1.435044 S    
O8    V4    1.993839 S    
C61   C70   1.415871 A    
C92   H32   1.082916 S    
C44   H4    1.083605 S    
C46   N2    1.367661 A    
C67   N7    1.435931 S    
C17   H10   1.084293 S    
C45   N1    1.367684 A    
N8    O39   1.300724 A    
C14   O30   1.383703 S    
C15   C19   1.397773 A    
N2    C93   1.448209 S    
C104  H51   1.110530 S    
O42   C107  1.412186 S    
C32   C44   1.397371 A    
C91   H31   1.082918 S    
O11   V3    2.006395 S    
N1    C49   1.368352 A    
O4    V2    1.982593 S    
C89   C93   1.403921 A    
C21   H6    1.076649 S    
C101  C102  1.520663 S    
C26   C34   1.439114 A    
O7    C3    1.327940 A    
C108  H62   1.110653 S    
C103  H48   1.113821 S    
C47   O23   1.348795 S    
C110  H65   1.110851 S    
C73   H17   1.083119 S    
C78   C82   1.409065 A    
C108  H60   1.110535 S    
C53   C65   1.419007 A    
C39   H15   1.075779 S    
C49   C53   1.418571 A    
C107  H59   1.112907 S    
N5    O33   1.300956 A    
C14   C30   1.412095 A    
C21   C25   1.429856 A    
O8    C4    1.327908 A    
C100  H42   1.110768 S    
C55   C67   1.420672 A    
O41   C105  1.412167 S    
O9    C5    1.331303 A    
C46   O22   1.348722 S    
C80   C84   1.406660 A    
C26   C30   1.421631 A    
C45   O21   1.348712 S    
C99   C100  1.520734 S    
C92   C96   1.406434 A    
C15   O31   1.383565 S    
C100  H40   1.110775 S    
O14   V2    1.975201 S    
C50   O26   1.348136 S    
C52   O28   1.347779 S    
O6    V2    1.993755 S    
C56   C68   1.420742 A    
C109  H64   1.114544 S    
C112  H71   1.110536 S    
C97   H33   1.113981 S    
C98   H37   1.110591 S    
N3    C96   1.451794 S    
C12   C20   1.392426 A    
C27   C35   1.439172 A    
C111  H68   1.114731 S    
C70   O42   1.383424 S    
C109  C110  1.520729 S    
C13   C17   1.394607 A    
N1    C94   1.448230 S    
C68   C72   1.407438 A    
C29   C41   1.397490 A    
N4    C95   1.451986 S    
C107  C108  1.519818 S    
C59   C63   1.415075 A    
O16   V4    1.975737 S    
C106  H57   1.110534 S    
C51   O27   1.347758 S    
C85   C89   1.399312 A    
C3    O13   1.325040 A    
C103  H49   1.115296 S    
O43   C109  1.413349 S    
C77   C81   1.409058 A    
C90   C94   1.403911 A    
C20   H11   1.084038 S    
C73   C93   1.404668 A    
C88   H28   1.083152 S    
C75   C79   1.401057 A    
C102  H47   1.110772 S    
O6    C2    1.326997 A    
C23   C27   1.424994 A    
C71   O43   1.384735 S    
O18   V4    1.764436 S    
C81   C85   1.409200 A    
C87   C91   1.400248 A    
O12   V4    2.006398 S    
C105  C106  1.519809 S    
C22   C26   1.428257 A    
C105  H54   1.113941 S    
C8    C9    1.480380 S    
C108  H61   1.105567 S    
C9    C17   1.395750 A    
O10   C6    1.331300 A    
C75   H19   1.083045 S    
O20   V2    1.774267 S    
C19   H12   1.084040 S    
C68   N8    1.435835 S    
C83   C87   1.406168 A    
C110  H66   1.110464 S    
C54   C58   1.417350 A    
C104  H52   1.110768 S    
C67   C71   1.407575 A    
O3    V1    1.982590 S    
C107  H58   1.113919 S    
C42   H2    1.083591 S    
C31   C43   1.397365 A    
C41   H1    1.083624 S    
C87   H27   1.083160 S    
C52   C56   1.420907 A    
C79   C83   1.406642 A    
C99   H39   1.115243 S    
C100  H41   1.110600 S    
C12   C24   1.403334 A    
C27   C31   1.422132 A    
C2    C83   1.484394 S    
C105  H53   1.112912 S    
C89   H29   1.083242 S    
O32   C103  1.411886 S    
C3    C82   1.490034 S    
C101  H44   1.113821 S    
C63   C72   1.417009 A    
O30   C99   1.411871 S    
C48   C64   1.417030 A    
C37   C41   1.385444 A    
C24   C28   1.424990 A    
C47   C63   1.416915 A    
C74   C78   1.400778 A    
C18   H9    1.084150 S    
N6    O36   1.301551 A    
C109  H63   1.112119 S    
C112  H72   1.110837 S    
C4    O14   1.325050 A    
C59   C60   1.423975 A    
C90   H30   1.083242 S    
C50   C54   1.418639 A    
C37   H13   1.076108 S    
O5    C1    1.326849 A    
C88   C92   1.400326 A    
C33   C34   1.437967 A    
C30   C42   1.398346 A    
N8    O40   1.301451 A    
C111  C112  1.520874 S    
C22   H5    1.076896 S    
C53   C57   1.417337 A    
C28   C32   1.422131 A    
C69   O41   1.383412 S    
C84   C88   1.406121 A    
