data_mof_unit_39683.cif
_audit_creation_date              2012-12-10T18:10:57-0500
_audit_creation_method            fapswitch 2.2
_symmetry_space_group_name_H-M    P1
_symmetry_Int_Tables_number       1
_space_group_crystal_system       triclinic
_cell_length_a                    12.611294
_cell_length_b                    13.063931
_cell_length_c                    15.733728
_cell_angle_alpha                 91.105537
_cell_angle_beta                  102.76561
_cell_angle_gamma                 82.127311
_cell_volume                      2504.11770949

loop_
_atom_site_label
_atom_site_type_symbol
_atom_type_description
_atom_site_fract_x
_atom_site_fract_y
_atom_site_fract_z
_atom_type_partial_charge
C1    C     C_R   0.438478 0.691757 0.487142 0.902323
C2    C     C_R   0.596938 0.198741 0.500906 -0.179124
C3    C     C_R   0.296357 0.844322 0.492295 0.370263
C4    C     C_R   0.501352 0.499645 0.661620 0.887763
C5    C     C_R   0.260179 0.950829 0.478952 0.377901
C6    C     C_R   0.335024 0.015842 0.468698 -0.282031
C7    C     C_R   0.442407 0.974872 0.462546 0.007121
C8    C     C_R   0.465553 0.868753 0.448179 -0.001417
C9    C     C_R   0.527395 0.036132 0.469035 0.016323
C10   C     C_R   0.621117 0.998952 0.435888 0.108686
C11   C     C_R   0.632577 0.898528 0.404107 -0.227700
C12   C     C_3   0.381244 0.513681 0.026897 -0.396026
C13   C     C_R   0.556863 0.833085 0.411921 -0.139690
C14   C     C_R   0.525351 0.130446 0.512878 0.412932
C15   C     C_R   0.687310 0.164191 0.464641 -0.274276
C16   C     C_R   0.561146 0.308355 0.508861 0.892756
C17   C     C_R   0.397924 0.802188 0.472805 -0.286061
C18   C     C_R   0.088336 0.346400 0.378096 -0.316448
C19   C     C_R   0.799338 0.630454 0.602793 0.027581
C20   C     C_R   0.904319 0.657825 0.625952 -0.261306
C21   C     C_R   0.986246 0.607370 0.587837 -0.189875
C22   C     C_R   0.962993 0.529462 0.525532 0.018541
C23   C     C_3   0.499864 0.495168 0.082606 0.361686
C24   C     C_R   0.854906 0.503540 0.505075 0.235387
C25   C     C_R   0.042184 0.476454 0.482980 -0.019510
C26   C     C_R   0.011865 0.398614 0.421430 0.199020
C27   C     C_R   0.905607 0.373611 0.403682 -0.298238
C28   C     C_R   0.499073 0.499259 0.338467 0.877645
C29   C     C_R   0.828478 0.425207 0.445244 -0.207116
C30   C     C_R   0.150799 0.497736 0.498363 -0.025466
C31   C     C_R   0.194397 0.370644 0.396726 0.033818
C32   C     C_3   0.383391 0.514048 0.929208 -0.395806
C33   C     C_3   0.565558 0.582692 0.965382 -0.397030
C34   C     C_3   0.557497 0.390027 0.057762 -0.394797
C35   C     C_3   0.563165 0.582241 0.063009 -0.392432
C36   C     C_1   0.497503 0.496897 0.249150 -0.177242
C37   C     C_3   0.503532 0.496160 0.918042 0.361833
C38   C     C_3   0.502573 0.139579 0.653751 0.095988
C39   C     C_3   0.487837 0.031569 0.681811 -0.346827
C40   C     C_3   0.531187 0.014004 0.779594 -0.981355
C41   C     C_3   0.225969 0.804380 0.608655 0.100199
C42   C     C_3   0.318511 0.738338 0.671843 -0.369314
C43   C     C_3   0.317213 0.765960 0.766209 -0.995991
C44   C     C_3   0.076369 0.971513 0.415287 0.138593
C45   C     C_3   0.559660 0.390610 0.959930 -0.396820
C46   C     C_3   0.041292 0.066654 0.355435 -0.381154
C47   C     C_3   0.953649 0.047097 0.275265 -0.988450
C48   C     C_1   0.497946 0.495396 0.173807 -0.127504
C49   C     C_1   0.504943 0.497179 0.826718 -0.125183
C50   C     C_1   0.504305 0.498434 0.751193 -0.183786
C51   C     C_R   0.701587 0.062949 0.435269 -0.209085
H1    H     H_    0.338255 0.588914 0.043918 0.168655
H2    H     H_    0.569544 0.755294 0.387839 0.167955
H3    H     H_    0.255060 0.330741 0.364293 0.129407
H4    H     H_    0.881846 0.313856 0.357353 0.153088
H5    H     H_    0.066256 0.287855 0.330241 0.140958
H6    H     H_    0.181459 0.555464 0.543347 0.140652
H7    H     H_    0.735170 0.669151 0.632256 0.139266
H8    H     H_    0.066525 0.630455 0.608778 0.136538
H9    H     H_    0.922270 0.717678 0.673438 0.146566
H10   H     H_    0.748561 0.402085 0.429353 0.209208
H11   H     H_    0.652208 0.570874 0.958117 0.169225
H12   H     H_    0.337579 0.452371 0.895538 0.170699
H13   H     H_    0.527251 0.659431 0.936164 0.164353
H14   H     H_    0.523147 0.658610 0.080595 0.167581
H15   H     H_    0.648692 0.570581 0.102871 0.169505
H16   H     H_    0.516597 0.327084 0.926593 0.165123
H17   H     H_    0.646153 0.375897 0.952432 0.167438
H18   H     H_    0.513394 0.326226 0.071625 0.167084
H19   H     H_    0.461850 0.197908 0.692732 0.169524
H20   H     H_    0.591336 0.149535 0.669297 0.111947
H21   H     H_    0.399318 0.022341 0.664945 0.237556
H22   H     H_    0.532787 0.971928 0.646738 0.217384
H23   H     H_    0.334173 0.452007 0.040345 0.168339
H24   H     H_    0.620037 0.021413 0.797868 0.265813
H25   H     H_    0.519800 0.935048 0.797488 0.269036
H26   H     H_    0.485781 0.071012 0.816537 0.263331
H27   H     H_    0.146149 0.786188 0.618596 0.151737
H28   H     H_    0.227799 0.887524 0.625217 0.167304
H29   H     H_    0.308566 0.655606 0.661801 0.235584
H30   H     H_    0.399101 0.750732 0.659223 0.209807
H31   H     H_    0.325381 0.848991 0.777543 0.271040
H32   H     H_    0.387402 0.719338 0.809924 0.265403
H33   H     H_    0.239727 0.749349 0.782177 0.263424
H34   H     H_    0.642962 0.375051 0.097453 0.167214
H35   H     H_    0.004092 0.953767 0.438958 0.158260
H36   H     H_    0.102313 0.902785 0.377630 0.138460
H37   H     H_    0.008246 0.132420 0.392161 0.235570
H38   H     H_    0.113816 0.087726 0.333978 0.216931
H39   H     H_    0.986166 0.983597 0.236129 0.269456
H40   H     H_    0.929158 0.118260 0.234203 0.264879
H41   H     H_    0.879991 0.026168 0.294882 0.260240
H42   H     H_    0.744215 0.216035 0.456114 0.175414
H43   H     H_    0.702244 0.869294 0.376604 0.141687
H44   H     H_    0.772694 0.036194 0.408842 0.146237
H45   H     H_    0.307472 0.098081 0.463956 0.223242
H46   H     H_    0.340833 0.589185 0.899178 0.173434
N1    N     N_R   0.222200 0.444690 0.455710 -0.101617
N2    N     N_R   0.776960 0.554780 0.543830 -0.130625
O1    O     O_R   0.366740 0.627160 0.478850 -0.562358
O2    O     O_3   0.231164 0.781208 0.521042 -0.633778
O3    O     O_3   0.157071 0.993713 0.488742 -0.649801
O4    O     O_R   0.544830 0.662520 0.507140 -0.630996
O5    O     O_R   0.410920 0.482310 0.608710 -0.617901
O6    O     O_R   0.589010 0.517670 0.637000 -0.613410
O7    O     O_R   0.455170 0.337480 0.492860 -0.570070
O8    O     O_R   0.633260 0.372840 0.521150 -0.641711
O9    O     O_R   0.410990 0.482330 0.363000 -0.618696
O10   O     O_R   0.589080 0.517690 0.391290 -0.638797
O11   O     O_3   0.450766 0.158553 0.564978 -0.646966
Zn1   Zn    Zn3+2 0.381090 0.476390 0.481110 0.968577
Zn2   Zn    Zn3+2 0.618910 0.523610 0.518890 0.917295

loop_
_geom_bond_atom_site_label_1
_geom_bond_atom_site_label_2
_ccdc_geom_bond_type
C38   H19   S    
C42   H29   S    
C8    C13   A    
C12   H23   S    
C27   C29   A    
C24   N2    A    
C43   H32   S    
C47   H41   S    
C19   C20   A    
C18   C26   A    
C7    C8    A    
C46   H38   S    
C12   C23   S    
C26   C27   A    
C21   H8    S    
C38   C39   S    
C27   H4    S    
C35   H14   S    
C30   H6    S    
C32   H46   S    
C14   O11   S    
C41   C42   S    
C31   N1    A    
C24   C29   A    
C16   O8    A    
C5    O3    S    
C33   H11   S    
C22   C25   A    
C45   H16   S    
C39   H21   S    
C36   C48   T    
C23   C48   S    
C15   C51   A    
C20   H9    S    
C44   H36   S    
C2    C16   S    
C9    C10   A    
C1    O4    A    
C46   H37   S    
C18   H5    S    
C6    H45   S    
C3    O2    S    
C21   C22   A    
C12   C32   S    
C43   H33   S    
C42   H30   S    
C44   H35   S    
C10   C51   A    
C1    O1    A    
C12   H1    S    
C44   C46   S    
C13   H2    S    
O7    Zn1   S    
C19   H7    S    
C29   H10   S    
O10   Zn2   S    
C39   C40   S    
C19   N2    A    
C35   H15   S    
C25   C26   A    
C33   C37   S    
C40   H25   S    
C4    C50   S    
O4    Zn2   S    
C34   H34   S    
C9    C14   A    
C15   H42   S    
C37   C49   S    
C23   C34   S    
C45   H17   S    
C34   C45   S    
C46   C47   S    
C32   C37   S    
C2    C15   A    
C34   H18   S    
C11   H43   S    
O6    Zn2   S    
C23   C35   S    
C47   H39   S    
C22   C24   A    
C38   O11   S    
C42   C43   S    
C37   C45   S    
C41   H27   S    
C25   C30   A    
C7    C9    A    
C38   H20   S    
C44   O3    S    
N1    Zn1   S    
C47   H40   S    
C32   H12   S    
C3    C5    A    
C41   H28   S    
O5    Zn1   S    
C40   H24   S    
C6    C7    A    
C16   O7    A    
C28   O10   A    
C4    O6    A    
C30   N1    A    
C1    C17   S    
C8    C17   A    
O9    Zn1   S    
C11   C13   A    
C5    C6    A    
C28   O9    A    
C33   H13   S    
N2    Zn2   S    
C4    O5    A    
C33   C35   S    
C41   O2    S    
C3    C17   A    
C39   H22   S    
C31   H3    S    
C2    C14   A    
C10   C11   A    
C20   C21   A    
C28   C36   S    
O1    Zn1   S    
C49   C50   T    
C43   H31   S    
C40   H26   S    
O8    Zn2   S    
C18   C31   A    
C51   H44   S    
