data_mof_unit_8263.cif
_audit_creation_date              2012-12-11T15:35:27-0500
_audit_creation_method            fapswitch 2.2
_symmetry_space_group_name_H-M    P1
_symmetry_Int_Tables_number       1
_space_group_crystal_system       triclinic
_cell_length_a                    17.332232
_cell_length_b                    24.142298
_cell_length_c                    14.993987
_cell_angle_alpha                 90.056186
_cell_angle_beta                  125.198631
_cell_angle_gamma                 89.932209
_cell_volume                      5126.91704448

loop_
_atom_site_label
_atom_site_type_symbol
_atom_type_description
_atom_site_fract_x
_atom_site_fract_y
_atom_site_fract_z
_atom_type_partial_charge
C1    C     C_R   0.352110 0.152773 0.908703 -0.142794
C2    C     C_R   0.599083 0.126607 0.910737 -0.132827
C3    C     C_R   0.256523 0.546055 0.302563 -0.136158
C4    C     C_3   0.851371 0.937866 0.571264 -0.329548
C5    C     C_3   0.840414 0.876705 0.588508 -0.954618
C6    C     C_3   0.846285 0.066548 0.561193 -0.363899
C7    C     C_3   0.840934 0.128817 0.576231 -0.948814
C8    C     C_3   0.351369 0.437869 0.571273 -0.329538
C9    C     C_3   0.340412 0.376709 0.588521 -0.954575
C10   C     C_3   0.346287 0.566551 0.561196 -0.363918
C11   C     C_3   0.340937 0.628821 0.576230 -0.948802
C12   C     C_3   0.970509 0.939467 0.375430 -0.437171
C13   C     C_R   0.099538 0.373897 0.910759 -0.131073
C14   C     C_3   0.025213 0.933967 0.323615 -0.942944
C15   C     C_3   0.958866 0.043500 0.343218 -0.259654
C16   C     C_3   0.967447 0.105631 0.370246 -1.052492
C17   C     C_3   0.470502 0.439460 0.375436 -0.437147
C18   C     C_3   0.525200 0.433955 0.323615 -0.943005
C19   C     C_3   0.458859 0.543491 0.343212 -0.259641
C20   C     C_3   0.467440 0.605624 0.370233 -1.052495
C21   C     C_3   0.312522 0.727149 0.810575 -1.083033
C22   C     C_3   0.310126 0.272030 0.808334 -1.079535
C23   C     C_3   0.812521 0.227150 0.810574 -1.083038
C24   C     C_R   0.099083 0.626607 0.910738 -0.132825
C25   C     C_3   0.810122 0.772029 0.808329 -1.079523
C26   C     C_3   0.276884 0.020464 0.442998 -1.027485
C27   C     C_3   0.630768 0.979113 0.666607 -1.003461
C28   C     C_3   0.776859 0.520252 0.442997 -1.027661
C29   C     C_3   0.130846 0.479306 0.666652 -1.003472
C30   C     C_R   0.459105 0.999955 0.648538 0.118215
C31   C     C_R   0.959137 0.499955 0.648558 0.118237
C32   C     C_R   0.805346 0.999797 0.362851 0.012709
C33   C     C_R   0.305342 0.499797 0.362855 0.012709
C34   C     C_R   0.687858 0.139536 0.003335 0.064329
C35   C     C_R   0.688637 0.861254 0.003269 0.062632
C36   C     C_R   0.187858 0.639536 0.003335 0.064330
C37   C     C_R   0.352449 0.847150 0.908783 -0.143545
C38   C     C_R   0.188637 0.361253 0.003270 0.062630
C39   C     C_3   0.024268 0.945877 0.635671 -0.463572
C40   C     C_3   0.021504 0.049831 0.642798 -0.454358
C41   C     C_3   0.524266 0.445878 0.635676 -0.463569
C42   C     C_3   0.521505 0.549833 0.642797 -0.454358
C43   C     C_3   0.919577 0.946384 0.536367 0.043182
C44   C     C_3   0.920610 0.052435 0.537024 0.054704
C45   C     C_3   0.419573 0.446385 0.536374 0.043169
C46   C     C_3   0.420609 0.552436 0.537024 0.054721
C47   C     C_3   0.075207 0.003342 0.535101 -0.458051
C48   C     C_R   0.852110 0.652773 0.908702 -0.142792
C49   C     C_3   0.575203 0.503339 0.535099 -0.458038
C50   C     C_3   0.075157 0.999680 0.638566 0.253629
C51   C     C_3   0.575155 0.499679 0.638566 0.253618
C52   C     C_3   0.901869 0.999417 0.464240 0.066339
C53   C     C_3   0.401866 0.499416 0.464243 0.066339
C54   C     C_R   0.447506 0.846184 0.090324 -0.140384
C55   C     C_R   0.446962 0.153860 0.090260 -0.140213
C56   C     C_R   0.947505 0.346184 0.090324 -0.140384
C57   C     C_R   0.946962 0.653860 0.090260 -0.140207
C58   C     C_3   0.974824 0.997722 0.428774 0.370343
C59   C     C_R   0.852449 0.347150 0.908783 -0.143545
C60   C     C_3   0.474819 0.497717 0.428774 0.370335
C61   C     C_R   0.312880 0.721166 0.910651 0.325305
C62   C     C_R   0.311874 0.278730 0.909215 0.323939
C63   C     C_R   0.812879 0.221166 0.910650 0.325304
C64   C     C_R   0.811871 0.778729 0.909212 0.323932
C65   C     C_R   0.757690 0.179384 0.911777 -0.221773
C66   C     C_R   0.757099 0.820811 0.910502 -0.217511
C67   C     C_R   0.257692 0.679383 0.911779 -0.221768
C68   C     C_R   0.257101 0.320811 0.910505 -0.217531
C69   C     C_R   0.762936 0.169151 0.007117 0.097457
C70   C     C_R   0.688644 0.125011 0.093217 -0.129814
C71   C     C_R   0.764219 0.832206 0.006646 0.095252
C72   C     C_R   0.262937 0.669151 0.007118 0.097459
C73   C     C_R   0.264219 0.332205 0.006649 0.095254
C74   C     C_R   0.835017 0.193411 0.105193 -0.171187
C75   C     C_R   0.838514 0.809269 0.105081 -0.164837
C76   C     C_R   0.335015 0.693412 0.105194 -0.171188
C77   C     C_R   0.338513 0.309268 0.105083 -0.164836
C78   C     C_R   0.386796 0.735998 0.103969 -0.228810
C79   C     C_R   0.389200 0.265818 0.103553 -0.228875
C80   C     C_R   0.886798 0.235997 0.103968 -0.228814
C81   C     C_R   0.689095 0.875346 0.093201 -0.124144
C82   C     C_R   0.889200 0.765819 0.103551 -0.228870
C83   C     C_R   0.367498 0.754950 0.004566 0.093521
C84   C     C_R   0.367552 0.245495 0.003758 0.092629
C85   C     C_R   0.867498 0.254950 0.004565 0.093522
C86   C     C_R   0.867551 0.745495 0.003756 0.092625
C87   C     C_R   0.366134 0.009898 0.450195 0.271321
C88   C     C_R   0.536909 0.989267 0.558778 0.257868
C89   C     C_R   0.866133 0.509797 0.450201 0.271357
C90   C     C_R   0.036965 0.489373 0.558810 0.257819
C91   C     C_R   0.363629 0.009659 0.356052 -0.210263
C92   C     C_R   0.188644 0.625011 0.093217 -0.129811
C93   C     C_R   0.532381 0.989217 0.464388 -0.207609
C94   C     C_R   0.863622 0.509560 0.356055 -0.210243
C95   C     C_R   0.032433 0.489329 0.464415 -0.207569
C96   C     C_R   0.446482 0.999105 0.364730 0.026061
C97   C     C_R   0.946502 0.499118 0.364745 0.026020
C98   C     C_R   0.478765 0.046037 0.246679 -0.130223
C99   C     C_R   0.477899 0.953770 0.245071 -0.133819
C100  C     C_R   0.978764 0.546039 0.246674 -0.130236
C101  C     C_R   0.977908 0.453772 0.245085 -0.133772
C102  C     C_R   0.453322 0.999652 0.550692 0.009946
C103  C     C_R   0.189095 0.375346 0.093202 -0.124139
C104  C     C_R   0.953353 0.499655 0.550712 0.009992
C105  C     C_R   0.232279 0.953526 0.757186 -0.145925
C106  C     C_R   0.232005 0.046396 0.756718 -0.141319
C107  C     C_R   0.732279 0.453526 0.757184 -0.145922
C108  C     C_R   0.732004 0.546396 0.756716 -0.141326
C109  C     C_R   0.387526 0.186502 0.999689 0.067579
C110  C     C_R   0.388083 0.813575 0.999887 0.068054
C111  C     C_R   0.887526 0.686503 0.999688 0.067580
C112  C     C_R   0.888082 0.313575 0.999887 0.068053
C113  C     C_R   0.448263 0.999786 0.271853 0.076526
C114  C     C_R   0.599538 0.873899 0.910758 -0.131057
C115  C     C_R   0.948267 0.499790 0.271858 0.076506
C116  C     C_R   0.175483 0.999889 0.731373 0.063050
C117  C     C_R   0.675482 0.499889 0.731371 0.063055
C118  C     C_R   0.463761 0.046097 0.703967 -0.150897
C119  C     C_R   0.463438 0.953884 0.703823 -0.150841
C120  C     C_R   0.963776 0.546097 0.703976 -0.150919
C121  C     C_R   0.963458 0.453884 0.703834 -0.150871
C122  C     C_R   0.755195 0.953820 0.303122 -0.187073
C123  C     C_R   0.756525 0.046055 0.302561 -0.136156
C124  C     C_R   0.255192 0.453820 0.303125 -0.187069
H1    H     H_    0.309781 0.165114 0.824316 0.114107
H2    H     H_    0.918893 0.088454 0.492106 0.174199
H3    H     H_    0.399324 0.623084 0.347278 0.249957
H4    H     H_    0.523486 0.615177 0.456644 0.264952
H5    H     H_    0.485605 0.628355 0.320265 0.268331
H6    H     H_    0.513778 0.537602 0.327961 0.214371
H7    H     H_    0.390462 0.536305 0.263285 0.193777
H8    H     H_    0.245611 0.746753 0.743801 0.250617
H9    H     H_    0.374283 0.751277 0.828079 0.257661
H10   H     H_    0.318091 0.685625 0.782701 0.263024
H11   H     H_    0.372084 0.248165 0.825518 0.257082
H12   H     H_    0.243261 0.251917 0.742753 0.250843
H13   H     H_    0.408466 0.409091 0.487520 0.126844
H14   H     H_    0.314404 0.313358 0.778928 0.262862
H15   H     H_    0.745610 0.246754 0.743800 0.250617
H16   H     H_    0.874282 0.251278 0.828079 0.257662
H17   H     H_    0.818090 0.185626 0.782699 0.263022
H18   H     H_    0.872081 0.748165 0.825514 0.257080
H19   H     H_    0.743258 0.751914 0.742751 0.250840
H20   H     H_    0.814396 0.813357 0.778920 0.262864
H21   H     H_    0.263135 0.985127 0.479338 0.248903
H22   H     H_    0.284507 0.058885 0.488146 0.251888
H23   H     H_    0.214676 0.025426 0.357128 0.251562
H24   H     H_    0.418893 0.588454 0.492102 0.174193
H25   H     H_    0.648956 0.014965 0.721871 0.254834
H26   H     H_    0.626873 0.941070 0.705368 0.248339
H27   H     H_    0.688873 0.973480 0.656322 0.244499
H28   H     H_    0.763229 0.484888 0.479390 0.248926
H29   H     H_    0.784363 0.558667 0.488094 0.251937
H30   H     H_    0.714638 0.525158 0.357122 0.251584
H31   H     H_    0.148942 0.515175 0.721850 0.254818
H32   H     H_    0.127046 0.441264 0.705483 0.248384
H33   H     H_    0.188961 0.473721 0.656373 0.244498
H34   H     H_    0.123007 0.970830 0.539899 0.172518
H35   H     H_    0.109435 0.042490 0.536906 0.172283
H36   H     H_    0.623003 0.470826 0.539898 0.172537
H37   H     H_    0.609429 0.542486 0.536900 0.172273
H38   H     H_    0.708677 0.156568 0.837582 0.128054
H39   H     H_    0.706957 0.842941 0.835819 0.126741
H40   H     H_    0.208680 0.656567 0.837585 0.128050
H41   H     H_    0.310128 0.834613 0.824453 0.113883
H42   H     H_    0.206960 0.342942 0.835823 0.126740
H43   H     H_    0.845043 0.184753 0.181767 0.124437
H44   H     H_    0.851372 0.819866 0.182568 0.117558
H45   H     H_    0.345040 0.684755 0.181767 0.124436
H46   H     H_    0.351370 0.319864 0.182570 0.117560
H47   H     H_    0.433097 0.757727 0.180042 0.126828
H48   H     H_    0.437151 0.244851 0.180099 0.124552
H49   H     H_    0.933100 0.257725 0.180043 0.126828
H50   H     H_    0.937153 0.744853 0.180097 0.124552
H51   H     H_    0.497419 0.832356 0.173263 0.088189
H52   H     H_    0.809781 0.665114 0.824315 0.114106
H53   H     H_    0.496454 0.167700 0.173281 0.088091
H54   H     H_    0.997417 0.332357 0.173264 0.088190
H55   H     H_    0.996454 0.667700 0.173280 0.088088
H56   H     H_    0.298385 0.017546 0.276945 0.137842
H57   H     H_    0.595895 0.981922 0.467835 0.136370
H58   H     H_    0.798351 0.517362 0.276935 0.137852
H59   H     H_    0.095962 0.482109 0.467865 0.136362
H60   H     H_    0.474340 0.088788 0.264935 0.106302
H61   H     H_    0.473089 0.910918 0.262304 0.108095
H62   H     H_    0.974341 0.588791 0.264930 0.106312
H63   H     H_    0.810128 0.334613 0.824453 0.113884
H64   H     H_    0.973103 0.410921 0.262327 0.108091
H65   H     H_    0.211432 0.910635 0.742940 0.097664
H66   H     H_    0.210584 0.089213 0.740759 0.093685
H67   H     H_    0.711431 0.410635 0.742937 0.097661
H68   H     H_    0.710584 0.589213 0.740757 0.093685
H69   H     H_    0.451015 0.088518 0.675759 0.096063
H70   H     H_    0.450343 0.911481 0.675395 0.096713
H71   H     H_    0.951027 0.588518 0.675762 0.096066
H72   H     H_    0.950363 0.411481 0.675404 0.096713
H73   H     H_    0.766790 0.911210 0.329752 0.098883
H74   H     H_    0.031644 0.941550 0.714126 0.178013
H75   H     H_    0.768534 0.088489 0.330060 0.098735
H76   H     H_    0.266786 0.411210 0.329755 0.098880
H77   H     H_    0.268531 0.588488 0.330062 0.098735
H78   H     H_    0.745258 0.129573 0.178035 0.094066
H79   H     H_    0.745937 0.870764 0.178086 0.085389
H80   H     H_    0.245259 0.629572 0.178036 0.094066
H81   H     H_    0.245937 0.370765 0.178087 0.085388
H82   H     H_    0.573866 0.867194 0.826841 0.093921
H83   H     H_    0.573282 0.133600 0.826859 0.095053
H84   H     H_    0.073866 0.367191 0.826843 0.093932
H85   H     H_    0.021229 0.046016 0.716549 0.174584
H86   H     H_    0.073282 0.633602 0.826860 0.095052
H87   H     H_    0.057807 0.908676 0.628126 0.140331
H88   H     H_    0.056930 0.089637 0.650825 0.145065
H89   H     H_    0.557804 0.408675 0.628134 0.140330
H90   H     H_    0.556931 0.589638 0.650818 0.145064
H91   H     H_    0.807970 0.853382 0.510842 0.254774
H92   H     H_    0.910175 0.858259 0.651264 0.269585
H93   H     H_    0.793721 0.872856 0.616572 0.259931
H94   H     H_    0.878032 0.959065 0.649439 0.195006
H95   H     H_    0.779953 0.954178 0.508347 0.191196
H96   H     H_    0.531643 0.441554 0.714133 0.178013
H97   H     H_    0.911125 0.144787 0.643711 0.270180
H98   H     H_    0.816939 0.151407 0.499841 0.253046
H99   H     H_    0.789649 0.136814 0.596621 0.262282
H100  H     H_    0.774565 0.052569 0.494276 0.197510
H101  H     H_    0.863735 0.046664 0.637119 0.198809
H102  H     H_    0.307967 0.353384 0.510857 0.254767
H103  H     H_    0.410173 0.358263 0.651278 0.269575
H104  H     H_    0.293719 0.372862 0.616587 0.259938
H105  H     H_    0.378031 0.459070 0.649447 0.194999
H106  H     H_    0.279951 0.454182 0.508356 0.191196
H107  H     H_    0.521232 0.546020 0.716550 0.174586
H108  H     H_    0.411129 0.644792 0.643708 0.270180
H109  H     H_    0.316940 0.651410 0.499838 0.253044
H110  H     H_    0.289654 0.636820 0.596622 0.262282
H111  H     H_    0.274566 0.552572 0.494281 0.197494
H112  H     H_    0.363738 0.546669 0.637124 0.198803
H113  H     H_    0.987076 0.955111 0.243185 0.260739
H114  H     H_    0.097801 0.950688 0.377399 0.264209
H115  H     H_    0.030460 0.889504 0.308537 0.261956
H116  H     H_    0.999635 0.906123 0.437511 0.191517
H117  H     H_    0.897199 0.928056 0.310194 0.200219
H118  H     H_    0.908471 0.909092 0.487512 0.126843
H119  H     H_    0.899330 0.123091 0.347290 0.249955
H120  H     H_    0.023492 0.115182 0.456658 0.264958
H121  H     H_    0.985616 0.128364 0.320283 0.268330
H122  H     H_    0.013785 0.037612 0.327967 0.214374
H123  H     H_    0.890469 0.036315 0.263290 0.193775
H124  H     H_    0.487061 0.455098 0.243183 0.260743
H125  H     H_    0.597788 0.450677 0.377394 0.264251
H126  H     H_    0.530446 0.389491 0.308540 0.261965
H127  H     H_    0.499634 0.406118 0.437524 0.191515
H128  H     H_    0.397192 0.428046 0.310206 0.200218
N1    N     N_R   0.392140 0.102630 0.941800 -0.038773
N2    N     N_R   0.525160 0.972040 0.206160 -0.042898
N3    N     N_R   0.025160 0.527960 0.206160 -0.043750
N4    N     N_R   0.025160 0.472040 0.206160 -0.042901
N5    N     N_R   0.317870 0.971120 0.792790 -0.040002
N6    N     N_R   0.317870 0.028880 0.792790 -0.039294
N7    N     N_R   0.817870 0.471120 0.792790 -0.040000
N8    N     N_R   0.817870 0.528880 0.792790 -0.039295
N9    N     N_R   0.473480 0.027920 0.793480 -0.038119
N10   N     N_R   0.473480 0.972080 0.793480 -0.038104
N11   N     N_R   0.973480 0.527920 0.793480 -0.038113
N12   N     N_R   0.392140 0.897370 0.941800 -0.038725
N13   N     N_R   0.973480 0.472080 0.793480 -0.038098
N14   N     N_R   0.681610 0.971120 0.207570 -0.030754
N15   N     N_R   0.681610 0.028880 0.207570 -0.036172
N16   N     N_R   0.181610 0.471120 0.207570 -0.030755
N17   N     N_R   0.181610 0.528880 0.207570 -0.036173
N18   N     N_R   0.605410 0.102620 0.056870 -0.040211
N19   N     N_R   0.605410 0.897380 0.056870 -0.039354
N20   N     N_R   0.105410 0.602620 0.056870 -0.040212
N21   N     N_R   0.105410 0.397380 0.056870 -0.039353
N22   N     N_R   0.549680 0.896430 0.944180 -0.039673
N23   N     N_R   0.892140 0.602630 0.941800 -0.038773
N24   N     N_R   0.549680 0.103570 0.944180 -0.039218
N25   N     N_R   0.049680 0.396430 0.944180 -0.039672
N26   N     N_R   0.049680 0.603570 0.944180 -0.039218
N27   N     N_R   0.892140 0.397370 0.941800 -0.038726
N28   N     N_R   0.450890 0.896450 0.057150 -0.037263
N29   N     N_R   0.450890 0.103550 0.057150 -0.037721
N30   N     N_R   0.950890 0.396450 0.057150 -0.037265
N31   N     N_R   0.950890 0.603550 0.057150 -0.037720
N32   N     N_R   0.525160 0.027960 0.206160 -0.043744
Ni1   Ni    Ni4+2 0.433410 0.064680 0.868830 0.210272
Ni2   Ni    Ni4+2 0.433410 0.935320 0.868830 0.210280
Ni3   Ni    Ni4+2 0.933410 0.564680 0.868830 0.210273
Ni4   Ni    Ni4+2 0.933410 0.435320 0.868830 0.210281
Ni5   Ni    Ni4+2 0.565650 0.934380 0.131170 0.208461
Ni6   Ni    Ni4+2 0.565650 0.065620 0.131170 0.207433
Ni7   Ni    Ni4+2 0.065650 0.434380 0.131170 0.208464
Ni8   Ni    Ni4+2 0.065650 0.565620 0.131170 0.207429

loop_
_geom_bond_atom_site_label_1
_geom_bond_atom_site_label_2
_ccdc_geom_bond_type
C11   H109  S    
N19   N22   A    
C63   C65   A    
C122  N14   A    
C70   H78   S    
C11   H108  S    
C59   N27   A    
C38   C103  A    
C39   C50   S    
C57   C111  A    
C105  C116  A    
C25   H18   S    
C107  H67   S    
C20   H5    S    
C72   C76   A    
C85   C112  S    
N23   Ni3   S    
C35   C81   A    
C13   N25   A    
C90   C95   A    
C81   H79   S    
C47   H35   S    
C16   H121  S    
C44   H2    S    
C10   H111  S    
C24   C36   A    
C49   C60   S    
C27   C88   S    
N6    Ni1   S    
N14   Ni5   S    
C25   H19   S    
C23   H15   S    
C76   C78   A    
C80   H49   S    
C20   H4    S    
C99   N2    A    
C87   C91   A    
C14   H115  S    
C92   N20   A    
C98   N32   A    
C43   C52   S    
C70   N18   A    
C119  N10   A    
C30   C119  A    
C3    C33   A    
C18   H125  S    
C74   H43   S    
C15   C16   S    
C5    H91   S    
C6    H101  S    
C40   C50   S    
C81   N19   A    
C7    H99   S    
C18   H126  S    
C54   C110  A    
C35   C114  A    
C107  N7    A    
N5    N6    A    
C42   C46   S    
N27   N30   A    
C64   C86   A    
C89   C94   A    
C26   H22   S    
C118  H69   S    
N9    N10   A    
C8    C45   S    
C32   C52   S    
N13   Ni4   S    
C1    C109  A    
C91   C96   A    
C93   H57   S    
C67   H40   S    
C5    H93   S    
C36   C72   S    
C82   H50   S    
C9    H102  S    
N1    N29   A    
C8    C9    S    
C49   C51   S    
C65   H38   S    
C10   C46   S    
C33   C124  A    
N20   N26   A    
C49   H36   S    
C59   H63   S    
C75   H44   S    
N22   Ni2   S    
C97   C115  S    
C101  H64   S    
N23   N31   A    
C34   C70   A    
C121  H72   S    
C21   C61   S    
C92   H80   S    
C42   C51   S    
C29   H31   S    
C12   C58   S    
C42   H107  S    
C36   C92   A    
C11   H110  S    
C23   C63   S    
N32   Ni6   S    
C27   H25   S    
C6    C44   S    
C55   C109  A    
N28   Ni5   S    
C28   H30   S    
C55   H53   S    
C32   C123  A    
C40   H88   S    
C26   H23   S    
C100  C115  A    
C8    H106  S    
C78   C83   A    
C21   H9    S    
C29   C90   S    
C53   C60   S    
C1    N1    A    
C17   C18   S    
C47   C50   S    
N9    Ni1   S    
N24   Ni1   S    
C77   C79   A    
C43   H118  S    
C19   H7    S    
N25   Ni4   S    
C46   H24   S    
C83   C110  S    
C120  H71   S    
N11   Ni3   S    
N26   Ni3   S    
N18   N24   A    
C23   H16   S    
C67   C72   A    
C101  N4    A    
C33   C53   S    
C103  N21   A    
N17   Ni8   S    
C61   C83   A    
C121  N13   A    
C14   H114  S    
C7    H98   S    
C24   H86   S    
N21   Ni7   S    
C26   C87   S    
C98   C113  A    
C29   H33   S    
C30   C118  A    
C94   C97   A    
C68   C73   A    
C82   C86   A    
C5    H92   S    
C2    N24   A    
C40   H85   S    
C17   H127  S    
N21   N25   A    
C114  H82   S    
C124  N16   A    
C106  C116  A    
C25   C64   S    
C64   C66   A    
C79   H48   S    
C26   H21   S    
C100  H62   S    
C16   H119  S    
C21   H8    S    
C99   C113  A    
C80   C85   A    
C42   H90   S    
C56   N30   A    
C105  H65   S    
C106  N6    A    
C22   C62   S    
C87   C102  A    
C41   H89   S    
C8    H105  S    
C61   C67   A    
C88   C102  A    
C66   C71   A    
C15   H122  S    
C12   H116  S    
C4    H95   S    
C91   H56   S    
C30   C102  S    
C50   C116  S    
C45   H13   S    
C59   C112  A    
C13   C38   A    
C13   H84   S    
C39   H87   S    
C69   C74   A    
C9    H103  S    
C6    H100  S    
C37   H41   S    
C41   C45   S    
N16   Ni7   S    
C34   C69   S    
C90   C104  A    
C37   C110  A    
C28   C89   S    
C31   C121  A    
C52   C58   S    
C20   H3    S    
C29   H32   S    
C16   H120  S    
N10   Ni2   S    
C39   H74   S    
C15   H123  S    
C28   H28   S    
C27   H26   S    
C4    H94   S    
C10   C11   S    
C89   C104  A    
C28   H29   S    
C101  C115  A    
C15   C58   S    
C96   C113  S    
C108  N8    A    
C25   H20   S    
C106  H66   S    
C41   C51   S    
C19   C20   S    
N7    N8    A    
C100  N3    A    
C21   H10   S    
C99   H61   S    
C41   H96   S    
C114  N22   A    
C32   C122  A    
C57   H55   S    
C123  H75   S    
C65   C69   A    
C62   C84   A    
C88   C93   A    
C27   H27   S    
N3    Ni8   S    
C54   H51   S    
C49   H37   S    
C108  C117  A    
N15   Ni6   S    
C23   H17   S    
C103  H81   S    
C3    H77   S    
C1    H1    S    
C4    C5    S    
C44   C52   S    
N18   Ni6   S    
C14   H113  S    
C39   C43   S    
C95   C97   A    
C75   C82   A    
C6    C7    S    
C4    C43   S    
C105  N5    A    
N31   Ni8   S    
C93   C96   A    
N7    Ni4   S    
C124  H76   S    
C17   H128  S    
C10   H112  S    
C84   C109  S    
C3    N17   A    
C62   C68   A    
C22   H11   S    
C63   C85   A    
C119  H70   S    
N12   Ni2   S    
N27   Ni4   S    
N2    Ni5   S    
C86   C111  S    
C12   C14   S    
C37   N12   A    
N11   N13   A    
C31   C104  S    
C120  N11   A    
C71   C75   A    
C57   N31   A    
C56   H54   S    
C95   H59   S    
C22   H14   S    
C79   C84   A    
C118  N9    A    
C24   N26   A    
C19   H6    S    
C7    H97   S    
C45   C53   S    
C46   C53   S    
C78   H47   S    
N12   N28   A    
C56   C112  A    
C66   H39   S    
C38   C73   S    
C9    H104  S    
N1    Ni1   S    
C122  H73   S    
C98   H60   S    
C76   H45   S    
C2    C34   A    
C54   N28   A    
C31   C120  A    
N8    Ni3   S    
N14   N15   A    
C17   C60   S    
C35   C71   S    
C18   H124  S    
C48   N23   A    
C123  N15   A    
N30   Ni7   S    
C40   C44   S    
C48   C111  A    
N5    Ni2   S    
N16   N17   A    
C12   H117  S    
C107  C117  A    
C22   H12   S    
C55   N29   A    
C51   C117  S    
C73   C77   A    
C108  H68   S    
C19   C60   S    
C74   C80   A    
C2    H83   S    
C94   H58   S    
C48   H52   S    
C77   H46   S    
N19   Ni5   S    
N4    Ni7   S    
N20   Ni8   S    
N3    N4    A    
N29   Ni6   S    
C68   H42   S    
C47   C58   S    
C47   H34   S    
N2    N32   A    
