data_mof_unit_51679.cif
_audit_creation_date              2013-03-05T16:23:00-0500
_audit_creation_method            fapswitch 2.2
_symmetry_space_group_name_H-M    P1
_symmetry_Int_Tables_number       1
_space_group_crystal_system       triclinic
_cell_length_a                    23.156986
_cell_length_b                    10.523823
_cell_length_c                    9.755984
_cell_angle_alpha                 89.033926
_cell_angle_beta                  88.161405
_cell_angle_gamma                 89.630749
_cell_volume                      2375.93025739

loop_
_atom_site_label
_atom_site_type_symbol
_atom_site_description
_atom_site_fract_x
_atom_site_fract_y
_atom_site_fract_z
_atom_type_partial_charge
O1    O     O_R   0.500000 0.313960 0.616610 -0.585150
O2    O     O_R   0.500000 0.686040 0.383390 -0.592689
O3    O     O_R   0.500030 0.313950 0.383350 -0.618807
O4    O     O_R   0.499970 0.686050 0.616650 -0.618503
C1    C     C_R   0.501333 0.257913 0.500951 0.934888
C2    C     C_R   0.498804 0.742219 0.498932 0.957913
O5    O     O_R   0.416140 0.499970 0.616650 -0.587974
O6    O     O_R   0.583860 0.500030 0.383350 -0.629049
O7    O     O_R   0.416170 0.499960 0.383400 -0.567087
O8    O     O_R   0.583830 0.500040 0.616600 -0.577380
C3    C     C_R   0.388682 0.497039 0.502195 0.927265
C4    C     C_R   0.610751 0.499458 0.498101 0.984021
Zn1   Zn    Zn3+2 0.499980 0.500010 0.655740 0.997951
Zn2   Zn    Zn3+2 0.500020 0.499990 0.344260 0.990128
C5    C     C_R   0.879721 0.670311 0.413697 0.616556
C6    C     C_R   0.111625 0.542523 0.643075 0.605586
N1    N     N_R   0.847618 0.628494 0.525624 -0.329492
N2    N     N_R   0.145144 0.591188 0.536331 -0.323761
C7    C     C_R   0.871985 0.611544 0.650671 0.613305
C8    C     C_R   0.121367 0.669120 0.438769 0.624475
C9    C     C_R   0.932385 0.604968 0.659463 -0.124174
C10   C     C_R   0.060903 0.679083 0.430316 -0.130578
C11   C     C_R   0.966184 0.643089 0.542647 -0.034964
C12   C     C_R   0.026783 0.633758 0.543306 -0.041297
C13   C     C_R   0.939402 0.685415 0.422778 -0.064148
C14   C     C_R   0.053053 0.573501 0.654771 -0.063171
C15   C     C_R   0.960188 0.556667 0.777094 0.321653
C16   C     C_R   0.033346 0.730428 0.313707 0.327049
C17   C     C_R   0.019961 0.538920 0.772008 -0.143698
C18   C     C_R   0.973013 0.731831 0.311088 -0.135545
O9    O     O_2   0.854462 0.692188 0.292727 -0.519212
O10   O     O_2   0.134238 0.461028 0.735548 -0.529561
O11   O     O_2   0.837507 0.597367 0.763856 -0.475056
O12   O     O_2   0.156200 0.736062 0.351279 -0.474562
H1    H     H_    0.040269 0.495066 0.859663 0.233746
H2    H     H_    0.952577 0.764919 0.218576 0.233381
C19   C     C_R   0.231277 0.515949 0.399826 0.252736
C20   C     C_R   0.770866 0.465934 0.550622 0.274863
C21   C     C_R   0.291559 0.496146 0.389916 0.174039
C22   C     C_R   0.711880 0.434387 0.549064 0.123721
C23   C     C_R   0.324784 0.503273 0.508737 -0.332409
C24   C     C_R   0.672564 0.523115 0.494340 -0.306307
C25   C     C_R   0.296063 0.520396 0.636522 0.390319
C26   C     C_R   0.691985 0.640197 0.439673 0.382834
C27   C     C_R   0.239244 0.562545 0.641511 -0.262591
C28   C     C_R   0.749106 0.675689 0.455370 -0.223170
H3    H     H_    0.220380 0.590238 0.739542 0.232928
H4    H     H_    0.762633 0.770378 0.423885 0.205382
C29   C     C_R   0.205744 0.558580 0.524996 0.066779
C30   C     C_R   0.788791 0.589853 0.509984 0.072960
C31   C     C_3   0.518579 0.035054 0.621092 0.485968
C32   C     C_3   0.482706 0.965576 0.377872 0.497113
C33   C     C_3   0.554793 0.951957 0.519906 -0.528198
C34   C     C_3   0.446253 0.047991 0.478457 -0.538693
H5    H     H_    0.597656 0.906585 0.533758 0.205519
H6    H     H_    0.403373 0.092175 0.461246 0.184556
C35   C     C_3   0.499192 0.876789 0.496857 -0.234021
C36   C     C_3   0.501699 0.123534 0.502362 -0.241155
C37   C     C_3   0.463888 0.958862 0.597607 0.455649
C38   C     C_3   0.537266 0.041865 0.401553 0.434482
C39   C     C_3   0.465872 0.413959 0.052927 -0.053563
C40   C     C_3   0.534175 0.586213 0.947033 -0.073991
C41   C     C_3   0.516976 0.391477 0.952026 -0.089768
C42   C     C_3   0.483083 0.608685 0.047995 -0.074955
H7    H     H_    0.530074 0.299807 0.906207 0.192422
H8    H     H_    0.468583 0.699771 0.093477 0.184917
H9    H     H_    0.437969 0.340226 0.102853 0.164317
H10   H     H_    0.562765 0.658735 0.897041 0.129612
N3    N     N_3   0.499960 0.500030 0.863290 -0.086294
N4    N     N_3   0.500040 0.499970 0.136710 -0.081132
C43   C     C_3   0.448878 0.522722 0.955119 -0.034847
C44   C     C_3   0.551225 0.477588 0.044936 -0.070389
H11   H     H_    0.406046 0.544098 0.912879 0.201064
H12   H     H_    0.594498 0.460644 0.087255 0.126980
N5    N     N_R   0.928722 0.513332 0.897627 0.252630
O13   O     O_R   0.897655 0.411073 0.892493 -0.247781
O14   O     O_R   0.942210 0.556048 0.016728 -0.332544
N6    N     N_R   0.065080 0.768027 0.191173 0.248249
O15   O     O_R   0.096498 0.684477 0.125536 -0.267914
O16   O     O_R   0.052222 0.874468 0.129262 -0.325205
N7    N     N_R   0.195753 0.484861 0.286861 0.250275
O17   O     O_R   0.149093 0.418199 0.308260 -0.337852
O18   O     O_R   0.210156 0.520642 0.162197 -0.256444
N8    N     N_R   0.812478 0.373609 0.595545 0.253313
O19   O     O_R   0.859256 0.352339 0.521806 -0.344342
O20   O     O_R   0.804610 0.313185 0.712055 -0.241475
N9    N     N_R   0.317535 0.455011 0.263213 0.251406
O21   O     O_R   0.334473 0.337537 0.250964 -0.441046
O22   O     O_R   0.330491 0.537804 0.166751 -0.370640
N10   N     N_R   0.692776 0.310934 0.596253 0.203323
O23   O     O_R   0.719492 0.208990 0.554071 -0.382948
O24   O     O_R   0.651523 0.300126 0.689263 -0.401387
O25   O     O_3   0.321578 0.484357 0.757279 -0.595327
C45   C     C_3   0.304951 0.357284 0.787853 0.178512
H13   H     H_    0.305880 0.296208 0.695145 0.126604
H14   H     H_    0.260590 0.356132 0.835256 0.209955
C46   C     C_3   0.346181 0.297091 0.888139 -0.791077
H15   H     H_    0.345612 0.352306 0.983599 0.307408
H16   H     H_    0.332499 0.198284 0.913420 0.219642
H17   H     H_    0.390664 0.294834 0.842080 0.247599
O26   O     O_3   0.653996 0.723314 0.377582 -0.618078
C47   C     C_3   0.664163 0.717842 0.234158 0.134562
H18   H     H_    0.662849 0.618107 0.197445 0.150743
H19   H     H_    0.706817 0.760131 0.204555 0.174523
C48   C     C_3   0.617662 0.793056 0.161856 -0.790543
H20   H     H_    0.619490 0.893857 0.191584 0.290389
H21   H     H_    0.624855 0.786983 0.049149 0.187998
H22   H     H_    0.574382 0.754556 0.189974 0.288930
O27   O     O_3   0.533801 0.081898 0.750034 -0.592189
C49   C     C_3   0.582641 0.015566 0.796983 0.114097
H23   H     H_    0.620308 0.029312 0.724537 0.193305
H24   H     H_    0.573086 0.912361 0.810264 0.136940
C50   C     C_3   0.599723 0.067105 0.934210 -0.764882
H25   H     H_    0.563632 0.056915 0.010913 0.270231
H26   H     H_    0.637808 0.013469 0.970588 0.216855
H27   H     H_    0.611760 0.168684 0.923228 0.278765
O28   O     O_3   0.466064 0.918896 0.250509 -0.607353
C51   C     C_3   0.445096 0.019995 0.169086 0.068515
H28   H     H_    0.476586 0.099380 0.159528 0.180212
H29   H     H_    0.403396 0.056450 0.213044 0.177169
C52   C     C_3   0.434557 0.971724 0.026250 -0.723196
H30   H     H_    0.401205 0.896401 0.032106 0.256728
H31   H     H_    0.419496 0.050978 0.959631 0.237169
H32   H     H_    0.475035 0.931438 0.980466 0.272876
O29   O     O_3   0.428595 0.912234 0.707669 -0.602893
C53   C     C_3   0.375630 0.869820 0.658125 0.092139
H33   H     H_    0.382597 0.791601 0.583890 0.137343
H34   H     H_    0.351616 0.949101 0.608541 0.154471
C54   C     C_3   0.338118 0.820341 0.777779 -0.710977
H35   H     H_    0.329007 0.897785 0.851414 0.245600
H36   H     H_    0.296444 0.786118 0.739807 0.220731
H37   H     H_    0.360389 0.740874 0.830920 0.268576
O30   O     O_3   0.572975 0.090175 0.293074 -0.641002
C55   C     C_3   0.623870 0.139683 0.346427 0.137911
H38   H     H_    0.649964 0.062810 0.394388 0.191595
H39   H     H_    0.613653 0.214109 0.423063 0.160236
C56   C     C_3   0.660364 0.200122 0.230986 -0.750752
H40   H     H_    0.633996 0.269142 0.172524 0.242083
H41   H     H_    0.697454 0.250736 0.273860 0.245333
H42   H     H_    0.677317 0.125769 0.160946 0.253168

loop_
_geom_bond_atom_site_label_1
_geom_bond_atom_site_label_2
_geom_bond_distance
_ccdc_geom_bond_type
C39   N4    1.479585 S    
N9    O21   1.300856 A    
C41   H7    1.106603 S    
O25   C45   1.418232 S    
C15   C17   1.394942 A    
Zn2   N4    2.024842 S    
C48   H20   1.105878 S    
C21   N9    1.429757 S    
O7    Zn2   1.966845 S    
C55   C56   1.519489 S    
N7    O17   1.301372 A    
C21   C23   1.415027 A    
O5    C3    1.303481 A    
C48   H21   1.109665 S    
O26   C47   1.413519 S    
C1    C36   1.413994 S    
O1    C1    1.281414 A    
C7    C9    1.405227 A    
N8    O20   1.301302 A    
C50   H25   1.108262 S    
N6    O16   1.301031 A    
C35   C37   1.532471 S    
C36   C38   1.533531 S    
C47   C48   1.517413 S    
C39   C41   1.534587 S    
C27   H3    1.082312 S    
O4    Zn1   1.988327 S    
N3    C43   1.481375 S    
C49   H23   1.113509 S    
C52   H32   1.110093 S    
C4    C24   1.453676 S    
C32   C38   1.527191 S    
C49   H24   1.114407 S    
C46   H16   1.110417 S    
C51   H28   1.113221 S    
C41   N3    1.480711 S    
C26   C28   1.390660 A    
C40   C42   1.534727 S    
C11   C12   1.406292 A    
C6    O10   1.349846 S    
C42   N4    1.481505 S    
C16   N6    1.434251 S    
C50   H27   1.109058 S    
C8    O12   1.348475 S    
C32   O28   1.409797 S    
C39   C43   1.535243 S    
C22   C24   1.410402 A    
C9    C15   1.418962 A    
C31   O27   1.414688 S    
C10   C16   1.419449 A    
C23   C25   1.407780 A    
C2    C35   1.416080 S    
C19   N7    1.439486 S    
O2    C2    1.281092 A    
C24   C26   1.405166 A    
C15   N5    1.432795 S    
N7    O18   1.300913 A    
C33   C38   1.543213 S    
C32   C34   1.547221 S    
C46   H15   1.105665 S    
C34   H6    1.110186 S    
C34   C37   1.544839 S    
C33   H5    1.109854 S    
C6    C14   1.394488 A    
C48   H22   1.108026 S    
C28   H4    1.083051 S    
C42   C43   1.532895 S    
C47   H18   1.115635 S    
N8    O19   1.301296 A    
C44   H12   1.108225 S    
C7    O11   1.348496 S    
C43   H11   1.106536 S    
C33   C35   1.540074 S    
N6    O15   1.301282 A    
N1    C7    1.368967 A    
C55   H39   1.111053 S    
O6    Zn2   1.990556 S    
C45   C46   1.517022 S    
C40   N3    1.481091 S    
C31   C33   1.552112 S    
C51   C52   1.518806 S    
C42   H8    1.108668 S    
C47   H19   1.113612 S    
N5    O13   1.300891 A    
C19   C29   1.418032 A    
C39   H9    1.109227 S    
N10   O24   1.300460 A    
C27   C29   1.397941 A    
O6    C4    1.298289 A    
C40   C44   1.535104 S    
C31   C36   1.532832 S    
C45   H14   1.112996 S    
C25   C27   1.385437 A    
O7    C3    1.304238 A    
C49   C50   1.517968 S    
C52   H30   1.109794 S    
O3    Zn2   1.988327 S    
O8    C4    1.295813 A    
O4    C2    1.283736 A    
C8    C10   1.408365 A    
C9    C11   1.415535 A    
O29   C53   1.410524 S    
C10   C12   1.413574 A    
C31   C37   1.528826 S    
C46   H17   1.110813 S    
C54   H35   1.110235 S    
C34   C36   1.540635 S    
C13   C18   1.401526 A    
C5    N1    1.369168 A    
C28   C30   1.396031 A    
C53   H34   1.112223 S    
C20   N8    1.437117 S    
C56   H41   1.110324 S    
C12   C14   1.403206 A    
O3    C1    1.282261 A    
O8    Zn1   1.966847 S    
N1    C30   1.437673 S    
C26   O26   1.382886 S    
C5    O9    1.349579 S    
C55   H38   1.112492 S    
C20   C30   1.417441 A    
C40   H10   1.109926 S    
C37   O29   1.411672 S    
C56   H40   1.108330 S    
C17   H1    1.084032 S    
C53   C54   1.519417 S    
C18   H2    1.083736 S    
C54   H37   1.109565 S    
C16   C18   1.398155 A    
C19   C21   1.410574 A    
O27   C49   1.410142 S    
C20   C22   1.408417 A    
N10   O23   1.301180 A    
O30   C55   1.409911 S    
Zn1   N3    2.024843 S    
C53   H33   1.113119 S    
C56   H42   1.109121 S    
C54   H36   1.109147 S    
C25   O25   1.381156 S    
C3    C23   1.480086 S    
N2    C8    1.372309 A    
C11   C13   1.405733 A    
C45   H13   1.117944 S    
O2    Zn2   2.001127 S    
C51   H29   1.112553 S    
C52   H31   1.110045 S    
C5    C13   1.397950 A    
C32   C35   1.534135 S    
O5    Zn1   1.990554 S    
O1    Zn1   2.001129 S    
C41   C44   1.534584 S    
C14   C17   1.400423 A    
C6    N2    1.372783 A    
N5    O14   1.300944 A    
N9    O22   1.300913 A    
N4    C44   1.482383 S    
C22   N10   1.438662 S    
O28   C51   1.410087 S    
C38   O30   1.411871 S    
N2    C29   1.443742 S    
C50   H26   1.108754 S    
