data_mof_unit_67618.cif
_audit_creation_date              2013-03-05T16:14:30-0500
_audit_creation_method            fapswitch 2.2
_symmetry_space_group_name_H-M    P1
_symmetry_Int_Tables_number       1
_space_group_crystal_system       triclinic
_cell_length_a                    10.684573
_cell_length_b                    10.699712
_cell_length_c                    9.441313
_cell_angle_alpha                 89.446929
_cell_angle_beta                  91.152437
_cell_angle_gamma                 89.141132
_cell_volume                      1078.95534747

loop_
_atom_site_label
_atom_site_type_symbol
_atom_site_description
_atom_site_fract_x
_atom_site_fract_y
_atom_site_fract_z
_atom_type_partial_charge
O1    O     O_R   0.500060 0.316850 0.620870 -0.549846
O2    O     O_R   0.499940 0.683150 0.379130 -0.549856
O3    O     O_R   0.500000 0.316860 0.379090 -0.593325
O4    O     O_R   0.500000 0.683140 0.620910 -0.593360
C1    C     C_R   0.501370 0.259416 0.500741 0.787156
C2    C     C_R   0.498625 0.740583 0.499257 0.787196
O5    O     O_R   0.316880 0.499960 0.620870 -0.545421
O6    O     O_R   0.683120 0.500040 0.379130 -0.545453
O7    O     O_R   0.316830 0.499970 0.379090 -0.602622
O8    O     O_R   0.683170 0.500030 0.620910 -0.602613
C3    C     C_R   0.259668 0.498266 0.498661 0.799596
C4    C     C_R   0.740333 0.501743 0.501338 0.799635
Cu1   Cu    Cu3+1 0.500030 0.499990 0.643150 0.956102
Cu2   Cu    Cu3+1 0.499970 0.500010 0.356850 0.956105
C5    C     C_3   0.046650 0.465731 0.628109 -0.204911
C6    C     C_3   0.953357 0.534271 0.371873 -0.204948
C7    C     C_3   0.959955 0.385837 0.533708 0.092602
C8    C     C_3   0.040050 0.614179 0.466269 0.092740
H1    H     H_    0.086494 0.436880 0.732895 0.173746
H2    H     H_    0.913496 0.562963 0.267039 0.173753
C9    C     C_3   0.877052 0.501805 0.504112 -0.100869
C10   C     C_3   0.122952 0.498215 0.495878 -0.100855
C11   C     C_3   0.962838 0.582210 0.597494 0.092975
C12   C     C_3   0.037180 0.417810 0.402490 0.092848
C13   C     C_3   0.545339 0.036251 0.624808 0.161587
C14   C     C_3   0.454659 0.963742 0.375180 0.161647
C15   C     C_3   0.617549 0.954512 0.519530 -0.187059
C16   C     C_3   0.382441 0.045479 0.480450 -0.187055
H3    H     H_    0.712913 0.914115 0.535712 0.113669
H4    H     H_    0.287047 0.085801 0.464229 0.113855
C17   C     C_3   0.498341 0.877625 0.497708 -0.039356
C18   C     C_3   0.501650 0.122372 0.502281 -0.039373
C19   C     C_3   0.426453 0.957956 0.604235 -0.199846
C20   C     C_3   0.573542 0.042039 0.395752 -0.199773
H5    H     H_    0.365717 0.920441 0.687988 0.135148
H6    H     H_    0.634268 0.079554 0.311989 0.135134
C21   C     C_3   0.576259 0.580716 0.050478 0.383991
C22   C     C_3   0.423739 0.419287 0.949525 0.384113
C23   C     C_3   0.466649 0.608654 0.947356 -0.112505
C24   C     C_3   0.533350 0.391346 0.052645 -0.112508
H7    H     H_    0.438901 0.700317 0.899341 0.133380
H8    H     H_    0.561100 0.299683 0.100658 0.133348
N1    N     N_3   0.500090 0.499970 0.858290 -0.174405
N2    N     N_3   0.499910 0.500030 0.141710 -0.174377
C25   C     C_3   0.610492 0.472871 0.952191 -0.122726
C26   C     C_3   0.389510 0.527132 0.047810 -0.122565
H9    H     H_    0.703609 0.450315 0.908106 0.132257
H10   H     H_    0.296395 0.549697 0.091894 0.132178
C27   C     C_3   0.912133 0.258986 0.582689 -0.423342
C28   C     C_3   0.020420 0.174650 0.636329 -0.310542
C29   C     C_3   0.973823 0.049908 0.690439 -0.877711
H11   H     H_    0.917392 0.064385 0.786249 0.259339
H12   H     H_    0.915808 0.003999 0.608236 0.257116
H13   H     H_    0.055338 0.988759 0.718810 0.253482
H14   H     H_    0.087344 0.158630 0.550224 0.209461
H15   H     H_    0.071350 0.219983 0.724903 0.252501
H16   H     H_    0.846104 0.274847 0.670329 0.193271
H17   H     H_    0.860661 0.213932 0.494055 0.186668
C30   C     C_3   0.087882 0.741046 0.417326 -0.423517
C31   C     C_3   0.979701 0.825129 0.362822 -0.310436
C32   C     C_3   0.026409 0.949674 0.308297 -0.877633
H18   H     H_    0.083165 0.996456 0.391007 0.257378
H19   H     H_    0.084186 0.934745 0.213577 0.259377
H20   H     H_    0.944905 0.010217 0.277959 0.253716
H21   H     H_    0.929164 0.779454 0.274195 0.252419
H22   H     H_    0.912415 0.841455 0.448528 0.209794
H23   H     H_    0.138867 0.786363 0.506143 0.186730
H24   H     H_    0.154359 0.725112 0.330132 0.193127
C33   C     C_3   0.920133 0.667795 0.716803 -0.375639
C34   C     C_3   0.031030 0.708781 0.810607 -0.360541
C35   C     C_3   0.985857 0.770979 0.944955 -0.838949
H25   H     H_    0.929253 0.856016 0.918928 0.272725
H26   H     H_    0.929882 0.704240 0.006682 0.285170
H27   H     H_    0.066939 0.797068 0.012224 0.232440
H28   H     H_    0.090265 0.627088 0.843504 0.226545
H29   H     H_    0.090552 0.774155 0.751179 0.211658
H30   H     H_    0.869808 0.750813 0.671410 0.177198
H31   H     H_    0.853603 0.614996 0.782691 0.222090
C36   C     C_3   0.080017 0.332401 0.283083 -0.375269
C37   C     C_3   0.969146 0.290844 0.189614 -0.360932
C38   C     C_3   0.014371 0.228999 0.055050 -0.838676
H32   H     H_    0.069457 0.296247 0.992963 0.284924
H33   H     H_    0.071872 0.144510 0.080847 0.273051
H34   H     H_    0.933329 0.202044 0.988225 0.232361
H35   H     H_    0.910200 0.225064 0.249224 0.211840
H36   H     H_    0.909333 0.372221 0.157016 0.226549
H37   H     H_    0.146120 0.385530 0.216981 0.222103
H38   H     H_    0.130876 0.249646 0.328327 0.176977
C39   C     C_3   0.597349 0.081413 0.766671 -0.405259
C40   C     C_3   0.656278 0.974611 0.855279 -0.341441
C41   C     C_3   0.696566 0.021858 0.000923 -0.847878
H39   H     H_    0.746909 0.111054 0.991347 0.238184
H40   H     H_    0.613112 0.038187 0.065958 0.257806
H41   H     H_    0.759239 0.952717 0.055679 0.284971
H42   H     H_    0.588882 0.897515 0.868241 0.239302
H43   H     H_    0.738974 0.936176 0.800436 0.219482
H44   H     H_    0.669405 0.152705 0.746308 0.193271
H45   H     H_    0.520324 0.126086 0.825771 0.251458
C42   C     C_3   0.402688 0.918540 0.233325 -0.405394
C43   C     C_3   0.344094 0.025356 0.144476 -0.341680
C44   C     C_3   0.303754 0.977950 0.998916 -0.848046
H46   H     H_    0.387220 0.960959 0.934107 0.257618
H47   H     H_    0.252889 0.889089 0.008696 0.238281
H48   H     H_    0.241533 0.047263 0.943809 0.285259
H49   H     H_    0.261489 0.064126 0.199201 0.219531
H50   H     H_    0.411709 0.102238 0.131384 0.239242
H51   H     H_    0.479677 0.873636 0.174390 0.251553
H52   H     H_    0.330468 0.847422 0.253697 0.193137
Br1   Br    Br    0.689932 0.701159 0.128402 -0.672703
Br2   Br    Br    0.309980 0.298905 0.871641 -0.672652

loop_
_geom_bond_atom_site_label_1
_geom_bond_atom_site_label_2
_geom_bond_distance
_ccdc_geom_bond_type
C6    C9    1.544411 S    
C15   H3    1.107990 S    
C11   C33   1.530913 S    
C33   H30   1.109447 S    
C36   H37   1.111034 S    
C38   H32   1.107335 S    
C40   H42   1.110582 S    
C23   H7    1.110222 S    
C5    H1    1.108383 S    
C42   H52   1.110047 S    
C43   H49   1.108842 S    
C44   H46   1.105438 S    
O1    C1    1.295387 A    
C27   H16   1.110752 S    
O4    Cu1   1.968848 S    
C32   H19   1.108313 S    
C37   H36   1.109726 S    
C30   H23   1.110149 S    
C14   C20   1.542110 S    
C5    C10   1.544377 S    
C17   C19   1.538914 S    
C34   C35   1.521849 S    
C22   Br2   1.925202 S    
C24   N2    1.485115 S    
C21   Br1   1.925208 S    
C32   H18   1.107110 S    
O6    C4    1.295243 A    
C14   C42   1.525328 S    
C1    C18   1.466213 S    
C13   C18   1.532977 S    
C5    C11   1.545272 S    
C2    C17   1.466194 S    
C31   H22   1.106571 S    
C30   C31   1.531735 S    
C6    C12   1.545191 S    
Cu1   Cu2   2.703033 S    
C33   H31   1.111063 S    
O2    C2    1.295369 A    
C36   H38   1.109376 S    
C38   H33   1.107740 S    
N2    C26   1.484640 S    
C25   H9    1.110289 S    
C15   C20   1.551581 S    
C24   C25   1.541675 S    
C26   H10   1.110285 S    
C7    C12   1.540801 S    
C15   C17   1.538069 S    
C29   H11   1.107985 S    
C16   C18   1.538126 S    
O4    C2    1.297153 A    
C7    C27   1.528163 S    
C41   H39   1.106342 S    
C35   H26   1.107267 S    
C23   N1    1.485123 S    
C13   C39   1.525395 S    
C4    C9    1.460497 S    
C28   H15   1.108215 S    
C27   H17   1.110105 S    
C8    C11   1.540762 S    
C39   H44   1.110086 S    
C31   C32   1.518843 S    
C29   H12   1.106799 S    
C18   C20   1.538961 S    
C32   H20   1.108834 S    
O5    C3    1.295243 A    
O7    Cu2   1.972206 S    
C37   H35   1.108459 S    
C30   H24   1.110796 S    
C41   H40   1.105462 S    
N1    C25   1.484656 S    
C12   C36   1.530899 S    
C42   C43   1.529955 S    
O5    Cu1   1.963948 S    
C6    H2    1.108396 S    
C28   C29   1.518971 S    
O7    C3    1.294389 A    
O3    Cu2   1.968848 S    
O8    C4    1.294408 A    
C23   C26   1.541645 S    
C31   H21   1.108241 S    
C44   H48   1.107488 S    
C9    C11   1.537315 S    
C34   H29   1.108442 S    
C10   C12   1.537264 S    
O1    Cu1   1.972817 S    
C21   C25   1.532338 S    
Cu1   N1    2.031188 S    
C38   H34   1.104554 S    
Cu2   N2    2.031190 S    
C44   H47   1.106209 S    
C5    C7    1.545436 S    
O6    Cu2   1.963948 S    
C8    C10   1.533846 S    
C43   H50   1.110558 S    
C37   C38   1.522101 S    
O3    C1    1.297144 A    
O8    Cu1   1.972207 S    
C16   C19   1.551611 S    
C35   H27   1.104698 S    
C40   H43   1.108848 S    
C13   C15   1.541268 S    
C42   H51   1.108523 S    
C3    C10   1.460464 S    
C14   C16   1.541255 S    
C28   H14   1.106327 S    
C39   H45   1.108578 S    
C29   H13   1.108399 S    
C21   N2    1.479093 S    
C16   H4    1.108023 S    
C22   N1    1.479103 S    
C21   C23   1.531952 S    
C41   H41   1.107603 S    
C22   C24   1.531953 S    
C40   C41   1.525723 S    
C24   H8    1.110224 S    
C43   C44   1.525742 S    
C19   H5    1.108977 S    
C20   H6    1.108989 S    
C33   C34   1.536720 S    
O2    Cu2   1.972817 S    
C7    C9    1.533863 S    
C22   C26   1.532322 S    
C36   C37   1.536586 S    
C8    C30   1.528242 S    
C14   C17   1.532941 S    
C35   H25   1.107804 S    
C6    C8    1.545494 S    
C27   C28   1.531573 S    
C34   H28   1.109643 S    
C39   C40   1.530012 S    
C13   C19   1.542140 S    
