data_mof_unit_40490.cif
_audit_creation_date              2012-12-11T17:47:21-0500
_audit_creation_method            fapswitch 2.2
_symmetry_space_group_name_H-M    P1
_symmetry_Int_Tables_number       1
_space_group_crystal_system       triclinic
_cell_length_a                    14.941233
_cell_length_b                    15.024525
_cell_length_c                    15.199331
_cell_angle_alpha                 110.50313
_cell_angle_beta                  109.115277
_cell_angle_gamma                 109.112956
_cell_volume                      2615.84033191

loop_
_atom_site_label
_atom_site_type_symbol
_atom_type_description
_atom_site_fract_x
_atom_site_fract_y
_atom_site_fract_z
_atom_type_partial_charge
Br1   Br    Br    0.556704 0.249625 0.120403 -0.659600
Br2   Br    Br    0.481730 0.787964 0.020154 -0.692465
Br3   Br    Br    0.425446 0.283116 0.831703 -0.690573
Br4   Br    Br    0.594716 0.722351 0.281218 -0.607281
C1    C     C_R   0.904961 0.194568 0.991113 -0.144432
C2    C     C_R   0.835699 0.965465 0.930621 -0.211250
C3    C     C_R   0.034463 0.009025 0.655089 -0.162837
C4    C     C_R   0.956509 0.018523 0.260063 -0.187970
C5    C     C_R   0.969693 0.960102 0.691079 -0.179173
C6    C     C_R   0.954222 0.995048 0.161978 -0.138770
C7    C     C_R   0.682592 0.235881 0.175384 0.375354
C8    C     C_R   0.383909 0.786601 0.901594 0.365952
C9    C     C_R   0.778713 0.323556 0.270984 -0.211753
C10   C     C_R   0.314853 0.689830 0.800137 -0.216777
C11   C     C_R   0.870105 0.311188 0.311351 0.061120
C12   C     C_R   0.030271 0.757043 0.943712 -0.124296
C13   C     C_R   0.238429 0.687941 0.714773 0.075159
C14   C     C_R   0.863192 0.209964 0.257028 -0.212667
C15   C     C_R   0.235288 0.784571 0.730906 -0.185266
C16   C     C_R   0.295962 0.805716 0.207212 -0.111424
C17   C     C_R   0.684859 0.247050 0.775689 -0.123866
C18   C     C_R   0.767766 0.123661 0.161030 -0.137532
C19   C     C_R   0.305044 0.881098 0.831852 -0.149341
C20   C     C_R   0.678029 0.136788 0.119753 -0.160909
C21   C     C_R   0.378128 0.881626 0.917604 -0.166425
C22   C     C_R   0.983030 0.408968 0.506015 -0.253223
C23   C     C_R   0.299081 0.868869 0.301662 0.060373
C24   C     C_R   0.145136 0.577107 0.516049 -0.243310
C25   C     C_R   0.069832 0.498480 0.606011 0.063134
C26   C     C_R   0.054811 0.489310 0.416351 0.064279
C27   C     C_R   0.152985 0.584138 0.612202 0.052135
C28   C     C_R   0.973113 0.403234 0.411285 0.050803
C29   C     C_R   0.013153 0.995975 0.801245 0.118200
C30   C     C_R   0.857849 0.911856 0.063632 0.091865
C31   C     C_R   0.191182 0.114908 0.835931 -0.124854
C32   C     C_R   0.766693 0.877619 0.163351 -0.062191
C33   C     C_R   0.079128 0.922007 0.388759 -0.145775
C34   C     C_R   0.676007 0.224583 0.674854 0.049119
C35   C     C_R   0.801251 0.037064 0.541003 -0.056234
C36   C     C_R   0.177267 0.989262 0.399161 -0.147889
C37   C     C_R   0.702446 0.033358 0.522648 -0.064000
C38   C     C_R   0.277460 0.018421 0.482723 0.121493
C39   C     C_R   0.666655 0.085651 0.470517 0.085218
C40   C     C_R   0.224184 0.408721 0.975532 -0.147617
C41   C     C_R   0.782913 0.590816 0.083516 -0.175849
C42   C     C_R   0.278170 0.993142 0.563652 -0.117224
C43   C     C_R   0.723111 0.128986 0.424568 -0.128955
C44   C     C_R   0.179854 0.929387 0.554438 -0.127532
C45   C     C_R   0.325300 0.501209 0.052302 0.093171
C46   C     C_R   0.821030 0.129564 0.441201 -0.127667
C47   C     C_R   0.080526 0.890610 0.465088 -0.147027
C48   C     C_R   0.862321 0.088025 0.503291 -0.149775
C49   C     C_R   0.475391 0.140960 0.564622 -0.221609
C50   C     C_R   0.476053 0.025739 0.376884 -0.183137
C51   C     C_R   0.575031 0.158551 0.568492 0.059082
C52   C     C_R   0.380219 0.986300 0.381449 0.042606
C53   C     C_R   0.574170 0.099954 0.471587 0.010619
C54   C     C_R   0.376961 0.051530 0.473197 0.019175
C55   C     C_R   0.144780 0.087523 0.727568 -0.057472
C56   C     C_R   0.686435 0.498587 0.042286 0.123516
C57   C     C_R   0.863531 0.957625 0.260418 -0.108916
C58   C     C_R   0.856260 0.894738 0.961749 0.029627
C59   C     C_R   0.941675 0.954899 0.840896 0.021826
C60   C     C_R   0.125446 0.069639 0.873232 -0.183448
C61   C     C_R   0.762942 0.854638 0.064297 -0.210315
C62   C     C_R   0.908152 0.842588 0.918856 0.061959
C63   C     C_R   0.897418 0.012791 0.890932 0.051432
C64   C     C_R   0.056029 0.590640 0.314202 -0.131438
C65   C     C_R   0.004974 0.410453 0.701825 -0.162924
C66   C     C_3   0.475348 0.409039 0.968343 0.376654
C67   C     C_R   0.038766 0.496887 0.320979 0.055402
C68   C     C_3   0.543895 0.590748 0.149109 0.383977
C69   C     C_3   0.447611 0.499168 0.972149 -0.188712
C70   C     C_3   0.572852 0.500269 0.146050 -0.176316
C71   C     C_3   0.425308 0.501610 0.064652 0.013990
C72   C     C_3   0.593884 0.497661 0.053138 0.024951
C73   C     C_3   0.451505 0.410143 0.059987 -0.202506
C74   C     C_3   0.566980 0.588361 0.057002 -0.230321
C75   C     C_R   0.314879 0.592585 0.067738 -0.057092
C76   C     C_R   0.693224 0.407665 0.992142 -0.073815
C77   C     C_R   0.976521 0.407729 0.217876 -0.111118
C78   C     C_R   0.058173 0.502189 0.697710 0.069132
C79   C     C_R   0.087046 0.592734 0.789874 -0.126618
C80   C     C_R   0.211453 0.800200 0.302767 -0.134278
C81   C     C_R   0.780720 0.261551 0.690278 -0.123158
C82   C     C_R   0.993829 0.194722 0.899291 -0.144188
C83   C     C_R   0.934436 0.751004 0.030614 -0.125934
C84   C     C_R   0.932063 0.129396 0.925941 0.064550
C85   C     C_R   0.954261 0.784546 0.961722 0.057932
C86   C     C_R   0.932524 0.861356 0.843716 -0.219401
H1    H     H_    0.845571 0.168403 0.015238 0.103506
H2    H     H_    0.317136 0.615549 0.789260 0.148885
H3    H     H_    0.933254 0.199820 0.287395 0.140730
H4    H     H_    0.174584 0.783012 0.666639 0.120859
H5    H     H_    0.763525 0.047009 0.117685 0.168257
H6    H     H_    0.300151 0.954496 0.844416 0.162485
H7    H     H_    0.915338 0.347653 0.501112 0.134740
H8    H     H_    0.206305 0.643644 0.519152 0.138245
H9    H     H_    0.884906 0.897116 0.634198 0.133882
H10   H     H_    0.027065 0.042075 0.162329 0.121102
H11   H     H_    0.402185 0.338762 0.062763 0.175840
H12   H     H_    0.066619 0.773099 0.896475 0.097940
H13   H     H_    0.613583 0.656613 0.049480 0.163605
H14   H     H_    0.341791 0.833768 0.171159 0.122470
H15   H     H_    0.619344 0.229553 0.793950 0.130764
H16   H     H_    0.160790 0.094416 0.958208 0.134447
H17   H     H_    0.687263 0.792855 0.988914 0.163418
H18   H     H_    0.004561 0.835513 0.454527 0.127214
H19   H     H_    0.941093 0.094528 0.520767 0.106758
H20   H     H_    0.002289 0.886742 0.317374 0.138429
H21   H     H_    0.831044 0.003299 0.587274 0.112686
H22   H     H_    0.174934 0.006342 0.335114 0.121247
H23   H     H_    0.998592 0.986380 0.571084 0.129021
H24   H     H_    0.657903 0.997109 0.556029 0.115219
H25   H     H_    0.354218 0.014919 0.628943 0.134610
H26   H     H_    0.694733 0.166987 0.381483 0.136015
H27   H     H_    0.180746 0.907376 0.614918 0.126763
H28   H     H_    0.867346 0.165058 0.409363 0.132259
H29   H     H_    0.474575 0.188291 0.636633 0.172292
H30   H     H_    0.480199 0.982213 0.306126 0.146822
H31   H     H_    0.963989 0.816640 0.802437 0.129290
H32   H     H_    0.792758 0.001080 0.961423 0.121899
H33   H     H_    0.394682 0.498843 0.900749 0.172098
H34   H     H_    0.030866 0.082335 0.335857 0.132800
H35   H     H_    0.627342 0.501636 0.217301 0.179178
H36   H     H_    0.205088 0.324218 0.939859 0.122875
H37   H     H_    0.809131 0.674224 0.140541 0.110521
H38   H     H_    0.098841 0.674289 0.380250 0.103612
H39   H     H_    0.983540 0.327394 0.649534 0.114421
H40   H     H_    0.378919 0.677455 0.117794 0.180293
H41   H     H_    0.638988 0.324097 0.966360 0.161399
H42   H     H_    0.955192 0.324065 0.192417 0.121871
H43   H     H_    0.135503 0.678022 0.817960 0.118001
H44   H     H_    0.187367 0.816430 0.362589 0.133299
H45   H     H_    0.277171 0.172702 0.891579 0.173957
H46   H     H_    0.806307 0.267656 0.633494 0.124431
H47   H     H_    0.010979 0.168613 0.834323 0.126938
H48   H     H_    0.878011 0.754200 0.058587 0.123113
H49   H     H_    0.194123 0.125247 0.698819 0.177023
H50   H     H_    0.866839 0.970495 0.335727 0.140447
H51   H     H_    0.695097 0.834690 0.166268 0.196295
H52   H     H_    0.605278 0.069995 0.044376 0.151334
H53   H     H_    0.428651 0.955205 0.996887 0.165666
H54   H     H_    0.782502 0.400781 0.313229 0.149226
N1    N     N_R   0.947560 0.293820 0.002910 -0.042295
N2    N     N_R   0.789450 0.443190 0.997090 -0.051711
N3    N     N_R   0.945970 0.443180 0.152110 -0.044579
N4    N     N_R   0.054030 0.556820 0.847890 -0.039813
N5    N     N_R   0.151530 0.706170 0.208880 -0.043069
N6    N     N_R   0.848470 0.293830 0.791120 -0.044802
N7    N     N_R   0.004980 0.293810 0.946140 -0.041035
N8    N     N_R   0.995020 0.706190 0.053860 -0.044145
N9    N     N_R   0.052440 0.706180 0.997090 -0.043097
N10   N     N_R   0.208960 0.706170 0.152110 -0.045835
N11   N     N_R   0.791040 0.293830 0.847890 -0.043928
N12   N     N_R   0.154330 0.443160 0.946140 -0.045487
N13   N     N_R   0.845670 0.556840 0.053860 -0.042058
N14   N     N_R   0.002190 0.556820 0.208880 -0.041240
N15   N     N_R   0.997810 0.443180 0.791120 -0.040560
N16   N     N_R   0.210550 0.556810 0.002910 -0.051492
Ni1   Ni    Ni4+2 0.869690 0.369690 0.000000 0.223469
Ni2   Ni    Ni4+2 0.130310 0.630310 0.000000 0.230770
Ni3   Ni    Ni4+2 0.001390 0.369680 0.869810 0.216414
Ni4   Ni    Ni4+2 0.998610 0.630320 0.130190 0.216638

loop_
_geom_bond_atom_site_label_1
_geom_bond_atom_site_label_2
_ccdc_geom_bond_type
C40   C45   A    
C11   C14   A    
C41   C56   A    
C22   C28   A    
C50   H30   S    
C37   C39   A    
C18   H5    S    
C73   H11   S    
Br1   C7    S    
C37   H24   S    
C32   H51   S    
Br2   C8    S    
C38   C54   S    
C26   C67   S    
C11   C28   S    
C35   C37   A    
N2    N13   A    
N11   Ni1   S    
N6    Ni3   S    
C80   H44   S    
C63   C84   S    
C70   C72   S    
C42   H25   S    
C23   C80   A    
C72   C74   S    
C33   C36   A    
C64   C67   A    
C33   C47   A    
C82   C84   A    
C70   H35   S    
C7    C20   A    
C30   C58   S    
C19   H6    S    
C31   C55   A    
C38   C42   A    
C9    H54   S    
C81   N6    A    
C68   C74   S    
C65   C78   A    
C82   H47   S    
C13   C15   A    
C1    C84   A    
C44   C47   A    
C17   C34   A    
N12   Ni3   S    
C20   H52   S    
C47   H18   S    
C69   H33   S    
C70   C73   S    
C46   C48   A    
C69   C74   S    
C45   C71   S    
C31   C60   A    
C65   H39   S    
C52   C54   A    
C43   C46   A    
C64   H38   S    
N14   Ni4   S    
C4    C57   A    
C80   N5    A    
C35   H21   S    
C35   C48   A    
C12   C85   A    
C5    H9    S    
C76   H41   S    
C46   H28   S    
C66   C73   S    
C5    C29   A    
C69   C71   S    
C10   C13   A    
C21   H53   S    
C68   C71   S    
C64   N14   A    
C30   C61   A    
C3    C55   A    
C14   H3    S    
C62   C85   S    
C42   C44   A    
C49   C51   A    
C43   H26   S    
N2    Ni1   S    
C50   C52   A    
C1    N1    A    
C34   C51   S    
C34   C81   A    
C40   N12   A    
N12   N16   A    
Br3   C66   S    
C41   N13   A    
C68   C70   S    
N3    Ni1   S    
C31   H45   S    
C75   N16   A    
C58   C62   A    
C23   C52   S    
C4    H34   S    
C77   H42   S    
C81   H46   S    
C77   N3    A    
C75   H40   S    
C56   C72   S    
C45   C75   A    
N4    N15   A    
N16   Ni2   S    
C15   C19   A    
N5    N10   A    
C59   C63   A    
C55   H49   S    
C29   C59   S    
C40   H36   S    
C66   C69   S    
C17   N11   A    
C6    C30   A    
N5    Ni4   S    
C1    H1    S    
C6    H10   S    
C71   C73   S    
N13   Ni4   S    
C10   H2    S    
C33   H20   S    
N1    N7    A    
C15   H4    S    
C16   N10   A    
C12   H12   S    
C2    C63   A    
C62   C86   A    
C8    C10   A    
N7    Ni3   S    
N6    N11   A    
C51   C53   A    
C66   C72   S    
C13   C27   S    
C86   H31   S    
N15   Ni3   S    
C2    H32   S    
C83   H48   S    
C32   C57   A    
Br4   C68   S    
C24   H8    S    
C3    C5    A    
C3    H23   S    
C56   C76   A    
C74   H13   S    
C14   C18   A    
N10   Ni2   S    
C24   C27   A    
C36   H22   S    
N8    Ni4   S    
C49   C54   A    
C49   H29   S    
C57   H50   S    
C60   H16   S    
C44   H27   S    
C16   H14   S    
C16   C23   A    
C8    C21   A    
N9    Ni2   S    
C83   N8    A    
N4    Ni2   S    
C32   C61   A    
C9    C11   A    
C25   C78   S    
C25   C27   A    
C82   N7    A    
C26   C28   A    
C7    C9    A    
C2    C58   A    
N1    Ni1   S    
C48   H19   S    
C41   H37   S    
C29   C60   A    
C59   C86   A    
C36   C38   A    
C65   N15   A    
C24   C26   A    
C18   C20   A    
C19   C21   A    
C79   H43   S    
C39   C53   S    
C22   H7    S    
C79   N4    A    
N8    N9    A    
C22   C25   A    
C4    C6    A    
C78   C79   A    
C12   N9    A    
C83   C85   A    
C76   N2    A    
N3    N14   A    
C39   C43   A    
C61   H17   S    
C17   H15   S    
C67   C77   A    
C50   C53   A    
