data_mof_unit_5995.cif
_audit_creation_date              2012-12-11T16:51:04-0500
_audit_creation_method            fapswitch 2.2
_symmetry_space_group_name_H-M    P1
_symmetry_Int_Tables_number       1
_space_group_crystal_system       triclinic
_cell_length_a                    6.930126
_cell_length_b                    28.891556
_cell_length_c                    32.077814
_cell_angle_alpha                 100.922002
_cell_angle_beta                  89.657938
_cell_angle_gamma                 90.043119
_cell_volume                      6306.23477675

loop_
_atom_site_label
_atom_site_type_symbol
_atom_type_description
_atom_site_fract_x
_atom_site_fract_y
_atom_site_fract_z
_atom_type_partial_charge
O1    O     O_R   0.494350 0.453170 0.452520 -0.538661
O2    O     O_R   0.820980 0.455850 0.538220 -0.534110
O3    O     O_R   0.994300 0.546830 0.547480 -0.542600
C1    C     C_R   0.651841 0.444981 0.550972 0.718271
O4    O     O_R   0.823860 0.447590 0.452270 -0.511294
O5    O     O_R   0.997200 0.538510 0.460920 -0.538375
C2    C     C_R   0.655042 0.434433 0.436569 0.786341
O6    O     O_R   0.491440 0.461490 0.539080 -0.547142
O7    O     O_3   0.661790 0.529840 0.502940 -0.372706
V1    V     V_3+5 0.935470 0.494460 0.499450 1.447313
O8    O     O_R   0.327090 0.544150 0.461780 -0.535279
C3    C     C_R   0.158580 0.554063 0.448295 0.757592
O9    O     O_R   0.324210 0.552410 0.547730 -0.543519
C4    C     C_R   0.154644 0.564991 0.563593 0.702201
V2    V     V_3+5 0.435840 0.505540 0.500550 1.419197
O10   O     O_3   0.159650 0.470160 0.497060 -0.370913
C5    C     C_R   0.189748 0.894650 0.866287 0.220951
C6    C     C_R   0.187854 0.858089 0.829711 0.254564
C7    C     C_R   0.054299 0.820759 0.827004 0.038264
C8    C     C_R   0.916900 0.821585 0.859324 -0.208354
H1    H     H_    0.812807 0.793285 0.857437 0.144096
C9    C     C_R   0.913775 0.858419 0.894600 -0.250086
H2    H     H_    0.805854 0.857833 0.919058 0.145335
C10   C     C_R   0.048460 0.895374 0.898734 -0.111028
C11   C     C_R   0.229685 0.752295 0.783709 -0.201312
H3    H     H_    0.346137 0.758849 0.806471 0.110652
C12   C     C_R   0.247846 0.716150 0.747521 0.421041
C13   C     C_R   0.098382 0.708941 0.717156 0.077596
C14   C     C_R   0.928864 0.736165 0.725238 -0.230210
H4    H     H_    0.811521 0.731018 0.702685 0.172971
C15   C     C_R   0.910628 0.771147 0.761785 -0.181918
H5    H     H_    0.780640 0.792340 0.766673 0.141455
C16   C     C_R   0.062750 0.780216 0.790751 0.092566
C17   C     C_R   0.281448 0.670058 0.650734 0.441384
C18   C     C_R   0.294164 0.634373 0.613939 -0.274611
H6    H     H_    0.421638 0.632104 0.593938 0.120013
C19   C     C_R   0.141775 0.602530 0.602312 -0.082015
C20   C     C_R   0.975706 0.606652 0.628113 -0.160397
H7    H     H_    0.855624 0.582656 0.620113 0.138303
C21   C     C_R   0.963584 0.641040 0.665100 -0.232320
H8    H     H_    0.834911 0.642531 0.684656 0.163355
C22   C     C_R   0.115974 0.672778 0.677193 0.094451
C23   C     C_R   0.206539 0.662898 0.286701 0.612465
N1    N     N_R   0.120893 0.676485 0.325784 -0.528188
C24   C     C_R   0.027919 0.719083 0.335961 0.601933
C25   C     C_R   0.015448 0.749230 0.306222 -0.055513
C26   C     C_R   0.104550 0.736056 0.266228 -0.018698
C27   C     C_R   0.201729 0.692565 0.256454 -0.108034
C28   C     C_R   0.916877 0.792266 0.315865 -0.227077
C29   C     C_R   0.906778 0.822604 0.286581 0.283023
C30   C     C_R   0.994784 0.809585 0.245859 -0.050378
C31   C     C_R   0.096155 0.766242 0.236015 -0.104221
C32   C     C_R   0.188868 0.752872 0.196040 -0.118339
C33   C     C_R   0.296021 0.710022 0.187698 0.380791
C34   C     C_R   0.295402 0.679987 0.217115 -0.140473
C35   C     C_R   0.984668 0.838206 0.214527 0.598889
N2    N     N_R   0.071976 0.824435 0.175751 -0.572115
C36   C     C_R   0.167530 0.782280 0.165635 0.583884
O11   O     O_2   0.298365 0.621055 0.277257 -0.534839
O12   O     O_2   0.947093 0.732250 0.374724 -0.538930
H9    H     H_    0.848172 0.803015 0.346613 0.164764
O13   O     O_2   0.887704 0.879411 0.222418 -0.490666
O14   O     O_2   0.237327 0.768645 0.125882 -0.497957
H10   H     H_    0.375380 0.647231 0.209444 0.186251
C37   C     C_R   0.229239 0.880698 0.135555 0.390765
C38   C     C_R   0.216809 0.909227 0.104786 -0.184030
H11   H     H_    0.344319 0.928337 0.098079 0.148107
C39   C     C_R   0.042717 0.914194 0.083624 -0.142111
C40   C     C_R   0.879655 0.889311 0.093637 -0.183557
H12   H     H_    0.743266 0.892226 0.078031 0.152836
C41   C     C_R   0.891017 0.859956 0.123683 -0.081170
H13   H     H_    0.764298 0.840668 0.130466 0.172004
C42   C     C_R   0.064415 0.855197 0.144937 0.266306
C43   C     C_R   0.237886 0.659036 0.394477 0.277710
C44   C     C_R   0.248084 0.628647 0.423915 -0.286272
H14   H     H_    0.331134 0.639036 0.452692 0.132936
C45   C     C_R   0.149312 0.585585 0.416942 -0.107738
C46   C     C_R   0.040687 0.572670 0.379857 -0.263250
H15   H     H_    0.964656 0.539285 0.374168 0.139197
C47   C     C_R   0.031347 0.602004 0.349541 0.270085
C48   C     C_R   0.130039 0.645737 0.356701 0.314246
C49   C     C_R   0.553722 0.226139 0.839038 0.622162
N3    N     N_R   0.572818 0.178206 0.826163 -0.528202
C50   C     C_R   0.591090 0.158716 0.783781 0.586371
C51   C     C_R   0.588173 0.187348 0.752816 -0.115789
C52   C     C_R   0.579156 0.236533 0.765760 -0.019624
C53   C     C_R   0.564483 0.256263 0.809316 -0.028036
C54   C     C_R   0.597923 0.167822 0.709344 -0.129312
C55   C     C_R   0.600805 0.196413 0.678702 0.374131
C56   C     C_R   0.587877 0.246269 0.691372 -0.146839
C57   C     C_R   0.584022 0.266057 0.735155 -0.057279
C58   C     C_R   0.584579 0.315409 0.748526 -0.009302
C59   C     C_R   0.573562 0.334737 0.792136 -0.136458
C60   C     C_R   0.560437 0.305530 0.822111 -0.144221
C61   C     C_R   0.575272 0.277156 0.662096 0.619350
N4    N     N_R   0.595423 0.324981 0.675411 -0.540769
C62   C     C_R   0.599398 0.344298 0.717938 0.557375
O15   O     O_2   0.522244 0.244684 0.880369 -0.523039
O16   O     O_2   0.613774 0.111707 0.771527 -0.520104
H16   H     H_    0.607815 0.129985 0.698773 0.191492
O17   O     O_2   0.538583 0.259879 0.620838 -0.506385
O18   O     O_2   0.619721 0.391282 0.730715 -0.522940
H17   H     H_    0.572958 0.372549 0.803256 0.171924
H18   H     H_    0.550101 0.321716 0.855384 0.171181
C63   C     C_R   0.489314 0.392987 0.644822 -0.170148
H19   H     H_    0.378087 0.400355 0.669007 0.163212
C64   C     C_R   0.502523 0.421486 0.614401 -0.272781
H20   H     H_    0.403427 0.450821 0.616385 0.152510
C65   C     C_R   0.641434 0.412721 0.581915 -0.142830
C66   C     C_R   0.770812 0.374359 0.580447 0.177441
C67   C     C_R   0.761283 0.346268 0.612253 0.312435
C68   C     C_R   0.616382 0.355107 0.644180 0.292913
C69   C     C_R   0.428791 0.111937 0.853314 -0.174201
H21   H     H_    0.327004 0.107943 0.827364 0.180953
C70   C     C_R   0.416600 0.081299 0.881990 0.254075
C71   C     C_R   0.547767 0.086042 0.916568 -0.219438
C72   C     C_R   0.688549 0.122321 0.920985 0.165124
C73   C     C_R   0.699828 0.152697 0.891039 0.276650
C74   C     C_R   0.567776 0.147523 0.857141 0.229648
C75   C     C_R   0.710945 0.109488 0.126380 -0.254138
H22   H     H_    0.830780 0.085307 0.118495 0.157503
C76   C     C_R   0.724395 0.144499 0.162735 -0.125331
H23   H     H_    0.854382 0.146837 0.181638 0.151223
C77   C     C_R   0.572689 0.176224 0.174904 0.054354
C78   C     C_R   0.403501 0.172680 0.149679 0.279376
C79   C     C_R   0.390797 0.137316 0.112626 0.263252
C80   C     C_R   0.545002 0.104954 0.100947 -0.152942
C81   C     C_R   0.631182 0.259400 0.210211 -0.314471
H24   H     H_    0.645553 0.267845 0.178832 0.155600
C82   C     C_R   0.648490 0.295217 0.246390 0.316896
C83   C     C_R   0.626870 0.284139 0.287023 0.006957
C84   C     C_R   0.592940 0.237190 0.291558 0.226695
C85   C     C_R   0.577697 0.201052 0.254667 0.204802
C86   C     C_R   0.594570 0.212734 0.214028 -0.025782
C87   C     C_R   0.787889 0.326374 0.352605 -0.202591
H25   H     H_    0.904786 0.301162 0.345429 0.145064
C88   C     C_R   0.796654 0.362081 0.389217 0.314201
C89   C     C_R   0.644656 0.395278 0.398483 -0.223302
C90   C     C_R   0.483115 0.390805 0.370828 0.228727
C91   C     C_R   0.476083 0.354848 0.334390 0.290944
C92   C     C_R   0.629872 0.322497 0.325226 0.051245
O19   O     O_R   0.699170 0.038480 0.960880 -0.513135
O20   O     O_R   0.366800 0.052460 0.047690 -0.516576
O21   O     O_R   0.193520 0.961530 0.039110 -0.543184
C93   C     C_R   0.535205 0.065782 0.063142 0.738021
O22   O     O_R   0.369630 0.044100 0.961740 -0.541992
O23   O     O_R   0.196370 0.953120 0.952550 -0.525421
C94   C     C_R   0.538435 0.054086 0.948108 0.753873
O24   O     O_R   0.696320 0.046890 0.047450 -0.540701
O25   O     O_3   0.528890 0.970170 0.997080 -0.382777
V3    V     V_3+5 0.255190 0.005530 0.000540 1.456608
O26   O     O_R   0.866460 0.947530 0.952310 -0.555866
C95   C     C_R   0.036274 0.934684 0.936485 0.745030
O27   O     O_R   0.863630 0.955880 0.038270 -0.543449
C96   C     C_R   0.032314 0.945799 0.051864 0.717437
V4    V     V_3+5 0.754830 0.994440 0.999470 1.419707
O28   O     O_3   0.031000 0.029830 0.002920 -0.349033
N5    N     N_2   0.323597 0.932435 0.869013 -0.547586
H26   H     H_    0.337357 0.945622 0.841449 0.272324
C97   C     C_3   0.508499 0.924288 0.887059 -0.484830
H27   H     H_    0.593809 0.898229 0.864613 0.174103
H28   H     H_    0.490208 0.911059 0.917144 0.213261
H29   H     H_    0.590579 0.957834 0.893664 0.190341
N6    N     N_2   0.808576 0.866324 0.298900 -0.469619
H30   H     H_    0.683057 0.863716 0.315769 0.248516
C98   C     C_3   0.930531 0.904217 0.319923 -0.443502
H31   H     H_    0.981452 0.896726 0.350769 0.168855
H32   H     H_    0.847220 0.937654 0.325966 0.200270
H33   H     H_    0.057167 0.908773 0.299665 0.214942
O29   O     O_3   0.406931 0.696577 0.151722 -0.604029
H34   H     H_    0.487034 0.724138 0.148528 0.324017
O30   O     O_3   0.403770 0.879397 0.155854 -0.640312
H35   H     H_    0.389494 0.861685 0.179227 0.302881
N7    N     N_2   0.317040 0.858835 0.795021 -0.534720
H36   H     H_    0.452686 0.871910 0.802933 0.261732
C99   C     C_3   0.234670 0.877357 0.760218 -0.509251
H37   H     H_    0.341049 0.873934 0.733791 0.208445
H38   H     H_    0.197453 0.915196 0.770636 0.194276
H39   H     H_    0.103001 0.857441 0.748168 0.212943
N8    N     N_2   0.330427 0.703764 0.403836 -0.491818
H40   H     H_    0.342372 0.717185 0.435896 0.264113
C100  C     C_3   0.510302 0.706702 0.381514 -0.485472
H41   H     H_    0.566681 0.743254 0.389646 0.226323
H42   H     H_    0.488900 0.698168 0.346690 0.193599
H43   H     H_    0.618020 0.682176 0.390946 0.206238
N9    N     N_2   0.927568 0.586533 0.311261 -0.490904
H44   H     H_    0.921075 0.550348 0.302134 0.265762
C101  C     C_3   0.740688 0.608272 0.309654 -0.476953
H45   H     H_    0.673101 0.594425 0.278502 0.235305
H46   H     H_    0.755102 0.646968 0.312814 0.195433
H47   H     H_    0.645295 0.600083 0.335289 0.194672
O31   O     O_3   0.625545 0.174219 0.637082 -0.608255
H48   H     H_    0.723500 0.192316 0.624239 0.334200
N10   N     N_2   0.904737 0.362191 0.546200 -0.525735
H49   H     H_    0.857529 0.366730 0.516807 0.272105
C102  C     C_3   0.103505 0.375779 0.555451 -0.449381
H50   H     H_    0.193201 0.343697 0.553892 0.204269
H51   H     H_    0.118083 0.398391 0.587406 0.179348
H52   H     H_    0.159685 0.395656 0.531600 0.207809
N11   N     N_2   0.890640 0.307587 0.611066 -0.489620
H53   H     H_    0.940653 0.292165 0.581358 0.300054
C103  C     C_3   0.040601 0.314749 0.642818 -0.522573
H54   H     H_    0.123985 0.281636 0.641067 0.224596
H55   H     H_    0.978430 0.324533 0.675237 0.203740
H56   H     H_    0.140056 0.342888 0.637047 0.191242
O32   O     O_3   0.274360 0.047366 0.874327 -0.634449
H57   H     H_    0.304378 0.021701 0.889481 0.315795
N12   N     N_2   0.815031 0.129060 0.956452 -0.491217
H58   H     H_    0.958099 0.134383 0.949710 0.265360
C104  C     C_3   0.743000 0.159930 0.994298 -0.565069
H59   H     H_    0.837327 0.191412 0.002459 0.186930
H60   H     H_    0.742973 0.140716 0.021141 0.205766
H61   H     H_    0.594006 0.172424 0.990006 0.193149
N13   N     N_2   0.840255 0.189294 0.895373 -0.479492
H62   H     H_    0.870833 0.205087 0.926190 0.278369
C105  C     C_3   0.011403 0.177352 0.869768 -0.525537
H63   H     H_    0.108886 0.208357 0.873438 0.220777
H64   H     H_    0.973571 0.166841 0.835682 0.215251
H65   H     H_    0.087535 0.148006 0.880404 0.197510
O33   O     O_3   0.247807 0.202798 0.159801 -0.658606
H66   H     H_    0.265279 0.222850 0.188109 0.294318
N14   N     N_2   0.221428 0.134403 0.087279 -0.495428
H67   H     H_    0.095740 0.144046 0.104014 0.284051
C106  C     C_3   0.239661 0.156047 0.050352 -0.490613
H68   H     H_    0.262269 0.194659 0.060121 0.198388
H69   H     H_    0.106377 0.149673 0.031274 0.199472
H70   H     H_    0.361473 0.140248 0.030023 0.176939
O34   O     O_3   0.685847 0.341311 0.242910 -0.641158
H71   H     H_    0.696270 0.343217 0.212438 0.294521
O35   O     O_3   0.570340 0.228674 0.332328 -0.641137
H72   H     H_    0.520850 0.196481 0.331526 0.305531
N15   N     N_2   0.548031 0.153013 0.257752 -0.518147
H73   H     H_    0.629029 0.141372 0.280574 0.259999
C107  C     C_3   0.347878 0.138623 0.257204 -0.531959
H74   H     H_    0.339578 0.100283 0.257368 0.209180
H75   H     H_    0.275725 0.145262 0.228093 0.210057
H76   H     H_    0.270236 0.158095 0.285557 0.189844
O36   O     O_3   0.950100 0.364231 0.416824 -0.640999
H77   H     H_    0.042840 0.338637 0.405805 0.292974
O37   O     O_3   0.330489 0.421669 0.378471 -0.626266
H78   H     H_    0.260838 0.413701 0.403232 0.327686
N16   N     N_2   0.306557 0.349583 0.308862 -0.510098
H79   H     H_    0.272185 0.315948 0.293510 0.243571
C108  C     C_3   0.268565 0.385982 0.284520 -0.359632
H80   H     H_    0.286980 0.371437 0.250107 0.178593
H81   H     H_    0.367099 0.416654 0.293193 0.209520
H82   H     H_    0.117554 0.398382 0.290393 0.204740
O38   O     O_3   0.407979 0.687135 0.741696 -0.631080
H83   H     H_    0.498920 0.697189 0.765448 0.286498
O39   O     O_3   0.425826 0.703254 0.660608 -0.636157
H84   H     H_    0.531074 0.696142 0.639275 0.279324

loop_
_geom_bond_atom_site_label_1
_geom_bond_atom_site_label_2
_ccdc_geom_bond_type
C27   C34   A    
C38   C39   A    
C1    C65   S    
C28   C29   A    
C24   O12   S    
C21   H8    S    
C79   C80   A    
N12   C104  S    
C47   C48   A    
C72   C73   A    
C49   O15   S    
C33   O29   S    
N10   C102  S    
C61   N4    A    
C17   C22   A    
C105  H65   S    
C1    O6    A    
C72   N12   S    
C81   H24   S    
C59   H17   S    
N2    C36   A    
C75   C80   A    
C87   H25   S    
C98   H32   S    
C45   C46   A    
N1    C24   A    
C63   C64   A    
C25   C28   A    
C59   C60   A    
C78   C79   A    
C103  H55   S    
C101  H47   S    
V3    O28   S    
C58   C59   A    
N6    H30   S    
C18   C19   A    
O24   V4    S    
C105  H64   S    
C6    C7    A    
O21   V3    S    
C52   C57   A    
C49   C53   A    
O5    C3    A    
C20   H7    S    
N7    H36   S    
N13   C105  S    
O29   H34   S    
N3    C74   S    
V2    O10   S    
C53   C60   A    
C37   C42   A    
C71   C72   A    
C101  H46   S    
C17   C18   A    
N2    C42   S    
C88   O36   S    
C40   C41   A    
C66   C67   A    
N15   H73   S    
C44   H14   S    
O1    C2    A    
C73   C74   A    
O8    V2    S    
C99   H39   S    
C7    C8    A    
C75   C76   A    
N11   H53   S    
C103  H56   S    
C66   N10   S    
C26   C27   A    
N16   C108  S    
C64   H20   S    
C15   C16   A    
O1    V2    S    
C14   H4    S    
C84   C85   A    
C23   C27   A    
O27   V4    S    
C62   O18   S    
C83   C92   S    
C23   O11   S    
C35   O13   S    
C39   C96   S    
C21   C22   A    
C38   H11   S    
C88   C89   A    
C60   H18   S    
O25   V4    S    
O9    C4    A    
C106  H68   S    
N5    C97   S    
C64   C65   A    
C98   H31   S    
C40   H12   S    
C107  H75   S    
C18   H6    S    
C102  H52   S    
O38   H83   S    
O33   H66   S    
N8    C100  S    
C58   C62   A    
C29   C30   A    
O22   C94   A    
C76   H23   S    
C9    H2    S    
C108  H80   S    
C5    C10   A    
C28   H9    S    
C103  H54   S    
C37   O30   S    
C29   N6    S    
C30   C31   A    
C97   H29   S    
O26   V4    S    
C56   C61   A    
C50   C51   A    
C17   O39   S    
N1    C48   S    
C7    C16   S    
C57   C58   A    
O4    C2    A    
C3    C45   S    
O32   H57   S    
N12   H58   S    
C11   H3    S    
C51   C52   A    
C84   O35   S    
C101  H45   S    
C107  H76   S    
C97   H28   S    
O2    C1    A    
C23   N1    A    
N4    C62   A    
C19   C20   A    
C81   C86   A    
C67   N11   S    
N4    C68   S    
N3    C50   A    
C87   C92   A    
C90   C91   A    
C34   H10   S    
C8    H1    S    
C91   N16   S    
N15   C107  S    
C5    C6    A    
C43   N8    S    
C73   N13   S    
C69   C74   A    
C31   C32   A    
C105  H63   S    
N14   C106  S    
C5    N5    S    
C44   C45   A    
O19   C94   A    
O27   C96   A    
C54   H16   S    
O3    C4    A    
C80   C93   S    
C6    N7    S    
C102  H51   S    
C99   H37   S    
C63   C68   A    
C8    C9    A    
C49   N3    A    
O6    V2    S    
C104  H60   S    
O9    V2    S    
C100  H41   S    
C85   C86   A    
C87   C88   A    
C9    C10   A    
N9    H44   S    
C35   N2    A    
C43   C48   A    
C76   C77   A    
C83   C84   A    
O2    V1    S    
C106  H70   S    
C43   C44   A    
O30   H35   S    
C41   C42   A    
C69   H21   S    
O7    V1    S    
C51   C54   A    
C36   O14   S    
O20   C93   A    
C100  H42   S    
C25   C26   A    
C13   C14   A    
O20   V3    S    
C13   C22   S    
C67   C68   A    
N16   H79   S    
C90   O37   S    
C52   C53   A    
C50   O16   S    
C39   C40   A    
C15   H5    S    
C10   C95   S    
C30   C35   A    
C102  H50   S    
C106  H69   S    
O5    V1    S    
C2    C89   S    
C32   C36   A    
C79   N14   S    
C32   C33   A    
C26   C31   A    
C81   C82   A    
C11   C12   A    
C104  H61   S    
C71   C94   S    
C63   H19   S    
C61   O17   S    
O25   V3    S    
C108  H82   S    
C77   C86   S    
C97   H27   S    
O21   C96   A    
N6    C98   S    
C82   C83   A    
O39   H84   S    
C85   N15   S    
C41   H13   S    
C14   C15   A    
O3    V1    S    
V1    O10   S    
C12   O38   S    
O31   H48   S    
C4    C19   S    
C20   C21   A    
C46   H15   S    
C33   C34   A    
C56   C57   A    
N5    H26   S    
C91   C92   A    
O23   V3    S    
N13   H62   S    
O36   H77   S    
O37   H78   S    
C55   O31   S    
C108  H81   S    
N10   H49   S    
C46   C47   A    
C37   C38   A    
O7    V2    S    
O35   H72   S    
O23   C95   A    
N7    C99   S    
C89   C90   A    
O34   H71   S    
O22   V3    S    
C78   O33   S    
C24   C25   A    
O4    V1    S    
V4    O28   S    
C54   C55   A    
C98   H33   S    
N11   C103  S    
C104  H59   S    
C107  H74   S    
C70   O32   S    
C12   C13   A    
C82   O34   S    
C47   N9    S    
C75   H22   S    
C77   C78   A    
O26   C95   A    
O19   V4    S    
C55   C56   A    
C65   C66   A    
N9    C101  S    
N14   H67   S    
C100  H43   S    
C93   O24   A    
N8    H40   S    
C70   C71   A    
O8    C3    A    
C11   C16   A    
C99   H38   S    
C69   C70   A    
