data_mof_unit_65248.cif
_audit_creation_date              2012-12-10T19:57:53-0500
_audit_creation_method            fapswitch 2.2
_symmetry_space_group_name_H-M    P1
_symmetry_Int_Tables_number       1
_space_group_crystal_system       triclinic
_cell_length_a                    39.156494
_cell_length_b                    32.109764
_cell_length_c                    21.750409
_cell_angle_alpha                 89.978859
_cell_angle_beta                  125.010634
_cell_angle_gamma                 90.012331
_cell_volume                      22398.3681923

loop_
_atom_site_label
_atom_site_type_symbol
_atom_type_description
_atom_site_fract_x
_atom_site_fract_y
_atom_site_fract_z
_atom_type_partial_charge
C1    C     C_R   0.419312 0.499994 0.419289 0.931793
C2    C     C_R   0.706610 0.499168 0.705529 0.135665
C3    C     C_2   0.003329 0.987918 0.188527 -0.160599
C4    C     C_2   0.532444 0.472880 0.750553 -0.000430
C5    C     C_2   0.467532 0.472940 0.249457 -0.000416
C6    C     C_2   0.032441 0.972878 0.750550 -0.001065
C7    C     C_2   0.967534 0.972938 0.249458 -0.000653
C8    C     C_2   0.511881 0.501873 0.696287 -0.357541
C9    C     C_2   0.488120 0.501914 0.303716 -0.357884
C10   C     C_2   0.011883 0.001874 0.696288 -0.357822
C11   C     C_2   0.988117 0.001915 0.303714 -0.357739
C12   C     C_R   0.227643 0.472668 0.187837 0.113919
C13   C     C_R   0.793390 0.999380 0.294135 0.135685
C14   C     C_R   0.772268 0.470123 0.808265 0.115230
C15   C     C_R   0.727641 0.972775 0.187668 0.113970
C16   C     C_R   0.271784 0.968020 0.806488 0.112017
C17   C     C_R   0.206657 0.498887 0.207767 0.145317
C18   C     C_R   0.793333 0.498393 0.791521 0.144078
C19   C     C_R   0.706658 0.998885 0.207764 0.145522
C20   C     C_R   0.293380 0.997772 0.792841 0.128236
C21   C     C_R   0.228947 0.525062 0.270303 -0.212351
C22   C     C_R   0.771120 0.526600 0.732104 -0.212427
C23   C     C_R   0.728951 0.024953 0.270462 -0.213123
C24   C     C_R   0.206577 0.998872 0.705950 0.118839
C25   C     C_R   0.271371 0.027494 0.735987 -0.194640
C26   C     C_2   0.932147 0.708370 0.993157 0.394655
C27   C     C_2   0.067804 0.708410 0.006609 0.393493
C28   C     C_2   0.437836 0.208368 0.010650 0.394486
C29   C     C_2   0.562096 0.208413 0.989064 0.393301
C30   C     C_2   0.454509 0.484793 0.738677 0.402090
C31   C     C_2   0.545478 0.484774 0.261336 0.401674
C32   C     C_2   0.954508 0.984809 0.738673 0.402097
C33   C     C_2   0.045479 0.984788 0.261340 0.401961
C34   C     C_2   0.558566 0.439149 0.751161 0.439772
C35   C     C_R   0.271343 0.473069 0.231832 -0.204476
C36   C     C_2   0.441381 0.439233 0.248863 0.438501
C37   C     C_2   0.058559 0.939144 0.751154 0.441554
C38   C     C_2   0.941386 0.939228 0.248868 0.438877
C39   C     C_R   0.728578 0.470827 0.764712 -0.205445
C40   C     C_R   0.771341 0.973174 0.231664 -0.204343
C41   C     C_R   0.228229 0.968991 0.762390 -0.168731
C42   C     C_1   0.162178 0.499381 0.164054 -0.033437
C43   C     C_1   0.837818 0.499114 0.835667 -0.032587
C44   C     C_1   0.662179 0.999378 0.164053 -0.033979
C45   C     C_R   0.580690 0.499993 0.580726 0.931873
C46   C     C_1   0.337852 0.998705 0.836275 -0.067319
C47   C     C_1   0.337793 0.499747 0.338293 -0.044629
C48   C     C_1   0.662210 0.499661 0.661562 -0.044572
C49   C     C_1   0.837793 0.999745 0.338289 -0.044721
C50   C     C_1   0.162187 0.999544 0.661728 -0.044134
C51   C     C_1   0.375087 0.499938 0.375319 -0.147167
C52   C     C_1   0.624916 0.499920 0.624636 -0.147401
C53   C     C_1   0.875088 0.999938 0.375317 -0.147281
C54   C     C_1   0.124899 0.999896 0.624671 -0.145876
C55   C     C_1   0.124876 0.499721 0.126619 -0.162264
C56   C     C_R   0.919312 0.999994 0.419290 0.931844
C57   C     C_1   0.875121 0.499604 0.873320 -0.161778
C58   C     C_1   0.624876 0.999718 0.126619 -0.163036
C59   C     C_1   0.375143 0.999422 0.873474 -0.168573
C60   C     C_R   0.500000 0.419334 0.999998 0.886665
C61   C     C_R   1.000000 0.919335 0.000000 0.886283
C62   C     C_R   0.499291 0.497631 0.879726 0.937003
C63   C     C_R   0.500708 0.497634 0.120274 0.936863
C64   C     C_R   0.999291 0.997633 0.879726 0.936694
C65   C     C_R   0.000708 0.997635 0.120275 0.936194
C66   C     C_R   0.500000 0.580689 0.999960 0.918732
C67   C     C_R   0.080683 0.999992 0.580695 0.931727
C68   C     C_R   0.000001 0.080691 0.999999 0.915430
C69   C     C_R   0.504285 0.500160 0.623084 0.973711
C70   C     C_R   0.495720 0.500174 0.376921 0.973593
C71   C     C_R   0.004285 0.000160 0.623085 0.973724
C72   C     C_R   0.995719 0.000174 0.376920 0.973696
C73   C     C_R   0.999998 0.419420 0.000007 0.900017
C74   C     C_R   0.499978 0.919422 0.999993 0.898605
C75   C     C_R   0.080633 0.499993 0.081194 0.909649
C76   C     C_R   0.919365 0.499994 0.918801 0.907763
C77   C     C_R   0.580634 0.999992 0.081194 0.908627
C78   C     C_R   0.272318 0.525324 0.313485 -0.175873
C79   C     C_R   0.419372 0.999994 0.918818 0.908976
C80   C     C_R   1.000000 0.580639 0.999989 0.904882
C81   C     C_R   0.500001 0.080638 0.999989 0.902626
C82   C     C_R   0.967481 0.728668 0.996683 -0.028777
C83   C     C_R   0.032478 0.728687 0.003116 -0.028053
C84   C     C_R   0.470206 0.228668 0.005059 -0.028844
C85   C     C_R   0.529738 0.228690 0.994696 -0.028116
C86   C     C_R   0.999979 0.706651 0.999896 0.084424
C87   C     C_R   0.499972 0.206651 0.999875 0.084132
C88   C     C_R   0.529164 0.272202 0.994804 -0.275395
C89   C     C_R   0.727754 0.526973 0.689064 -0.175670
C90   C     C_R   0.470795 0.272180 0.005008 -0.275221
C91   C     C_R   0.031850 0.772197 0.003066 -0.275263
C92   C     C_R   0.968119 0.772179 0.996782 -0.275226
C93   C     C_R   0.499984 0.293584 0.999923 0.181193
C94   C     C_R   0.999988 0.793581 0.999939 0.180668
C95   C     C_1   0.999989 0.662060 0.999925 0.120803
C96   C     C_1   0.499987 0.162056 0.999916 0.120311
C97   C     C_1   0.499992 0.337933 0.999954 -0.045109
C98   C     C_1   0.999993 0.837934 0.999966 -0.044980
C99   C     C_1   0.499998 0.375178 0.999978 -0.178012
C100  C     C_R   0.772321 0.025216 0.313641 -0.176002
C101  C     C_1   0.999998 0.875180 0.999985 -0.177613
C102  C     C_2   0.531645 0.477304 0.816917 -0.372712
C103  C     C_2   0.468335 0.477359 0.183095 -0.373281
C104  C     C_2   0.031643 0.977302 0.816914 -0.372276
C105  C     C_2   0.968337 0.977357 0.183097 -0.372549
C106  C     C_1   0.999995 0.624786 0.999956 -0.074720
C107  C     C_1   0.499996 0.124782 0.999953 -0.074674
C108  C     C_R   0.970025 0.272045 0.934903 -0.219738
C109  C     C_R   0.030077 0.272005 0.064770 -0.155677
C110  C     C_R   0.465313 0.772021 0.941696 -0.160901
C111  C     C_R   0.228020 0.028061 0.692584 -0.178775
C112  C     C_R   0.534430 0.772022 0.058431 -0.157688
C113  C     C_R   0.000029 0.293534 0.999899 0.089725
C114  C     C_R   0.499847 0.793545 0.000108 0.065651
C115  C     C_R   0.534782 0.728602 0.058808 0.085222
C116  C     C_R   0.465099 0.728602 0.941017 0.086319
C117  C     C_R   0.030370 0.228604 0.065263 0.065837
C118  C     C_R   0.969862 0.228416 0.934159 0.103645
C119  C     C_R   0.499970 0.706732 0.999849 0.068985
C120  C     C_R   0.000135 0.206742 0.999748 0.093694
C121  C     C_1   0.000012 0.337927 0.999991 -0.039302
C122  C     C_R   0.293389 0.499382 0.294141 0.135522
C123  C     C_1   0.499870 0.837932 0.000047 -0.039846
C124  C     C_1   0.499994 0.662164 0.999833 -0.083159
C125  C     C_1   0.000043 0.162172 0.999820 -0.045074
C126  C     C_1   0.500003 0.624890 0.999885 -0.173586
C127  C     C_1   0.000006 0.124896 0.999903 -0.168582
C128  C     C_1   0.000003 0.375205 0.000023 -0.173314
C129  C     C_1   0.499915 0.875210 0.999989 -0.171015
C130  C     C_2   0.496665 0.487903 0.811486 -0.160943
C131  C     C_2   0.503329 0.487913 0.188525 -0.160488
C132  C     C_2   0.996664 0.987908 0.811484 -0.161206
H1    H     H_    0.561099 0.473755 0.871500 0.191807
H2    H     H_    0.500335 0.529419 0.293289 0.159777
H3    H     H_    0.999693 0.029386 0.706718 0.159488
H4    H     H_    0.000328 0.029421 0.293284 0.159777
H5    H     H_    0.288140 0.453111 0.217523 0.148661
H6    H     H_    0.711727 0.449407 0.776761 0.148517
H7    H     H_    0.788135 0.953298 0.217228 0.148751
H8    H     H_    0.211281 0.946458 0.772367 0.159566
H9    H     H_    0.212766 0.545287 0.285548 0.157038
H10   H     H_    0.787360 0.548377 0.719273 0.157227
H11   H     H_    0.712773 0.045096 0.285834 0.156542
H12   H     H_    0.438877 0.473837 0.128516 0.191371
H13   H     H_    0.287783 0.050338 0.725341 0.157170
H14   H     H_    0.289400 0.545712 0.361809 0.153348
H15   H     H_    0.710734 0.548937 0.643168 0.153276
H16   H     H_    0.789405 0.045521 0.362094 0.153043
H17   H     H_    0.211244 0.051236 0.648779 0.153751
H18   H     H_    0.448378 0.289616 0.008935 0.135861
H19   H     H_    0.551585 0.289652 0.990892 0.135834
H20   H     H_    0.943643 0.789617 0.994375 0.136410
H21   H     H_    0.056329 0.789650 0.005489 0.136562
H22   H     H_    0.908660 0.727580 0.991000 0.068458
H23   H     H_    0.061095 0.973746 0.871498 0.192174
H24   H     H_    0.091328 0.727635 0.008896 0.068452
H25   H     H_    0.416367 0.227582 0.014649 0.068096
H26   H     H_    0.583636 0.227644 0.985267 0.067892
H27   H     H_    0.417433 0.687944 0.902256 0.200389
H28   H     H_    0.438846 0.688772 0.853176 0.200691
H29   H     H_    0.582751 0.688477 0.096907 0.200883
H30   H     H_    0.561281 0.688216 0.145905 0.200850
H31   H     H_    0.954441 0.191158 0.847201 0.191034
H32   H     H_    0.917718 0.226594 0.825654 0.183689
H33   H     H_    0.078723 0.188361 0.120792 0.199012
H34   H     H_    0.938881 0.973828 0.128517 0.191569
H35   H     H_    0.046557 0.188306 0.149349 0.199390
H36   H     H_    0.449718 0.464896 0.694021 0.078909
H37   H     H_    0.550251 0.464889 0.306012 0.078635
H38   H     H_    0.949712 0.964911 0.694014 0.078885
H39   H     H_    0.050256 0.964904 0.306019 0.078788
H40   H     H_    0.567044 0.412801 0.788579 0.051748
H41   H     H_    0.432892 0.412883 0.211476 0.051901
H42   H     H_    0.067031 0.912793 0.788564 0.052598
H43   H     H_    0.932902 0.912876 0.211485 0.052285
H44   H     H_    0.188866 0.464695 0.075814 0.190932
H45   H     H_    0.946925 0.289253 0.884979 0.145418
H46   H     H_    0.224781 0.427007 0.119067 0.184558
H47   H     H_    0.809751 0.420029 0.855018 0.184151
H48   H     H_    0.775101 0.424144 0.876585 0.185056
H49   H     H_    0.688858 0.964998 0.075587 0.191187
H50   H     H_    0.724771 0.927286 0.118614 0.184734
H51   H     H_    0.324965 0.940864 0.897532 0.196435
H52   H     H_    0.286712 0.907969 0.837865 0.184454
H53   H     H_    0.053274 0.288922 0.115012 0.160657
H54   H     H_    0.438580 0.788955 0.896596 0.159103
H55   H     H_    0.561142 0.788955 0.103586 0.161223
H56   H     H_    0.499687 0.529384 0.706714 0.159827
N1    N     N_3   0.429282 0.707394 0.880117 -0.452940
N2    N     N_3   0.570739 0.707385 0.119392 -0.451387
N3    N     N_3   0.939045 0.205972 0.867583 -0.437150
N4    N     N_3   0.061561 0.207377 0.132762 -0.451243
N5    N     N_3   0.204504 0.445783 0.123590 -0.449120
N6    N     N_3   0.795336 0.441338 0.869602 -0.445021
N7    N     N_3   0.704496 0.945998 0.123255 -0.448816
N8    N     N_3   0.292679 0.936876 0.864310 -0.452817
O1    O     O_R   0.439010 0.534430 0.439020 -0.626684
O2    O     O_R   0.939020 0.499970 0.990130 -0.605070
O3    O     O_R   0.560980 0.999970 0.009870 -0.609653
O4    O     O_R   0.439020 0.999970 0.990130 -0.609581
O5    O     O_R   0.000010 0.561020 0.051000 -0.608142
O6    O     O_R   0.999990 0.561020 0.949000 -0.608685
O7    O     O_R   0.500010 0.061020 0.051000 -0.606436
O8    O     O_R   0.499990 0.061020 0.949000 -0.606947
O9    O     O_R   0.439010 0.465570 0.438980 -0.589294
O10   O     O_R   0.560990 0.465570 0.561020 -0.590141
O11   O     O_R   0.939010 0.965570 0.438980 -0.589176
O12   O     O_R   0.560990 0.534430 0.560980 -0.626247
O13   O     O_R   0.060990 0.965570 0.561020 -0.590075
O14   O     O_R   0.500010 0.534430 0.590460 -0.632114
O15   O     O_R   0.499990 0.534430 0.409540 -0.632249
O16   O     O_R   0.000010 0.034430 0.590460 -0.632531
O17   O     O_R   0.999990 0.034430 0.409540 -0.632253
O18   O     O_R   0.500010 0.465570 0.590420 -0.586054
O19   O     O_R   0.499990 0.465570 0.409580 -0.586138
O20   O     O_R   0.000010 0.965570 0.590420 -0.586023
O21   O     O_R   0.999990 0.965570 0.409580 -0.586071
O22   O     O_R   0.534430 0.439010 0.034350 -0.621502
O23   O     O_R   0.939010 0.034430 0.439020 -0.626934
O24   O     O_R   0.465570 0.439010 0.965650 -0.621485
O25   O     O_R   0.034430 0.939010 0.034350 -0.621422
O26   O     O_R   0.965570 0.939010 0.965650 -0.621956
O27   O     O_R   0.534420 0.500000 0.943920 -0.637136
O28   O     O_R   0.465580 0.500000 0.056080 -0.637473
O29   O     O_R   0.034420 0.000000 0.943920 -0.637095
O30   O     O_R   0.965580 0.000000 0.056080 -0.637173
O31   O     O_R   0.465560 0.500000 0.875080 -0.570813
O32   O     O_R   0.534440 0.500000 0.124920 -0.570711
O33   O     O_R   0.965560 0.000000 0.875080 -0.570408
O34   O     O_R   0.060990 0.034430 0.560980 -0.626442
O35   O     O_R   0.034440 0.000000 0.124920 -0.570903
O36   O     O_R   0.534430 0.560990 0.034430 -0.611465
O37   O     O_R   0.465570 0.560990 0.965570 -0.611826
O38   O     O_R   0.034430 0.060990 0.034430 -0.613897
O39   O     O_R   0.965570 0.060990 0.965570 -0.604900
O40   O     O_R   1.000000 0.439050 0.051090 -0.614955
O41   O     O_R   0.000000 0.439050 0.948910 -0.616495
O42   O     O_R   0.500000 0.939050 0.051090 -0.615807
O43   O     O_R   0.500000 0.939050 0.948910 -0.615367
O44   O     O_2   0.928438 0.670613 0.992554 -0.572213
O45   O     O_R   0.060990 0.500040 0.112010 -0.617388
O46   O     O_2   0.071459 0.670654 0.007019 -0.573847
O47   O     O_2   0.434382 0.170610 0.010878 -0.570886
O48   O     O_2   0.565452 0.170657 0.988545 -0.572390
O49   O     O_2   0.424864 0.504582 0.727725 -0.544924
O50   O     O_2   0.575148 0.504521 0.272269 -0.544990
O51   O     O_2   0.924868 0.004607 0.727725 -0.544172
O52   O     O_2   0.075143 0.004543 0.272269 -0.544739
O53   O     O_2   0.572593 0.441200 0.713569 -0.564434
O54   O     O_2   0.427345 0.441309 0.286435 -0.564605
O55   O     O_2   0.072590 0.941194 0.713569 -0.563526
O56   O     O_R   0.939010 0.500040 0.887990 -0.619914
O57   O     O_2   0.927349 0.941301 0.286438 -0.564498
O58   O     O_R   0.560990 0.000040 0.112010 -0.617294
O59   O     O_R   0.439010 0.000040 0.887990 -0.617234
O60   O     O_R   0.060980 0.499970 0.009870 -0.610101
Zn1   Zn    Zn3+2 0.500000 0.545980 0.500000 0.983660
Zn2   Zn    Zn3+2 0.999990 0.500050 0.931820 0.992560
Zn3   Zn    Zn3+2 0.500010 0.000050 0.068180 0.997244
Zn4   Zn    Zn3+2 0.499990 0.000050 0.931820 0.995927
Zn5   Zn    Zn3+2 0.000000 0.045980 0.500000 0.982583
Zn6   Zn    Zn3+2 0.500000 0.454020 0.500000 1.044756
Zn7   Zn    Zn3+2 0.000000 0.954020 0.500000 1.045156
Zn8   Zn    Zn3+2 0.545980 0.500000 0.045940 1.002757
Zn9   Zn    Zn3+2 0.454020 0.500000 0.954060 1.001900
Zn10  Zn    Zn3+2 0.045980 0.000000 0.045940 1.002946
Zn11  Zn    Zn3+2 0.954020 0.000000 0.954060 1.007066
Zn12  Zn    Zn3+2 0.000010 0.500050 0.068180 0.999037

loop_
_geom_bond_atom_site_label_1
_geom_bond_atom_site_label_2
_ccdc_geom_bond_type
C9    H2    S    
C116  N1    S    
C5    C103  S    
C45   O10   A    
O21   Zn7   S    
C30   O49   D    
C66   O36   A    
C46   C59   T    
C28   C84   S    
O22   Zn8   S    
C12   N5    S    
C14   C18   A    
C19   C23   A    
O23   Zn5   S    
C84   C87   A    
H30   N2    S    
C4    C8    D    
C60   C99   S    
C103  H12   S    
C112  H55   S    
C81   C107  S    
O33   Zn11  S    
O56   Zn2   S    
C81   O7    A    
C119  C124  S    
C3    C105  D    
O14   Zn1   S    
C15   C19   A    
H35   N4    S    
O10   Zn6   S    
C8    C69   S    
C50   C54   T    
C90   C93   A    
C75   O45   A    
C70   O19   A    
C57   C76   S    
C124  C126  T    
C95   C106  T    
H28   N1    S    
C91   H21   S    
O6    Zn2   S    
C64   O33   A    
C5    C36   S    
O9    Zn6   S    
C94   C98   S    
C62   O31   A    
C40   H7    S    
C80   C106  S    
H33   N4    S    
C82   C92   A    
C105  H34   S    
C33   O52   D    
C74   C129  S    
C74   O43   A    
C62   C130  S    
C61   O26   A    
C64   O29   A    
C73   O40   A    
C31   C131  S    
O25   Zn10  S    
C58   C77   S    
O3    Zn4   S    
C17   C42   S    
C115  N2    S    
C2    C39   A    
C22   C89   A    
C80   O6    A    
C64   C132  S    
C67   O34   A    
C44   C58   T    
C13   C40   A    
C4    C102  S    
C12   C17   A    
C92   H20   S    
C36   O54   D    
C7    C105  S    
C31   O50   D    
C67   O13   A    
C79   O4    A    
C28   O47   D    
C63   C131  S    
H44   N5    S    
H32   N3    S    
C1    O9    A    
C110  C114  A    
C29   C85   S    
C90   H18   S    
O30   Zn11  S    
C55   C75   S    
C10   C71   S    
C72   O17   A    
C14   C39   A    
C39   H6    S    
O32   Zn8   S    
C36   H41   S    
C26   C82   S    
C18   C22   A    
C123  C129  T    
C24   C50   S    
C24   C41   A    
O19   Zn6   S    
C23   H11   S    
C3    C65   S    
C24   C111  A    
C84   C90   A    
H49   N7    S    
O24   Zn9   S    
C111  H17   S    
C112  C114  A    
O27   Zn8   S    
C97   C99   T    
O40   Zn12  S    
O7    Zn3   S    
O13   Zn7   S    
C81   O8    A    
C61   O25   A    
C85   C87   A    
O39   Zn11  S    
H46   N5    S    
C4    C34   S    
O16   Zn5   S    
O45   Zn12  S    
C77   O58   A    
C66   O37   A    
C109  C117  A    
C108  H45   S    
C108  C118  A    
O43   Zn4   S    
C63   O28   A    
C34   H40   S    
C9    C70   S    
C121  C128  T    
O1    Zn1   S    
C75   O60   A    
C117  C120  A    
C59   C79   S    
O28   Zn9   S    
C43   C57   T    
C11   C72   S    
O31   Zn9   S    
C47   C122  S    
C47   C51   T    
C54   C67   S    
C31   H37   S    
C45   C52   S    
C109  H53   S    
C30   C130  S    
C21   C78   A    
C76   O2    A    
C8    H56   S    
C66   C126  S    
O60   Zn2   S    
C108  C113  A    
C74   O42   A    
C2    C89   A    
C61   C101  S    
C17   C21   A    
C41   H8    S    
C73   O41   A    
C32   O51   D    
C16   N8    S    
C68   O39   A    
C60   O22   A    
C42   C55   T    
C1    C51   S    
C118  N3    S    
C93   C97   S    
C7    C11   D    
H52   N8    S    
C16   C20   A    
C87   C96   S    
C22   H10   S    
C92   C94   A    
H51   N8    S    
C6    C37   S    
O42   Zn3   S    
C62   O27   A    
C10   H3    S    
C12   C35   A    
C77   O3    A    
C68   C127  S    
C29   H26   S    
C68   O38   A    
C13   C49   S    
C114  C123  S    
O5    Zn12  S    
C96   C107  T    
O15   Zn1   S    
C45   O12   A    
C6    C104  S    
C104  C132  D    
C88   H19   S    
C26   H22   S    
C78   H14   S    
C83   C91   A    
C76   O56   A    
C27   O46   D    
C110  C116  A    
O29   Zn10  S    
C32   C132  S    
H48   N6    S    
C19   C44   S    
C85   C88   A    
O4    Zn3   S    
C72   O21   A    
C53   C56   S    
C70   O15   A    
C27   H24   S    
C89   H15   S    
C80   O5    A    
C32   H38   S    
C88   C93   A    
C110  H54   S    
C79   O59   A    
O12   Zn1   S    
O36   Zn8   S    
C120  C125  S    
H27   N1    S    
O18   Zn6   S    
C35   C122  A    
C1    O1    A    
C69   O18   A    
C102  C130  D    
O20   Zn7   S    
C5    C9    D    
H29   N2    S    
C6    C10   D    
C25   H13   S    
C116  C119  A    
C7    C38   S    
C63   O32   A    
H50   N7    S    
C109  C113  A    
C73   C128  S    
O11   Zn7   S    
C115  C119  A    
C15   N7    S    
C37   H42   S    
C98   C101  T    
C2    C48   S    
C83   C86   A    
C13   C100  A    
C60   O24   A    
C102  H1    S    
C30   H36   S    
C37   O55   D    
C11   H4    S    
C35   H5    S    
C65   O35   A    
C82   C86   A    
O26   Zn11  S    
O8    Zn4   S    
C38   H43   S    
C56   O11   A    
O58   Zn3   S    
C100  H16   S    
C49   C53   T    
C117  N4    S    
C27   C83   S    
C28   H25   S    
C29   O48   D    
C65   O30   A    
C23   C100  A    
C34   O53   D    
C112  C115  A    
C104  H23   S    
C14   N6    S    
C78   C122  A    
C118  C120  A    
C15   C40   A    
O34   Zn5   S    
O38   Zn10  S    
C86   C95   S    
C25   C111  A    
O37   Zn9   S    
C26   O44   D    
C48   C52   T    
C38   O57   D    
C113  C121  S    
C21   H9    S    
C71   O16   A    
C20   C25   A    
O35   Zn10  S    
O17   Zn5   S    
O41   Zn2   S    
C125  C127  T    
O59   Zn4   S    
C3    C33   S    
H31   N3    S    
C69   O14   A    
C18   C43   S    
C103  C131  D    
C16   C41   A    
H47   N6    S    
C56   O23   A    
C20   C46   S    
C71   O20   A    
C91   C94   A    
O2    Zn12  S    
C33   H39   S    
