data_mof_unit_54817.cif
_audit_creation_date              2012-12-10T18:09:34-0500
_audit_creation_method            fapswitch 2.2
_symmetry_space_group_name_H-M    P1
_symmetry_Int_Tables_number       1
_space_group_crystal_system       triclinic
_cell_length_a                    15.723509
_cell_length_b                    15.27771
_cell_length_c                    9.639969
_cell_angle_alpha                 91.625114
_cell_angle_beta                  91.403502
_cell_angle_gamma                 90.153906
_cell_volume                      2314.06663373

loop_
_atom_site_label
_atom_site_type_symbol
_atom_type_description
_atom_site_fract_x
_atom_site_fract_y
_atom_site_fract_z
_atom_type_partial_charge
C1    C     C_R   0.120494 0.381951 0.499503 0.812901
C2    C     C_R   0.122296 0.615959 0.501776 0.754734
C3    C     C_R   0.620881 0.882037 0.500200 0.811157
C4    C     C_R   0.621765 0.117133 0.502678 0.761586
C5    C     C_3   0.087707 0.485051 0.085370 -0.279643
C6    C     C_3   0.088139 0.487660 0.919879 -0.291702
C7    C     C_3   0.587316 0.980509 0.085456 -0.220285
C8    C     C_3   0.590212 0.994331 0.920520 -0.182057
C9    C     C_R   0.886135 0.373899 0.499186 0.950614
C10   C     C_R   0.880283 0.620798 0.500286 0.787043
C11   C     C_R   0.387049 0.872610 0.498749 0.922989
C12   C     C_R   0.379874 0.120800 0.499748 0.777115
C13   C     C_3   0.814148 0.256295 0.649239 -0.179406
C14   C     C_3   0.828803 0.225267 0.390280 -0.173676
C15   C     C_3   0.764268 0.698927 0.644736 -0.199324
C16   C     C_3   0.846690 0.785188 0.462698 -0.172433
C17   C     C_3   0.333536 0.730130 0.620957 -0.142524
C18   C     C_3   0.315751 0.740108 0.363119 -0.217304
C19   C     C_3   0.263533 0.200288 0.641114 -0.150525
C20   C     C_3   0.346054 0.286184 0.460711 -0.155681
C21   C     C_3   0.255846 0.667074 0.627371 -0.458366
C22   C     C_3   0.244132 0.670671 0.367725 -0.514812
C23   C     C_3   0.187088 0.262435 0.631151 -0.395653
C24   C     C_3   0.277964 0.358460 0.488345 -0.346802
C25   C     C_3   0.738091 0.190392 0.652028 -0.485773
C26   C     C_3   0.761746 0.152254 0.404190 -0.512449
C27   C     C_3   0.691410 0.766350 0.639230 -0.426949
C28   C     C_3   0.778273 0.857340 0.485424 -0.360147
C29   C     C_3   0.729706 0.346401 0.469796 0.900066
C30   C     C_3   0.739397 0.667933 0.384970 0.895816
C31   C     C_3   0.230141 0.843474 0.520079 0.874044
C32   C     C_3   0.238555 0.169361 0.380873 0.922941
C33   C     C_3   0.818027 0.301241 0.502657 -0.058527
C34   C     C_3   0.810821 0.691956 0.500386 -0.078538
C35   C     C_3   0.320135 0.797450 0.499489 -0.022363
C36   C     C_3   0.310282 0.192657 0.497436 -0.093876
C37   C     C_3   0.193817 0.680391 0.503463 0.079248
C38   C     C_3   0.189416 0.314910 0.497414 -0.006540
C39   C     C_3   0.693685 0.182104 0.507685 0.091621
C40   C     C_3   0.690011 0.814475 0.500874 0.007025
C41   C     C_3   0.157137 0.772518 0.513931 -0.464232
C42   C     C_3   0.178880 0.252430 0.369217 -0.501959
C43   C     C_3   0.659008 0.272189 0.466902 -0.524553
C44   C     C_3   0.674794 0.747612 0.379634 -0.481885
C45   C     C_3   0.975239 0.587530 0.089773 0.316661
C46   C     C_3   0.967870 0.583409 0.921642 0.391215
C47   C     C_3   0.938172 0.435731 0.071639 0.340208
C48   C     C_3   0.951261 0.426909 0.907808 0.348272
C49   C     C_3   0.479655 0.089027 0.087439 0.319828
C50   C     C_3   0.472734 0.086273 0.917450 0.353932
C51   C     C_3   0.432069 0.943753 0.067079 0.492909
C52   C     C_3   0.457207 0.923937 0.914785 0.297131
Cu1   Cu    Cu3+1 0.000100 0.500000 0.642410 1.009398
Cu2   Cu    Cu3+1 0.000100 0.500000 0.357590 1.033722
Cu3   Cu    Cu3+1 0.500100 0.000000 0.642410 0.969150
Cu4   Cu    Cu3+1 0.500100 0.000000 0.357590 1.039567
H1    H     H_    0.804311 0.307615 0.730406 0.146835
H2    H     H_    0.812698 0.253141 0.291932 0.197569
H3    H     H_    0.735777 0.633744 0.663463 0.138012
H4    H     H_    0.858637 0.784693 0.350068 0.151689
H5    H     H_    0.336431 0.767910 0.720267 0.142645
H6    H     H_    0.296866 0.786038 0.287561 0.172334
H7    H     H_    0.239329 0.134881 0.666005 0.114970
H8    H     H_    0.357148 0.286192 0.347913 0.139306
H9    H     H_    0.274646 0.596790 0.627305 0.151642
H10   H     H_    0.269201 0.602623 0.360910 0.160514
H11   H     H_    0.186746 0.309032 0.722035 0.195758
H12   H     H_    0.292351 0.397461 0.585266 0.226133
H13   H     H_    0.759367 0.123985 0.682610 0.160341
H14   H     H_    0.790708 0.090153 0.440264 0.160214
H15   H     H_    0.697479 0.815353 0.726889 0.200154
H16   H     H_    0.793733 0.898741 0.579710 0.210678
H17   H     H_    0.223699 0.679153 0.727127 0.161670
H18   H     H_    0.201521 0.678180 0.274902 0.203440
H19   H     H_    0.126952 0.225888 0.637998 0.194898
H20   H     H_    0.278092 0.405697 0.402409 0.134884
H21   H     H_    0.692107 0.210615 0.732163 0.191255
H22   H     H_    0.732665 0.136742 0.299784 0.192529
H23   H     H_    0.629734 0.734192 0.654375 0.179726
H24   H     H_    0.777148 0.901810 0.395800 0.141529
H25   H     H_    0.119305 0.778511 0.607564 0.154659
H26   H     H_    0.108012 0.778716 0.431415 0.146745
H27   H     H_    0.111838 0.238221 0.344978 0.222406
H28   H     H_    0.197857 0.290422 0.278018 0.164873
H29   H     H_    0.603555 0.288942 0.529229 0.155685
H30   H     H_    0.634631 0.261307 0.360091 0.184608
H31   H     H_    0.607218 0.729511 0.374052 0.226387
H32   H     H_    0.684016 0.783241 0.281925 0.184500
H33   H     H_    0.910026 0.600938 0.127408 0.115281
H34   H     H_    0.898277 0.579764 0.902831 -0.029037
H35   H     H_    0.873578 0.465075 0.085677 0.007991
H36   H     H_    0.885917 0.434339 0.862901 0.054496
H37   H     H_    0.414430 0.105197 0.122096 0.097131
H38   H     H_    0.405277 0.092993 0.886593 0.001503
H39   H     H_    0.370150 0.979964 0.064201 -0.076198
H40   H     H_    0.399892 0.911517 0.850450 0.099994
H41   H     H_    0.133380 0.535168 0.127844 0.193237
H42   H     H_    0.132561 0.537947 0.884595 0.153334
H43   H     H_    0.115579 0.424007 0.124230 0.157934
H44   H     H_    0.118146 0.427294 0.878441 0.188248
H45   H     H_    0.636630 0.022531 0.138509 0.172876
H46   H     H_    0.629861 0.052773 0.900148 0.180314
H47   H     H_    0.605823 0.912437 0.109842 0.203879
H48   H     H_    0.627229 0.940718 0.870829 0.184525
N1    N     N_3   0.001260 0.500000 0.143650 -0.209554
N2    N     N_3   0.001260 0.500000 0.856350 -0.219391
N3    N     N_3   0.501260 0.000000 0.143650 -0.220198
N4    N     N_3   0.501260 0.000000 0.856350 -0.242640
O1    O     O_R   0.091250 0.408820 0.620260 -0.568213
O2    O     O_R   0.091250 0.408820 0.379740 -0.587224
O3    O     O_R   0.091250 0.591180 0.620260 -0.581810
O4    O     O_R   0.091250 0.591180 0.379740 -0.559675
O5    O     O_R   0.591250 0.908820 0.620260 -0.612600
O6    O     O_R   0.591250 0.908820 0.379740 -0.577688
O7    O     O_R   0.591250 0.091180 0.620260 -0.550094
O8    O     O_R   0.591250 0.091180 0.379740 -0.569840
O9    O     O_R   0.908940 0.408800 0.620260 -0.556612
O10   O     O_R   0.908940 0.408800 0.379740 -0.487814
O11   O     O_R   0.908940 0.591200 0.620260 -0.564510
O12   O     O_R   0.908940 0.591200 0.379740 -0.548689
O13   O     O_R   0.408940 0.908800 0.620260 -0.621627
O14   O     O_R   0.408940 0.908800 0.379740 -0.482172
O15   O     O_R   0.408940 0.091200 0.620260 -0.576838
O16   O     O_R   0.408940 0.091200 0.379740 -0.547882
C53   C     C_2   0.894559 0.209583 0.694992 0.399960
H49   H     H_    0.891969 0.163365 0.778259 0.051085
O17   O     O_2   0.963422 0.225291 0.645773 -0.578504
C54   C     C_2   0.915669 0.185943 0.377122 0.375715
H50   H     H_    0.933317 0.129147 0.436152 0.104451
O18   O     O_2   0.966016 0.215362 0.296654 -0.571472
C55   C     C_2   0.817773 0.720083 0.773736 0.452784
H51   H     H_    0.809389 0.680664 0.863486 0.033941
O19   O     O_2   0.859828 0.787119 0.786975 -0.552363
C56   C     C_2   0.930771 0.810503 0.531305 0.360415
H52   H     H_    0.966185 0.764446 0.593459 0.124935
O20   O     O_2   0.961540 0.882536 0.512689 -0.615205
C57   C     C_2   0.413060 0.674117 0.615004 0.234183
H53   H     H_    0.415884 0.612419 0.668121 0.109822
O21   O     O_2   0.476992 0.699236 0.559726 -0.622843
C58   C     C_2   0.397270 0.697608 0.313552 0.486084
H54   H     H_    0.401465 0.627154 0.297603 0.043683
O22   O     O_2   0.460037 0.741265 0.290823 -0.496659
C59   C     C_2   0.315586 0.230260 0.766610 0.355672
H55   H     H_    0.314719 0.191341 0.857859 0.034735
O23   O     O_2   0.345186 0.304123 0.776604 -0.595910
C60   C     C_2   0.430322 0.310600 0.526895 0.361882
H56   H     H_    0.467349 0.262163 0.580635 0.075683
O24   O     O_2   0.459489 0.383926 0.513703 -0.613406
O25   O     O_3   0.719656 0.419417 0.565351 -0.557072
C61   C     C_3   0.663756 0.410415 0.676829 -0.430200
H57   H     H_    0.671681 0.349434 0.732939 0.148366
H58   H     H_    0.596722 0.417458 0.642307 0.218583
H59   H     H_    0.677137 0.464626 0.753274 0.179324
O26   O     O_3   0.738638 0.382958 0.335663 -0.582461
C62   C     C_3   0.662702 0.405227 0.263656 -0.311639
H60   H     H_    0.669623 0.471227 0.221751 0.219419
H61   H     H_    0.604546 0.403334 0.326159 0.170966
H62   H     H_    0.654683 0.360286 0.172036 0.125329
O27   O     O_3   0.706108 0.582955 0.414957 -0.557401
C63   C     C_3   0.618725 0.578824 0.444852 -0.284599
H63   H     H_    0.604417 0.617608 0.538246 0.196471
H64   H     H_    0.601739 0.512215 0.472140 0.230749
H65   H     H_    0.577369 0.593168 0.353556 0.156292
O28   O     O_3   0.780095 0.660953 0.254545 -0.608461
C64   C     C_3   0.724179 0.638478 0.141552 -0.354780
H66   H     H_    0.748971 0.579582 0.086285 0.157463
H67   H     H_    0.723228 0.693060 0.068126 0.164142
H68   H     H_    0.657475 0.625458 0.169703 0.170297
O29   O     O_3   0.233857 0.880705 0.657731 -0.627261
C65   C     C_3   0.167919 0.940681 0.685402 -0.301555
H69   H     H_    0.160498 0.946618 0.799408 0.145881
H70   H     H_    0.105464 0.921042 0.638648 0.201131
H71   H     H_    0.185727 0.005433 0.648821 0.221704
O30   O     O_3   0.221154 0.912806 0.422804 -0.547119
C66   C     C_3   0.167182 0.896610 0.304590 -0.341591
H72   H     H_    0.183204 0.943495 0.224626 0.196225
H73   H     H_    0.099554 0.906591 0.329881 0.183003
H74   H     H_    0.173542 0.831064 0.255366 0.115301
O31   O     O_3   0.199313 0.089047 0.420093 -0.563201
C67   C     C_3   0.109249 0.086633 0.416886 -0.352498
H75   H     H_    0.081343 0.135483 0.487655 0.181603
H76   H     H_    0.087300 0.024345 0.458272 0.216581
H77   H     H_    0.082457 0.091241 0.310049 0.179702
O32   O     O_3   0.280374 0.155246 0.252303 -0.605532
C68   C     C_3   0.224716 0.134099 0.138633 -0.348151
H78   H     H_    0.263657 0.114826 0.048709 0.143131
H79   H     H_    0.185782 0.190847 0.106844 0.143334
H80   H     H_    0.183682 0.077565 0.157507 0.186005
O33   O     O_3   0.032798 0.652760 0.142687 -0.577481
C69   C     C_3   0.991465 0.729196 0.190284 -0.282316
H81   H     H_    0.981014 0.723681 0.301967 0.182350
H82   H     H_    0.931666 0.743903 0.131150 0.173798
H83   H     H_    0.034560 0.785741 0.179372 0.138677
O34   O     O_3   0.990361 0.658579 0.846012 -0.527651
C70   C     C_3   0.064822 0.704444 0.888747 -0.149070
H84   H     H_    0.097297 0.724417 0.796653 0.140706
H85   H     H_    0.112365 0.667764 0.949351 0.145619
H86   H     H_    0.047510 0.766496 0.942599 0.167537
O35   O     O_3   0.933582 0.352642 0.131398 -0.481601
C71   C     C_3   0.861033 0.306191 0.073767 -0.289611
H87   H     H_    0.853511 0.306135 0.959974 0.119790
H88   H     H_    0.801313 0.333863 0.113675 0.180834
H89   H     H_    0.866848 0.235549 0.094327 0.183507
O36   O     O_3   0.980708 0.345796 0.847326 -0.519715
C72   C     C_3   0.031791 0.288595 0.927495 -0.164241
H90   H     H_    0.994367 0.230285 0.954544 0.169823
H91   H     H_    0.061465 0.316855 0.021873 0.159916
H92   H     H_    0.083903 0.263452 0.863502 0.131867
O37   O     O_3   0.539057 0.153343 0.138399 -0.547288
C73   C     C_3   0.498345 0.224421 0.207826 -0.279107
H93   H     H_    0.497932 0.214125 0.320248 0.184370
H94   H     H_    0.432672 0.238166 0.170124 0.136014
H95   H     H_    0.533984 0.285074 0.191103 0.132641
O38   O     O_3   0.521745 0.151981 0.852561 -0.534412
C74   C     C_3   0.505506 0.239166 0.893438 -0.220763
H96   H     H_    0.504189 0.279949 0.800913 0.184100
H97   H     H_    0.560213 0.264909 0.956820 0.167079
H98   H     H_    0.445306 0.247900 0.948213 0.166721
O39   O     O_3   0.414256 0.862800 0.127225 -0.449814
C75   C     C_3   0.338150 0.825154 0.064278 -0.293889
H99   H     H_    0.330974 0.825257 0.951165 0.107053
H100  H     H_    0.281286 0.859565 0.102343 0.136939
H101  H     H_    0.335655 0.754087 0.082188 0.153041
O40   O     O_3   0.513774 0.850736 0.927546 -0.572092
C76   C     C_3   0.496212 0.780550 0.838763 -0.255786
H102  H     H_    0.439118 0.745185 0.871286 0.147367
H103  H     H_    0.549333 0.733445 0.848065 0.163049
H104  H     H_    0.494179 0.804018 0.732812 0.243957

loop_
_geom_bond_atom_site_label_1
_geom_bond_atom_site_label_2
_ccdc_geom_bond_type
C16   C28   S    
C9    C33   S    
Cu3   Cu4   S    
Cu3   O13   S    
C69   H81   S    
Cu2   O12   S    
C47   O35   S    
C62   H61   S    
C9    O9    A    
O29   C65   S    
C4    O7    A    
C30   O28   S    
C16   C56   S    
O40   C76   S    
C14   C33   S    
C75   H100  S    
C7    N3    S    
C7    C8    S    
C66   H73   S    
C5    N1    S    
C45   C46   S    
C57   O21   D    
C2    O4    A    
C64   H66   S    
Cu3   O7    S    
C25   H21   S    
Cu4   O16   S    
O28   C64   S    
C58   O22   D    
C38   C42   S    
C27   H23   S    
C19   C36   S    
C74   H97   S    
C5    C6    S    
Cu1   O9    S    
C26   C39   S    
C68   H79   S    
C13   H1    S    
C65   H69   S    
C50   O38   S    
C59   H55   S    
C21   H17   S    
C76   H104  S    
C14   C54   S    
O32   C68   S    
Cu2   O2    S    
C21   C37   S    
C16   H4    S    
C23   H11   S    
C49   C50   S    
C20   C24   S    
O30   C66   S    
C22   H10   S    
C10   O11   A    
C69   H83   S    
C17   H5    S    
C18   H6    S    
Cu1   N2    S    
C48   N2    S    
C11   O13   A    
C29   C33   S    
C19   H7    S    
C71   H87   S    
C47   N1    S    
C61   H59   S    
C51   H39   S    
C47   C48   S    
C24   C38   S    
C32   O31   S    
C12   C36   S    
C44   H31   S    
C45   H33   S    
C18   C35   S    
C15   C34   S    
C67   H77   S    
C70   H86   S    
C16   C34   S    
Cu1   O3    S    
O34   C70   S    
O35   C71   S    
C64   H67   S    
C7    H47   S    
C29   C43   S    
C62   H62   S    
C50   N4    S    
C9    O10   A    
C30   C44   S    
C28   H16   S    
C15   H3    S    
C51   N3    S    
C8    N4    S    
C75   H99   S    
C45   N1    S    
C46   O34   S    
C66   H74   S    
C60   O24   D    
C72   H91   S    
C6    N2    S    
C30   O27   S    
C14   H2    S    
O37   C73   S    
Cu3   O15   S    
C2    O3    A    
C19   C59   S    
C30   C34   S    
C51   C52   S    
C43   H29   S    
C63   H65   S    
C5    H43   S    
C42   H28   S    
C58   H54   S    
C54   H50   S    
C49   N3    S    
C3    O5    A    
C74   H98   S    
O39   C75   S    
O38   C74   S    
C50   H38   S    
C68   H80   S    
C39   C43   S    
C31   O29   S    
C51   O39   S    
Cu1   Cu2   S    
C22   C37   S    
C1    O1    A    
C70   H84   S    
C63   H64   S    
C20   H8    S    
C19   C23   S    
C74   H96   S    
Cu4   N3    S    
C13   C33   S    
C1    O2    A    
C15   C27   S    
O27   C63   S    
C12   O16   A    
C4    C39   S    
C27   C40   S    
C41   H25   S    
C55   O19   D    
C76   H102  S    
Cu4   O8    S    
Cu2   O4    S    
C10   C34   S    
C26   H22   S    
C14   C26   S    
C18   C58   S    
C8    H48   S    
O26   C62   S    
C1    C38   S    
C32   O32   S    
C45   O33   S    
C5    H41   S    
C3    C40   S    
C52   O40   S    
C64   H68   S    
C73   H94   S    
Cu2   O10   S    
C48   H36   S    
C53   H49   S    
C26   H14   S    
C20   C60   S    
C11   O14   A    
C25   H13   S    
C22   H18   S    
C55   H51   S    
C23   C38   S    
C6    H42   S    
Cu1   O11   S    
C27   H15   S    
C67   H75   S    
C60   H56   S    
C72   H92   S    
Cu1   O1    S    
C59   O23   D    
C72   H90   S    
C69   H82   S    
C31   C41   S    
Cu2   N1    S    
C21   H9    S    
C18   C22   S    
C43   H30   S    
C47   H35   S    
C4    O8    A    
C24   H20   S    
C42   H27   S    
C23   H19   S    
C13   C25   S    
C3    O6    A    
C54   O18   D    
C56   O20   D    
C32   C36   S    
C56   H52   S    
C46   H34   S    
C73   H95   S    
Cu3   O5    S    
C57   H53   S    
C48   O36   S    
Cu3   N4    S    
C63   H63   S    
C11   C35   S    
C13   C53   S    
C66   H72   S    
O25   C61   S    
C25   C39   S    
C67   H76   S    
C2    C37   S    
C68   H78   S    
C32   C42   S    
C12   O15   A    
C65   H70   S    
C71   H89   S    
C41   H26   S    
C46   N2    S    
C31   C35   S    
C76   H103  S    
C6    H44   S    
C52   H40   S    
C61   H58   S    
C37   C41   S    
O33   C69   S    
C28   H24   S    
C17   C21   S    
C10   O12   A    
C24   H12   S    
C29   O25   S    
O31   C67   S    
C20   C36   S    
Cu4   O6    S    
C40   C44   S    
C15   C55   S    
O36   C72   S    
C52   N4    S    
C71   H88   S    
C73   H93   S    
C7    H45   S    
C49   O37   S    
C62   H60   S    
C53   O17   D    
C28   C40   S    
C61   H57   S    
C17   C57   S    
C17   C35   S    
C49   H37   S    
C44   H32   S    
C8    H46   S    
C65   H71   S    
C75   H101  S    
Cu4   O14   S    
C29   O26   S    
C70   H85   S    
C31   O30   S    
