data_mof_unit_66998.cif
_audit_creation_date              2012-12-11T17:41:03-0500
_audit_creation_method            fapswitch 2.2
_symmetry_space_group_name_H-M    P1
_symmetry_Int_Tables_number       1
_space_group_crystal_system       triclinic
_cell_length_a                    8.264092
_cell_length_b                    12.900437
_cell_length_c                    14.454288
_cell_angle_alpha                 93.675332
_cell_angle_beta                  91.514114
_cell_angle_gamma                 98.548144
_cell_volume                      1519.71559991

loop_
_atom_site_label
_atom_site_type_symbol
_atom_type_description
_atom_site_fract_x
_atom_site_fract_y
_atom_site_fract_z
_atom_type_partial_charge
Ba1   Ba    Ba6+2 0.855630 0.555280 0.454520 1.731324
Ba2   Ba    Ba6+2 0.334200 0.444810 0.545490 1.760826
C1    C     C_3   0.578470 0.932512 0.184301 -0.297556
C2    C     C_3   0.637273 0.847978 0.239106 0.293946
C3    C     C_3   0.519704 0.308413 0.258352 0.347342
C4    C     C_3   0.615561 0.301588 0.170593 0.327803
C5    C     C_3   0.040850 0.065449 0.788541 0.205909
C6    C     C_3   0.094974 0.077411 0.892353 0.343928
C7    C     C_3   0.567057 0.165304 0.769118 0.398635
C8    C     C_3   0.564301 0.061836 0.812504 -0.264637
C9    C     C_R   0.981391 0.456817 0.059608 0.060914
C10   C     C_R   0.180734 0.499486 0.195916 0.009617
C11   C     C_R   0.338561 0.546083 0.225765 -0.281940
C12   C     C_3   0.138617 0.803380 0.200003 0.345435
C13   C     C_R   0.450857 0.592019 0.164265 0.026311
C14   C     C_R   0.406332 0.596606 0.071103 -0.168636
C15   C     C_R   0.249054 0.552986 0.037023 -0.004674
C16   C     C_R   0.135117 0.502100 0.098476 -0.008755
C17   C     C_R   0.053819 0.510628 0.902751 -0.013803
C18   C     C_R   0.938232 0.463931 0.964882 0.036454
C19   C     C_R   0.009178 0.506501 0.804883 0.059067
C20   C     C_R   0.854479 0.455343 0.774464 -0.278063
C21   C     C_R   0.737936 0.419036 0.837061 -0.002466
C22   C     C_R   0.778553 0.424774 0.931690 -0.030183
C23   C     C_3   0.120714 0.840764 0.103079 -0.369587
C24   C     C_R   0.207635 0.557831 0.941426 -0.045062
C25   C     C_R   0.740483 0.175313 0.560570 -0.154685
C26   C     C_R   0.431434 0.814378 0.462512 -0.282767
C27   C     C_R   0.406652 0.993076 0.431493 -0.108784
C28   C     C_R   0.342158 0.886670 0.425523 0.009401
C29   C     C_R   0.577508 0.847145 0.514299 0.025297
C30   C     C_R   0.639189 0.957451 0.527014 -0.044026
C31   C     C_R   0.552905 0.030754 0.483238 -0.044361
C32   C     C_R   0.609717 0.140407 0.496863 0.120464
C33   C     C_R   0.840502 0.105610 0.593580 0.001714
C34   C     C_3   0.285587 0.747022 0.669701 0.354259
C35   C     C_R   0.784618 0.997010 0.580384 -0.084808
C36   C     C_3   0.346439 0.860600 0.702152 -0.305627
C37   C     C_3   0.091825 0.228955 0.289643 0.641006
C38   C     C_3   0.136611 0.146907 0.218602 -0.243931
C39   C     C_3   0.719011 0.675959 0.735348 0.302293
C40   C     C_3   0.748648 0.704352 0.839254 -0.382408
H1    H     H_    0.730122 0.885373 0.293021 0.120447
H2    H     H_    0.481017 0.875218 0.698378 0.032364
H3    H     H_    0.313440 0.875391 0.775101 0.107456
H4    H     H_    0.203793 0.271714 0.324347 0.000126
H5    H     H_    0.026692 0.097564 0.184908 0.123763
H6    H     H_    0.215438 0.095698 0.251125 0.115966
H7    H     H_    0.206190 0.188997 0.165737 0.198586
H8    H     H_    0.827850 0.646151 0.706541 0.025923
H9    H     H_    0.609181 0.614360 0.724671 0.036239
H10   H     H_    0.683956 0.979430 0.153146 0.162170
H11   H     H_    0.866247 0.760568 0.852038 0.129251
H12   H     H_    0.756825 0.632261 0.876380 0.034739
H13   H     H_    0.644332 0.742222 0.867627 0.122611
H14   H     H_    0.529725 0.808603 0.274902 -0.054656
H15   H     H_    0.516641 0.985138 0.230648 0.127635
H16   H     H_    0.396638 0.324249 0.238472 -0.141017
H17   H     H_    0.580729 0.379568 0.298687 0.015505
H18   H     H_    0.645023 0.382310 0.147524 -0.107629
H19   H     H_    0.729315 0.269639 0.184363 0.099893
H20   H     H_    0.490905 0.895897 0.127682 0.122768
H21   H     H_    0.162796 0.784174 0.051305 0.066099
H22   H     H_    0.909450 0.074657 0.779660 0.004635
H23   H     H_    0.050926 0.984376 0.761775 0.021499
H24   H     H_    0.223081 0.119848 0.902117 0.155700
H25   H     H_    0.093380 0.998410 0.919874 -0.091935
H26   H     H_    0.696808 0.198690 0.758840 -0.041027
H27   H     H_    0.501363 0.151372 0.700626 -0.011167
H28   H     H_    0.628370 0.072608 0.880474 0.252888
H29   H     H_    0.628047 0.009274 0.767881 0.008010
H30   H     H_    0.058202 0.726768 0.202919 0.089335
H31   H     H_    0.436052 0.028588 0.824028 0.073329
H32   H     H_    0.376560 0.543906 0.297741 0.053519
H33   H     H_    0.495115 0.634162 0.025173 0.070475
H34   H     H_    0.685975 0.397729 0.979256 0.096086
H35   H     H_    0.820634 0.449211 0.701251 0.045235
H36   H     H_    0.894707 0.414516 0.102535 0.102438
H37   H     H_    0.297487 0.597588 0.897569 0.085781
H38   H     H_    0.336622 0.046030 0.399541 0.124502
H39   H     H_    0.855607 0.944429 0.611540 0.141271
H40   H     H_    0.778066 0.258948 0.574645 0.058785
H41   H     H_    0.267759 0.792272 0.212253 -0.082692
H42   H     H_    0.381555 0.731714 0.455562 0.053817
H43   H     H_    0.990522 0.846501 0.086663 0.141636
H44   H     H_    0.195336 0.919188 0.098569 0.150668
H45   H     H_    0.393188 0.704498 0.670412 0.018680
H46   H     H_    0.229596 0.738437 0.597133 0.036723
O1    O     O_2   0.887370 0.460630 0.272300 -0.475735
O2    O     O_3   0.694010 0.767156 0.693555 -0.646817
O3    O     O_3   0.092759 0.878091 0.265305 -0.588905
O4    O     O_2   0.302330 0.539400 0.727760 -0.493002
O5    O     O_3   0.060300 0.548700 0.611500 -0.483751
O6    O     O_3   0.519500 0.346920 0.670840 -0.511251
O7    O     O_3   0.170732 0.707889 0.732669 -0.645457
O8    O     O_3   0.614310 0.373510 0.452640 -0.484100
O9    O     O_3   0.100780 0.295230 0.623970 -0.415251
O10   O     O_2   0.178685 0.119761 0.565889 -0.393593
O11   O     O_3   0.145518 0.139182 0.742271 -0.597786
O12   O     O_3   0.129410 0.451380 0.388510 -0.469046
O13   O     O_3   0.575400 0.626570 0.547370 -0.517818
O14   O     O_2   0.344320 0.238700 0.455090 -0.453235
O15   O     O_3   0.512433 0.214248 0.304923 -0.626590
O16   O     O_2   0.394988 0.412934 0.830360 -0.458518
O17   O     O_3   0.487542 0.231085 0.827260 -0.506370
O18   O     O_3   0.670210 0.653170 0.329170 -0.481490
O19   O     O_2   0.790878 0.592051 0.169174 -0.511685
O20   O     O_3   0.997208 0.294820 0.248470 -0.650869
O21   O     O_3   0.709681 0.779968 0.178449 -0.595578
O22   O     O_2   0.845380 0.761330 0.544970 -0.416681
O23   O     O_3   0.088930 0.704860 0.376040 -0.509014
O24   O     O_2   0.001540 0.881654 0.436516 -0.365658
P1    P     P_3+3 0.054400 0.427280 0.286870 1.018841
P2    P     P_3+3 0.668300 0.742890 0.573060 0.959666
P3    P     P_3+3 0.133285 0.840268 0.376734 1.050047
P4    P     P_3+3 0.135310 0.572810 0.713130 0.966524
P5    P     P_3+3 0.058113 0.159856 0.633968 1.114412
P6    P     P_3+3 0.655677 0.650717 0.208842 0.949571
P7    P     P_3+3 0.527407 0.240446 0.426587 1.025989
P8    P     P_3+3 0.534803 0.357750 0.791878 1.037247
C41   C     C_2   0.278103 0.935047 0.643504 0.420144
H47   H     H_    0.353386 0.008002 0.630564 0.022773
O25   O     O_2   0.138157 0.915416 0.611532 -0.565095
S1    S     S_3+6 0.969955 0.166705 0.371868 -0.091379
O26   O     O_2   0.047547 0.078920 0.406678 -0.303371
O27   O     O_2   0.964212 0.251697 0.446364 -0.336354
O28   O     O_3   0.781445 0.119042 0.327232 -0.566862
H48   H     H_    0.789167 0.119346 0.259176 0.324246
S2    S     S_3+6 0.505740 0.224034 0.077000 -0.079175
O29   O     O_2   0.434577 0.117476 0.105898 -0.320473
O30   O     O_2   0.621933 0.209686 0.001984 -0.213483
O31   O     O_3   0.359164 0.287677 0.035796 -0.476959
H49   H     H_    0.411161 0.361573 0.033638 0.308588
S3    S     S_3+6 0.961832 0.147993 0.958607 -0.059109
O32   O     O_2   0.051961 0.219735 0.034566 -0.256505
O33   O     O_2   0.881535 0.215465 0.896146 -0.316613
O34   O     O_3   0.821400 0.060943 0.005969 -0.502875
H50   H     H_    0.885211 0.010981 0.034592 0.306788

loop_
_geom_bond_atom_site_label_1
_geom_bond_atom_site_label_2
_ccdc_geom_bond_type
C38   H5    S    
C2    O21   S    
C3    O15   S    
C9    C16   A    
C6    H24   S    
C26   H42   S    
C14   H33   S    
C39   C40   S    
O8    P7    S    
C17   C18   A    
S3    O34   S    
C5    C6    S    
C34   H46   S    
C5    O11   S    
C3    H16   S    
C15   C24   A    
C4    H19   S    
C17   C19   A    
C7    H27   S    
C10   P1    S    
C19   P4    S    
C40   H11   S    
C3    C4    S    
C40   H13   S    
C8    H31   S    
O11   P5    S    
Ba2   O14   S    
C7    O17   S    
C13   C14   A    
C27   C31   A    
C8    H28   S    
Ba1   Ba2   S    
C23   H21   S    
C17   C24   A    
C36   H3    S    
Ba2   P4    S    
C18   C22   A    
Ba2   O9    S    
O31   H49   S    
C21   C22   A    
O17   P8    S    
C7    C8    S    
O22   P2    D    
C29   P2    S    
Ba2   O5    S    
Ba1   O18   S    
S2    O31   S    
C8    H29   S    
C39   O2    S    
Ba2   O12   S    
C25   C32   A    
C19   C20   A    
O18   P6    S    
O13   P2    S    
C35   H39   S    
Ba1   P1    S    
C12   H41   S    
C4    S2    S    
Ba1   O12   S    
O21   P6    S    
C31   C32   A    
C28   P3    S    
C26   C29   A    
C34   H45   S    
C37   O20   S    
C5    H22   S    
O1    P1    D    
C9    C18   A    
C3    H17   S    
C6    S3    S    
C4    H18   S    
Ba2   O6    S    
C21   P8    S    
C22   H34   S    
S3    O33   D    
Ba2   O13   S    
C25   C33   A    
Ba2   O8    S    
C37   S1    S    
O5    P4    S    
O20   P1    S    
C36   H2    S    
C27   C28   A    
C9    H36   S    
Ba1   O22   S    
C5    H23   S    
C29   C30   A    
O7    P4    S    
C23   H43   S    
C15   C16   A    
C1    C2    S    
C30   C35   A    
C10   C11   A    
Ba2   O4    S    
O4    P4    D    
C41   H47   S    
C37   H4    S    
C1    H15   S    
S1    O28   S    
C33   P5    S    
Ba1   P2    S    
O28   H48   S    
Ba1   O13   S    
C39   H8    S    
C37   C38   S    
O10   P5    D    
S1    O27   D    
S2    O29   D    
C1    H20   S    
C32   P7    S    
C38   H6    S    
Ba1   O1    S    
O19   P6    D    
C33   C35   A    
C12   H30   S    
C25   H40   S    
O15   P7    S    
O12   P1    S    
C20   H35   S    
C1    H10   S    
S3    O32   D    
C2    H1    S    
O34   H50   S    
O6    P8    S    
C24   H37   S    
C13   P6    S    
C40   H12   S    
C30   C31   A    
C11   C13   A    
C7    H26   S    
C26   C28   A    
Ba1   O23   S    
C34   O7    S    
C14   C15   A    
C27   H38   S    
Ba1   O8    S    
C34   C36   S    
C23   H44   S    
O3    P3    S    
O2    P2    S    
C12   C23   S    
O9    P5    S    
C12   O3    S    
C41   O25   D    
C36   C41   S    
C11   H32   S    
C6    H25   S    
Ba1   O5    S    
C10   C16   A    
C20   C21   A    
O23   P3    S    
S2    O30   D    
C39   H9    S    
O24   P3    D    
C2    H14   S    
O14   P7    D    
C38   H7    S    
S1    O26   D    
O16   P8    D    
