data_mof_unit_46582.cif
_audit_creation_date              2012-12-10T17:46:58-0500
_audit_creation_method            fapswitch 2.2
_symmetry_space_group_name_H-M    P1
_symmetry_Int_Tables_number       1
_space_group_crystal_system       triclinic
_cell_length_a                    9.937619
_cell_length_b                    10.707707
_cell_length_c                    13.596582
_cell_angle_alpha                 92.346372
_cell_angle_beta                  81.539962
_cell_angle_gamma                 91.575793
_cell_volume                      1429.51971836

loop_
_atom_site_label
_atom_site_type_symbol
_atom_type_description
_atom_site_fract_x
_atom_site_fract_y
_atom_site_fract_z
_atom_type_partial_charge
C1    C     C_R   0.504151 0.737571 0.485734 0.875611
C2    C     C_R   0.628914 0.938391 0.471380 0.439873
C3    C     C_R   0.618903 0.065906 0.487922 -0.335443
C4    C     C_R   0.474366 0.499689 0.685777 0.866276
C5    C     C_R   0.492801 0.123787 0.495681 -0.172201
C6    C     C_R   0.841694 0.689892 0.603877 -0.010320
C7    C     C_R   0.903008 0.799491 0.634403 -0.175648
C8    C     C_R   0.042445 0.805811 0.630579 -0.244368
C9    C     C_R   0.117385 0.697253 0.607235 0.020467
C10   C     C_R   0.063180 0.595269 0.552448 0.132889
C11   C     C_R   0.919105 0.594266 0.551169 0.150689
C12   C     C_1   0.454557 0.501153 0.790158 -0.075561
C13   C     C_R   0.936116 0.409910 0.450517 -0.110247
C14   C     C_R   0.078985 0.410109 0.450325 -0.125106
C15   C     C_R   0.496960 0.259034 0.502055 0.901150
C16   C     C_R   0.525888 0.500099 0.314164 0.888377
C17   C     C_1   0.548218 0.505696 0.210020 -0.154479
C18   C     C_2   0.571864 0.517508 0.017502 0.004877
C19   C     C_2   0.453267 0.505660 0.981575 -0.193769
C20   C     C_1   0.447791 0.503185 0.878155 0.096892
C21   C     C_1   0.563670 0.511470 0.121976 -0.109284
C22   C     C_2   0.202571 0.678845 0.683860 0.526488
C23   C     C_R   0.284931 0.864984 0.403781 -0.125575
C24   C     C_2   0.708998 0.534820 0.958074 0.440224
C25   C     C_R   0.158413 0.918934 0.407220 -0.118855
C26   C     C_R   0.134088 0.034254 0.456122 -0.168351
C27   C     C_R   0.239599 0.100276 0.493481 -0.161061
C28   C     C_R   0.373694 0.053150 0.479675 0.094922
C29   C     C_R   0.389976 0.927892 0.447454 0.019625
C30   C     C_R   0.510148 0.868403 0.462198 -0.174723
H1    H     H_    0.357736 0.493754 0.031150 0.153792
H2    H     H_    0.711125 0.119461 0.495600 0.167707
H3    H     H_    0.888824 0.336217 0.409816 0.140806
H4    H     H_    0.293197 0.736869 0.687441 0.020511
H5    H     H_    0.798034 0.538265 0.995877 0.070880
H6    H     H_    0.825766 0.944616 0.470137 0.318139
H7    H     H_    0.734353 0.682284 0.624418 0.198462
H8    H     H_    0.841482 0.876008 0.668456 0.160417
H9    H     H_    0.086078 0.886567 0.666245 0.149695
H10   H     H_    0.138562 0.336938 0.409184 0.149209
H11   H     H_    0.300321 0.774230 0.366334 0.158583
H12   H     H_    0.077740 0.868935 0.375695 0.156175
H13   H     H_    0.033557 0.073311 0.464807 0.123795
H14   H     H_    0.210990 0.184728 0.536150 0.174563
N1    N     N_R   0.857120 0.501200 0.500900 -0.115241
N2    N     N_R   0.142720 0.501280 0.500940 -0.118316
O1    O     O_R   0.385310 0.683220 0.500000 -0.668283
O2    O     O_2   0.725101 0.546432 0.868141 -0.564379
O3    O     O_3   0.753167 0.880977 0.463131 -0.760522
O4    O     O_R   0.614640 0.683250 0.500010 -0.578818
O5    O     O_R   0.368830 0.499960 0.640340 -0.593879
O6    O     O_R   0.598160 0.499980 0.640350 -0.611355
O7    O     O_R   0.385360 0.316750 0.499990 -0.635036
O8    O     O_R   0.614690 0.316780 0.500000 -0.619887
O9    O     O_R   0.401840 0.500020 0.359650 -0.617252
O10   O     O_R   0.631170 0.500040 0.359660 -0.604837
O11   O     O_2   0.164060 0.607210 0.750463 -0.570123
Zn1   Zn    Zn3+2 0.346870 0.499980 0.499990 0.943248
Zn2   Zn    Zn3+2 0.653130 0.500020 0.500010 0.968576

loop_
_geom_bond_atom_site_label_1
_geom_bond_atom_site_label_2
_ccdc_geom_bond_type
C25   H12   S    
C10   N2    A    
O7    Zn1   S    
C16   O10   A    
C13   H3    S    
C6    C7    A    
C8    H9    S    
C4    C12   S    
C18   C21   S    
C9    C10   A    
C19   C20   S    
C23   H11   S    
O10   Zn2   S    
C2    C30   A    
C19   H1    S    
C12   C20   T    
C22   O11   D    
C2    C3    A    
C16   O9    A    
C7    C8    A    
C14   N2    A    
O5    Zn1   S    
C13   C14   A    
N2    Zn1   S    
O1    Zn1   S    
C13   N1    A    
C26   C27   A    
C29   C30   A    
C4    O6    A    
C18   C24   S    
O4    Zn2   S    
C23   C29   A    
C1    C30   S    
C28   C29   A    
C2    O3    S    
C7    H8    S    
C26   H13   S    
O8    Zn2   S    
C23   C25   A    
C3    H2    S    
C22   H4    S    
C9    C22   S    
C11   N1    A    
C24   H5    S    
C5    C15   S    
C10   C11   A    
C4    O5    A    
C14   H10   S    
C5    C28   A    
C15   O8    A    
C15   O7    A    
C27   C28   A    
N1    Zn2   S    
C18   C19   D    
C1    O4    A    
O9    Zn1   S    
C6    C11   A    
C1    O1    A    
O6    Zn2   S    
C25   C26   A    
C27   H14   S    
C17   C21   T    
H6    O3    S    
C16   C17   S    
C6    H7    S    
C8    C9    A    
C3    C5    A    
C24   O2    D    
