data_mof_unit_16258.cif
_audit_creation_date              2012-12-10T16:49:24-0500
_audit_creation_method            fapswitch 2.2
_symmetry_space_group_name_H-M    P1
_symmetry_Int_Tables_number       1
_space_group_crystal_system       triclinic
_cell_length_a                    7.76113
_cell_length_b                    8.57429
_cell_length_c                    12.776434
_cell_angle_alpha                 90.490991
_cell_angle_beta                  86.894702
_cell_angle_gamma                 93.391164
_cell_volume                      847.475594979

loop_
_atom_site_label
_atom_site_type_symbol
_atom_type_description
_atom_site_fract_x
_atom_site_fract_y
_atom_site_fract_z
_atom_type_partial_charge
Br1   Br    Br    0.430411 0.796190 0.194110 -0.454934
Br2   Br    Br    0.569589 0.203810 0.805890 -0.454934
Br3   Br    Br    0.715146 0.187838 0.224705 -0.426147
Br4   Br    Br    0.284854 0.812162 0.775295 -0.426147
C1    C     C_R   0.454828 0.205346 0.497333 0.990022
C2    C     C_R   0.622059 0.348490 0.144123 0.214146
C3    C     C_R   0.507446 0.399863 0.870990 0.198200
C4    C     C_R   0.492554 0.600137 0.129010 0.198200
C5    C     C_R   0.528208 0.429286 0.977189 0.010435
C6    C     C_R   0.471792 0.570714 0.022811 0.010435
C7    C     C_2   0.431021 0.041932 0.495770 -0.272021
C8    C     C_2   0.568979 0.958068 0.504230 -0.272021
C9    C     C_R   0.545172 0.794654 0.502667 0.990022
C10   C     C_R   0.464237 0.504007 0.699572 0.970690
C11   C     C_R   0.535763 0.495993 0.300428 0.970690
C12   C     C_R   0.559842 0.485126 0.189268 -0.181621
C13   C     C_R   0.440158 0.514874 0.810732 -0.181621
C14   C     C_R   0.392966 0.678111 0.961730 -0.128442
C15   C     C_R   0.607034 0.321889 0.038270 -0.128442
C16   C     C_R   0.377941 0.651510 0.855877 0.214146
H1    H     H_    0.345801 0.785247 0.994238 0.227537
H2    H     H_    0.654198 0.214752 0.005762 0.227537
H3    H     H_    0.999223 0.615400 0.421840 0.211984
H4    H     H_    0.000777 0.384600 0.578160 0.211985
H5    H     H_    0.300601 0.991144 0.487670 0.189086
H6    H     H_    0.699399 0.008856 0.512330 0.189086
N1    N     N_2   0.054030 0.541640 0.471970 -0.155315
N2    N     N_2   0.945970 0.458360 0.528030 -0.155316
O1    O     O_R   0.609680 0.261530 0.506880 -0.596015
O2    O     O_R   0.390320 0.738470 0.493120 -0.596015
O3    O     O_R   0.323330 0.288220 0.488910 -0.632340
O4    O     O_R   0.676670 0.711780 0.511090 -0.632339
O5    O     O_R   0.619510 0.488830 0.661140 -0.589281
O6    O     O_R   0.380490 0.511170 0.338860 -0.589281
O7    O     O_R   0.333160 0.515520 0.643180 -0.603914
O8    O     O_R   0.666840 0.484480 0.356820 -0.603914
Zn1   Zn    Zn3+2 0.691200 0.482180 0.511990 1.027930
Zn2   Zn    Zn3+2 0.308800 0.517820 0.488010 1.027930

loop_
_geom_bond_atom_site_label_1
_geom_bond_atom_site_label_2
_ccdc_geom_bond_type
C7    C8    D    
H3    N1    S    
Br1   C4    S    
C5    C6    A    
C11   O8    A    
C11   O6    A    
C14   C16   A    
Br2   C3    S    
O3    Zn2   S    
Br3   C2    S    
O7    Zn2   S    
C10   O5    A    
C4    C12   A    
O4    Zn1   S    
C2    C15   A    
C10   C13   S    
N2    Zn1   S    
C6    C14   A    
O8    Zn1   S    
C1    C7    S    
C1    O1    A    
C7    H5    S    
N1    Zn2   S    
C2    C12   A    
C11   C12   S    
C14   H1    S    
C9    O2    A    
N1    N2    D    
C15   H2    S    
C8    C9    S    
O2    Zn2   S    
C4    C6    A    
O1    Zn1   S    
C10   O7    A    
C3    C5    A    
C9    O4    A    
C1    O3    A    
O6    Zn2   S    
C13   C16   A    
C5    C15   A    
O5    Zn1   S    
H4    N2    S    
C8    H6    S    
C3    C13   A    
Br4   C16   S    
