data_mof_unit_28772.cif
_audit_creation_date              2013-03-05T16:04:19-0500
_audit_creation_method            fapswitch 2.2
_symmetry_space_group_name_H-M    P1
_symmetry_Int_Tables_number       1
_space_group_crystal_system       triclinic
_cell_length_a                    9.520572
_cell_length_b                    10.815912
_cell_length_c                    13.417294
_cell_angle_alpha                 90.797019
_cell_angle_beta                  73.44972
_cell_angle_gamma                 89.280786
_cell_volume                      1324.06259673

loop_
_atom_site_label
_atom_site_type_symbol
_atom_site_description
_atom_site_fract_x
_atom_site_fract_y
_atom_site_fract_z
_atom_type_partial_charge
O1    O     O_R   0.381250 0.680340 0.500010 -0.562697
O2    O     O_R   0.618820 0.680370 0.500010 -0.586922
C1    C     C_R   0.500134 0.737706 0.497746 0.909398
O3    O     O_R   0.323240 0.499950 0.650980 -0.559019
O4    O     O_R   0.560810 0.499980 0.650980 -0.556113
C2    C     C_R   0.422407 0.500102 0.699925 0.876614
Cu1   Cu    Cu3+1 0.359340 0.499980 0.500000 0.997828
Cu2   Cu    Cu3+1 0.640660 0.500020 0.500000 1.038732
O5    O     O_R   0.381180 0.319630 0.499990 -0.559829
O6    O     O_R   0.618750 0.319660 0.499990 -0.507817
O7    O     O_R   0.439190 0.500020 0.349020 -0.559933
O8    O     O_R   0.676760 0.500050 0.349020 -0.519233
C3    C     C_R   0.501252 0.262189 0.498998 0.878215
C4    C     C_R   0.576960 0.506782 0.300080 0.840126
C5    C     C_R   0.783084 0.599248 0.026240 -0.241460
H1    H     H_    0.775791 0.703272 0.844708 0.143126
H2    H     H_    0.890803 0.630632 0.983560 0.162105
C6    C     C_R   0.615056 0.528603 0.187225 -0.244563
C7    C     C_R   0.277065 0.392515 0.855630 0.494991
C8    C     C_R   0.261997 0.352110 0.956476 -0.237645
C9    C     C_R   0.347089 0.401671 0.015004 -0.273409
C10   C     C_R   0.443279 0.498767 0.976828 0.045738
C11   C     C_R   0.462114 0.540123 0.874451 -0.082187
C12   C     C_R   0.534764 0.545553 0.033873 -0.001494
C13   C     C_R   0.668851 0.597483 0.979730 -0.025349
C14   C     C_R   0.682560 0.647234 0.881971 -0.241503
C15   C     C_R   0.568779 0.632277 0.836010 0.508903
C16   C     C_R   0.498499 0.543689 0.142760 0.347206
C17   C     C_R   0.759999 0.551391 0.126370 0.437023
C18   C     C_R   0.379450 0.484979 0.813089 -0.201617
H3    H     H_    0.188410 0.277743 0.987998 0.138819
C19   C     C_R   0.592608 0.933960 0.542293 -0.392067
C20   C     C_R   0.594653 0.063221 0.545053 0.447538
C21   C     C_R   0.504764 0.128057 0.495594 -0.298034
C22   C     C_R   0.419394 0.065154 0.441340 0.330433
C23   C     C_R   0.410858 0.936464 0.445918 0.405459
C24   C     C_R   0.500625 0.871491 0.494788 -0.257484
C25   C     C_R   0.900304 0.582259 0.560676 -0.135820
C26   C     C_R   0.048729 0.581732 0.561068 -0.033433
N1    N     N_R   0.147940 0.499970 0.499970 -0.168059
C27   C     C_R   0.100428 0.417241 0.439706 -0.155544
C28   C     C_R   0.949634 0.415225 0.439923 0.632739
N2    N     N_R   0.852060 0.500060 0.499990 -0.189174
O9    O     O_3   0.877284 0.537247 0.166455 -0.563261
C29   C     C_3   0.932589 0.415705 0.141747 -0.280212
H4    H     H_    0.850886 0.346273 0.181203 0.176395
H5    H     H_    0.030806 0.403234 0.169354 0.183801
H6    H     H_    0.966031 0.397920 0.056241 0.156695
O10   O     O_3   0.669953 0.130061 0.602922 -0.553659
C30   C     C_3   0.799975 0.070251 0.608805 -0.301953
H7    H     H_    0.872357 0.140630 0.628116 0.189460
H8    H     H_    0.861709 0.025397 0.533653 0.134841
H9    H     H_    0.774994 0.002191 0.672468 0.164627
O11   O     O_3   0.340050 0.129387 0.386368 -0.575952
C31   C     C_3   0.430452 0.146120 0.284296 -0.293570
H10   H     H_    0.528756 0.201091 0.283740 0.130264
H11   H     H_    0.367326 0.198612 0.240506 0.155539
H12   H     H_    0.464020 0.055786 0.243083 0.192775
O12   O     O_3   0.327348 0.873292 0.393222 -0.529244
C32   C     C_3   0.178135 0.884162 0.450443 -0.224194
H13   H     H_    0.159678 0.860897 0.533780 0.113545
H14   H     H_    0.114928 0.817873 0.417155 0.175623
H15   H     H_    0.133933 0.978239 0.444114 0.169411
H16   H     H_    0.824169 0.648617 0.609128 0.177409
H17   H     H_    0.084134 0.647214 0.610212 0.124076
H18   H     H_    0.180502 0.354182 0.390940 0.165179
O13   O     O_3   0.897598 0.335181 0.376918 -0.558856
C33   C     C_3   0.976309 0.221823 0.355332 -0.373652
H19   H     H_    0.003005 0.184732 0.424801 0.176610
H20   H     H_    0.077192 0.231930 0.289681 0.152795
H21   H     H_    0.906953 0.152828 0.330799 0.193475
O14   O     O_3   0.384398 0.621261 0.198610 -0.537065
C34   C     C_3   0.246094 0.569678 0.210146 -0.167462
H22   H     H_    0.165596 0.619384 0.275012 0.188645
H23   H     H_    0.243266 0.470871 0.231645 0.109558
H24   H     H_    0.209975 0.584707 0.139564 0.178809
O15   O     O_3   0.195216 0.338634 0.796790 -0.569922
C35   C     C_3   0.252223 0.218915 0.764288 -0.306115
H25   H     H_    0.224770 0.153947 0.830237 0.148062
H26   H     H_    0.372930 0.219233 0.727556 0.163523
H27   H     H_    0.201109 0.183970 0.704926 0.186324
H28   H     H_    0.342122 0.359521 0.088438 0.130814
O16   O     O_3   0.563023 0.708648 0.755485 -0.598125
C36   C     C_3   0.447408 0.795325 0.794416 -0.384685
H29   H     H_    0.466443 0.852836 0.858688 0.179783
H30   H     H_    0.339342 0.749620 0.820720 0.157839
H31   H     H_    0.441427 0.858552 0.731715 0.189502
H32   H     H_    0.657173 0.880766 0.581537 0.207957

loop_
_geom_bond_atom_site_label_1
_geom_bond_atom_site_label_2
_geom_bond_distance
_ccdc_geom_bond_type
C31   H10   1.113371 S    
C26   H17   1.081493 S    
C34   H22   1.109271 S    
C4    C6    1.476230 S    
C7    C8    1.396360 A    
C36   H31   1.104977 S    
C23   O12   1.385404 S    
Cu1   Cu2   2.678334 S    
O15   C35   1.411811 S    
Cu1   O7    1.950445 S    
C14   C15   1.400759 A    
C32   H15   1.109816 S    
C23   C24   1.403991 A    
C36   H30   1.112751 S    
O4    C2    1.294015 A    
O7    C4    1.292288 A    
C35   H26   1.114014 S    
C5    C13   1.399792 A    
C20   O10   1.397843 S    
C19   H32   1.081693 S    
C32   H14   1.109375 S    
C21   C22   1.410875 A    
C27   C28   1.435259 A    
C7    O15   1.385358 S    
O5    C3    1.290833 A    
C22   C23   1.396467 A    
C33   H19   1.112271 S    
C30   H8    1.113161 S    
Cu1   N1    2.012765 S    
Cu2   N2    2.012616 S    
C11   C15   1.425506 A    
O12   C32   1.411837 S    
C9    C10   1.405621 A    
C22   O11   1.384121 S    
C34   H23   1.109457 S    
C16   O14   1.393347 S    
O3    Cu1   1.955792 S    
C5    C17   1.405388 A    
C25   H16   1.081046 S    
C29   H5    1.106945 S    
H1    C14   1.083651 S    
C30   H9    1.110965 S    
O13   C33   1.411419 S    
C11   C18   1.421347 A    
C6    C16   1.410421 A    
C12   C13   1.404951 A    
O3    C2    1.294560 A    
C26   N1    1.365274 A    
C35   H25   1.111399 S    
C13   C14   1.396748 A    
C29   H4    1.113726 S    
C32   H13   1.114210 S    
O1    C1    1.290563 A    
O16   C36   1.412874 S    
Cu2   O8    1.955793 S    
C8    C9    1.386351 A    
C30   H7    1.109443 S    
C6    C17   1.415597 A    
C19   C24   1.396626 A    
C36   H29   1.113725 S    
Cu2   O6    1.964483 S    
N1    C27   1.362884 A    
C2    C18   1.467732 S    
O8    C4    1.301664 A    
C31   H11   1.109334 S    
C17   O9    1.378280 S    
C28   O13   1.392331 S    
C34   H24   1.109028 S    
C10   C12   1.407335 A    
C28   N2    1.373289 A    
O9    C29   1.409376 S    
C29   H6    1.113014 S    
C5    H2    1.083726 S    
O11   C31   1.410115 S    
O1    Cu1   1.964483 S    
O2    Cu2   1.959099 S    
C12   C16   1.402742 A    
O14   C34   1.404906 S    
O6    C3    1.289821 A    
O4    Cu2   1.950444 S    
C27   H18   1.079276 S    
C19   C20   1.398573 A    
C15   O16   1.382054 S    
O2    C1    1.290264 A    
C3    C21   1.450502 S    
C35   H27   1.109562 S    
C25   C26   1.414537 A    
C33   H21   1.109327 S    
C20   C21   1.409242 A    
Cu1   O5    1.959097 S    
C25   N2    1.366583 A    
C9    H28   1.080431 S    
C1    C24   1.448128 S    
C33   H20   1.110702 S    
O10   C30   1.412111 S    
C31   H12   1.113092 S    
C10   C11   1.413462 A    
C7    C18   1.414031 A    
C8    H3    1.082351 S    
