data_mof_unit_60221.cif
_audit_creation_date              2012-12-10T17:04:19-0500
_audit_creation_method            fapswitch 2.2
_symmetry_space_group_name_H-M    P1
_symmetry_Int_Tables_number       1
_space_group_crystal_system       triclinic
_cell_length_a                    15.10949
_cell_length_b                    15.119379
_cell_length_c                    16.038545
_cell_angle_alpha                 89.343853
_cell_angle_beta                  90.207714
_cell_angle_gamma                 90.313749
_cell_volume                      3663.62471072

loop_
_atom_site_label
_atom_site_type_symbol
_atom_type_description
_atom_site_fract_x
_atom_site_fract_y
_atom_site_fract_z
_atom_type_partial_charge
C1    C     C_R   0.259736 0.485365 0.488297 0.802050
C2    C     C_R   0.978551 0.461304 0.487354 0.186583
C3    C     C_R   0.019478 0.538251 0.518995 0.122535
C4    C     C_R   0.739718 0.515108 0.512453 0.818201
C5    C     C_R   0.111484 0.545572 0.518636 -0.257914
C6    C     C_R   0.122160 0.401896 0.453464 -0.199300
C7    C     C_R   0.030287 0.393544 0.454569 -0.201838
C8    C     C_R   0.513020 0.163560 0.522954 -0.085127
C9    C     C_R   0.482408 0.835281 0.479103 -0.069740
C10   C     C_R   0.467438 0.966919 0.393182 0.476577
C11   C     C_R   0.468032 0.874994 0.401313 -0.295111
C12   C     C_1   0.478314 0.519350 0.886633 0.007900
C13   C     C_R   0.498840 0.886514 0.549248 -0.274320
C14   C     C_R   0.503954 0.979006 0.542048 0.099837
C15   C     C_R   0.487326 0.019314 0.463010 0.015632
C16   C     C_R   0.512536 0.259789 0.513805 0.817365
C17   C     C_R   0.490973 0.111293 0.454838 -0.244523
C18   C     C_R   0.531817 0.124175 0.600339 -0.193611
C19   C     C_R   0.526687 0.032266 0.611149 0.218668
C20   C     C_R   0.486718 0.739708 0.485892 0.824384
C21   C     C_R   0.512864 0.488650 0.277259 0.811880
C22   C     C_R   0.487381 0.511246 0.722705 0.811253
C23   C     C_1   0.522752 0.480137 0.113398 0.007906
C24   C     C_1   0.518297 0.484006 0.188241 -0.135835
C25   C     C_2   0.527825 0.475695 0.023951 -0.161608
C26   C     C_2   0.473352 0.523765 0.976086 -0.164555
C27   C     C_3   0.362385 0.009419 0.299831 0.051683
C28   C     C_3   0.346857 0.059547 0.217889 -0.300566
C29   C     C_3   0.248344 0.066815 0.197817 -0.963286
C30   C     C_3   0.545883 0.993111 0.696229 -0.934728
C31   C     C_3   0.820956 0.675535 0.582206 -0.911433
C32   C     C_1   0.482496 0.515617 0.811768 -0.136634
C33   C     C_R   0.163165 0.477619 0.486032 -0.020137
C34   C     C_R   0.835303 0.523173 0.518072 -0.007447
C35   C     C_R   0.967945 0.607006 0.550149 -0.209331
C36   C     C_R   0.875537 0.600537 0.549277 0.188111
C37   C     C_R   0.886587 0.453885 0.488164 -0.325623
H1    H     H_    0.424540 0.566837 0.003854 0.159473
H2    H     H_    0.854548 0.395210 0.463668 0.143070
H3    H     H_    0.477321 0.142817 0.395151 0.199011
H4    H     H_    0.327875 0.045195 0.350681 0.138700
H5    H     H_    0.333903 0.941575 0.294330 0.142766
H6    H     H_    0.375696 0.127139 0.222431 0.228437
H7    H     H_    0.380459 0.024540 0.166401 0.230097
H8    H     H_    0.218382 0.999938 0.191658 0.265174
H9    H     H_    0.239405 0.103438 0.138001 0.269228
H10   H     H_    0.213697 0.103157 0.247771 0.265460
H11   H     H_    0.562449 0.044863 0.742442 0.243641
H12   H     H_    0.548391 0.165538 0.652960 0.162546
H13   H     H_    0.486906 0.956376 0.719389 0.244273
H14   H     H_    0.603107 0.947571 0.692599 0.244361
H15   H     H_    0.863206 0.729877 0.606475 0.239779
H16   H     H_    0.778669 0.703160 0.531623 0.255074
H17   H     H_    0.778238 0.651093 0.633834 0.230456
H18   H     H_    0.456737 0.834588 0.346864 0.156568
H19   H     H_    0.511010 0.853095 0.608210 0.163325
H20   H     H_    0.576638 0.432610 0.996204 0.161523
H21   H     H_    0.142808 0.604490 0.543313 0.161180
H22   H     H_    0.161141 0.348600 0.428329 0.164202
H23   H     H_    0.999729 0.665920 0.574300 0.143902
H24   H     H_    0.999765 0.334339 0.429770 0.141706
O1    O     O_3   0.500000 0.500000 0.500000 -0.481846
O2    O     O_R   0.461330 0.435620 0.316920 -0.636374
O3    O     O_R   0.434750 0.558200 0.677930 -0.634574
O4    O     O_R   0.559650 0.545720 0.316320 -0.633454
O5    O     O_R   0.544270 0.460460 0.688830 -0.636954
O6    O     O_3   0.454284 0.005205 0.315449 -0.645706
O7    O     O_R   0.559890 0.307360 0.561630 -0.643833
O8    O     O_R   0.434610 0.697530 0.534530 -0.642887
O9    O     O_R   0.307380 0.433810 0.444990 -0.646890
O10   O     O_R   0.698130 0.561300 0.458860 -0.637446
O11   O     O_R   0.296270 0.542620 0.535390 -0.644728
O12   O     O_R   0.698230 0.462280 0.560770 -0.638816
O13   O     O_R   0.461480 0.296280 0.460320 -0.646378
O14   O     O_R   0.544020 0.698820 0.443520 -0.636872
Zn1   Zn    Zn3+2 0.574310 0.433680 0.576480 0.973093
Zn2   Zn    Zn3+2 0.433700 0.417860 0.431740 0.967249
Zn3   Zn    Zn3+2 0.574160 0.575160 0.430870 0.976227
Zn4   Zn    Zn3+2 0.417840 0.573310 0.560900 0.968342

loop_
_geom_bond_atom_site_label_1
_geom_bond_atom_site_label_2
_ccdc_geom_bond_type
C30   H14   S    
C34   C37   A    
O1    Zn2   S    
C2    C7    A    
C27   H5    S    
C31   H15   S    
C1    C33   S    
C10   O6    S    
C22   C32   S    
C5    H21   S    
C29   H10   S    
C16   O13   A    
C30   H11   S    
C28   C29   S    
O11   Zn4   S    
C10   C15   A    
C18   C19   A    
C9    C13   A    
C22   O5    A    
C7    H24   S    
C35   C36   A    
O13   Zn2   S    
C5    C33   A    
C23   C24   T    
C16   O7    A    
O10   Zn3   S    
C13   H19   S    
C30   H13   S    
C8    C16   S    
C13   C14   A    
C12   C32   T    
O9    Zn2   S    
O1    Zn1   S    
C25   H20   S    
C14   C19   A    
C4    C34   S    
C1    O11   A    
O1    Zn4   S    
C26   H1    S    
C25   C26   D    
C28   H7    S    
C8    C18   A    
C20   O14   A    
C29   H8    S    
C35   H23   S    
C17   H3    S    
C27   H4    S    
C9    C20   S    
C3    C35   A    
O5    Zn1   S    
C31   H16   S    
C9    C11   A    
C4    O12   A    
O12   Zn1   S    
C20   O8    A    
O8    Zn4   S    
C11   H18   S    
O2    Zn2   S    
C15   C17   A    
O4    Zn3   S    
C21   O4    A    
C14   C15   A    
C6    H22   S    
O1    Zn3   S    
C1    O9    A    
C3    C5    A    
C6    C7    A    
O7    Zn1   S    
C28   H6    S    
C8    C17   A    
C6    C33   A    
C29   H9    S    
C2    C3    A    
C37   H2    S    
C2    C37   A    
O3    Zn4   S    
C34   C36   A    
C23   C25   S    
C31   H17   S    
O14   Zn3   S    
C21   O2    A    
C27   O6    S    
C10   C11   A    
C22   O3    A    
C21   C24   S    
C12   C26   S    
C27   C28   S    
C31   C36   S    
C19   C30   S    
C4    O10   A    
C18   H12   S    
