data_mof_unit_59605.cif
_audit_creation_date              2013-03-05T15:56:52-0500
_audit_creation_method            fapswitch 2.2
_symmetry_space_group_name_H-M    P1
_symmetry_Int_Tables_number       1
_space_group_crystal_system       triclinic
_cell_length_a                    20.83839
_cell_length_b                    21.647273
_cell_length_c                    13.857032
_cell_angle_alpha                 90.050907
_cell_angle_beta                  89.832515
_cell_angle_gamma                 90.138808
_cell_volume                      6250.78091038

loop_
_atom_site_label
_atom_site_type_symbol
_atom_site_description
_atom_site_fract_x
_atom_site_fract_y
_atom_site_fract_z
_atom_type_partial_charge
O1    O     O_R   0.064880 0.435140 0.582280 -0.555515
O2    O     O_R   0.935120 0.564860 0.417720 -0.545903
O3    O     O_R   0.935120 0.564860 0.582280 -0.561957
O4    O     O_R   0.064880 0.435140 0.417720 -0.546997
O5    O     O_R   0.935120 0.435140 0.417720 -0.545484
O6    O     O_R   0.064880 0.564860 0.582280 -0.550359
O7    O     O_R   0.064880 0.564860 0.417720 -0.549868
O8    O     O_R   0.935120 0.435140 0.582280 -0.537936
O9    O     O_R   0.564880 0.935140 0.582280 -0.555525
O10   O     O_R   0.435120 0.064860 0.417720 -0.545906
O11   O     O_R   0.435120 0.064860 0.582280 -0.562003
O12   O     O_R   0.564880 0.935140 0.417720 -0.547018
O13   O     O_R   0.435120 0.935140 0.417720 -0.545476
O14   O     O_R   0.564880 0.064860 0.582280 -0.550349
O15   O     O_R   0.564880 0.064860 0.417720 -0.549832
O16   O     O_R   0.435120 0.935140 0.582280 -0.537864
C1    C     C_R   0.087712 0.416342 0.499873 0.842822
C2    C     C_R   0.912949 0.584148 0.499819 0.881542
C3    C     C_R   0.914186 0.414681 0.500352 0.870963
C4    C     C_R   0.086196 0.584976 0.499973 0.840407
C5    C     C_R   0.587716 0.916347 0.499873 0.842843
C6    C     C_R   0.412949 0.084150 0.499819 0.881551
C7    C     C_R   0.414186 0.914682 0.500352 0.871005
C8    C     C_R   0.586195 0.084977 0.499974 0.840422
Cu1   Cu    Cu3+1 0.000000 0.500000 0.597420 1.042482
Cu2   Cu    Cu3+1 1.000000 0.500000 0.402580 1.043727
Cu3   Cu    Cu3+1 0.500000 0.000000 0.597420 1.042522
Cu4   Cu    Cu3+1 0.500000 0.000000 0.402580 1.043709
C9    C     C_R   0.121581 0.688927 0.458162 -0.249388
C10   C     C_R   0.887279 0.304630 0.499382 -0.250601
C11   C     C_R   0.887124 0.694071 0.502389 -0.251153
C12   C     C_R   0.122072 0.311756 0.539742 -0.239806
C13   C     C_R   0.621560 0.188943 0.458215 -0.249388
C14   C     C_R   0.387282 0.804630 0.499458 -0.250612
C15   C     C_R   0.387120 0.194073 0.502468 -0.251131
C16   C     C_R   0.622094 0.811774 0.539777 -0.239815
C17   C     C_R   0.136655 0.631710 0.498712 -0.144248
C18   C     C_R   0.866011 0.365836 0.501208 -0.138677
C19   C     C_R   0.865003 0.633171 0.499492 -0.140229
C20   C     C_R   0.138272 0.369348 0.501397 -0.134720
C21   C     C_R   0.636649 0.131716 0.498715 -0.144251
C22   C     C_R   0.366013 0.865836 0.501210 -0.138570
C23   C     C_R   0.365001 0.133172 0.499493 -0.140303
C24   C     C_R   0.638282 0.869359 0.501398 -0.134752
C25   C     C_R   0.199144 0.619656 0.533628 -0.072770
C26   C     C_R   0.799717 0.379175 0.502654 -0.096459
C27   C     C_R   0.798447 0.620584 0.498205 -0.080929
C28   C     C_R   0.202452 0.382717 0.474563 -0.027407
C29   C     C_R   0.699148 0.119658 0.533589 -0.072836
C30   C     C_R   0.299718 0.879173 0.502588 -0.096404
C31   C     C_R   0.298445 0.120584 0.498137 -0.080913
C32   C     C_R   0.702457 0.882726 0.474528 -0.027384
C33   C     C_R   0.247893 0.663347 0.514485 0.024395
C34   C     C_R   0.757339 0.331703 0.475331 0.016520
C35   C     C_R   0.756717 0.668490 0.526853 0.007646
C36   C     C_R   0.250534 0.337927 0.491862 0.002901
C37   C     C_R   0.747891 0.163349 0.514421 0.024396
C38   C     C_R   0.257352 0.831692 0.475268 0.016487
C39   C     C_R   0.256705 0.168479 0.526797 0.007683
C40   C     C_R   0.750542 0.837929 0.491782 0.002947
C41   C     C_R   0.231035 0.722818 0.482094 0.047276
C42   C     C_R   0.777433 0.269927 0.483250 0.045372
C43   C     C_R   0.777846 0.730155 0.519791 0.049107
C44   C     C_R   0.232234 0.278033 0.521761 0.051272
C45   C     C_R   0.731023 0.222829 0.482085 0.047261
C46   C     C_R   0.277443 0.769918 0.483263 0.045377
C47   C     C_R   0.277835 0.230147 0.519815 0.049091
C48   C     C_R   0.732249 0.778043 0.521738 0.051262
C49   C     C_R   0.167611 0.735990 0.452321 0.058644
C50   C     C_R   0.842960 0.255688 0.497289 0.058940
C51   C     C_R   0.843645 0.743441 0.505255 0.062250
C52   C     C_R   0.167967 0.264973 0.548534 0.057186
C53   C     C_R   0.667587 0.236011 0.452380 0.058628
C54   C     C_R   0.342964 0.755687 0.497376 0.058907
C55   C     C_R   0.343640 0.243442 0.505354 0.062297
C56   C     C_R   0.667992 0.764995 0.548576 0.057197
C57   C     C_R   0.313283 0.648601 0.523873 -0.176312
C58   C     C_R   0.696176 0.344190 0.438338 -0.176299
C59   C     C_R   0.695002 0.656604 0.563128 -0.190102
C60   C     C_R   0.316356 0.350683 0.478393 -0.234123
C61   C     C_R   0.813284 0.148594 0.523727 -0.176284
C62   C     C_R   0.196206 0.844164 0.438202 -0.176311
C63   C     C_R   0.194975 0.156578 0.563007 -0.190062
C64   C     C_R   0.816358 0.850670 0.478208 -0.234075
C65   C     C_R   0.861290 0.193263 0.509823 -0.059835
C66   C     C_R   0.152449 0.796306 0.419731 -0.066785
C67   C     C_R   0.151482 0.204682 0.580085 -0.060469
C68   C     C_R   0.863259 0.805302 0.491515 -0.048825
C69   C     C_R   0.361291 0.693270 0.509991 -0.059735
C70   C     C_R   0.652411 0.296340 0.419862 -0.066743
C71   C     C_R   0.651516 0.704716 0.580198 -0.060509
C72   C     C_R   0.363257 0.305315 0.491716 -0.048925
H1    H     H_    0.072266 0.697187 0.438012 0.178207
H2    H     H_    0.938166 0.296374 0.506568 0.171426
H3    H     H_    0.938164 0.701826 0.495100 0.169209
H4    H     H_    0.072126 0.302997 0.556252 0.178653
H5    H     H_    0.572238 0.197206 0.438105 0.178213
H6    H     H_    0.438168 0.796374 0.506685 0.171357
H7    H     H_    0.438161 0.201828 0.495217 0.169286
H8    H     H_    0.572152 0.803017 0.556322 0.178652
H9    H     H_    0.327443 0.601181 0.536348 0.217550
H10   H     H_    0.684228 0.391010 0.417645 0.220480
H11   H     H_    0.682054 0.610004 0.583942 0.209051
H12   H     H_    0.332794 0.396599 0.461340 0.224742
H13   H     H_    0.827441 0.101168 0.536150 0.217624
H14   H     H_    0.184268 0.890974 0.417448 0.220484
H15   H     H_    0.182020 0.109967 0.583758 0.208985
H16   H     H_    0.832796 0.896572 0.461062 0.224675
C73   C     C_R   0.056757 0.497373 0.793753 0.562909
C74   C     C_R   0.945220 0.484546 0.205413 0.570886
C75   C     C_R   0.942951 0.502836 0.793824 0.558220
C76   C     C_R   0.054295 0.516152 0.204586 0.593997
C77   C     C_R   0.556757 0.997379 0.793754 0.562835
C78   C     C_R   0.445224 0.984535 0.205411 0.570923
C79   C     C_R   0.442950 0.002826 0.793822 0.558489
C80   C     C_R   0.554289 0.016169 0.204584 0.593929
N1    N     N_R   0.000000 0.500000 0.743810 -0.280109
N2    N     N_R   0.000000 0.500000 0.256190 -0.278977
N3    N     N_R   0.500000 0.000000 0.743810 -0.280161
N4    N     N_R   0.500000 0.000000 0.256190 -0.278969
C81   C     C_R   0.941624 0.495849 0.896461 -0.237530
C82   C     C_R   0.057096 0.508890 0.102078 -0.226412
C83   C     C_R   0.057678 0.504742 0.896105 -0.230207
C84   C     C_R   0.942336 0.491460 0.102759 -0.236003
C85   C     C_R   0.441624 0.995849 0.896461 -0.237396
C86   C     C_R   0.557093 0.008907 0.102076 -0.226502
C87   C     C_R   0.557676 0.004752 0.896104 -0.230277
C88   C     C_R   0.442336 0.991453 0.102758 -0.235874
C89   C     C_R   0.999653 0.500118 0.947855 -0.107871
C90   C     C_R   0.999695 0.500057 0.050852 -0.120452
C91   C     C_R   0.499651 0.000126 0.947855 -0.107948
C92   C     C_R   0.499693 0.000063 0.050851 -0.120431
C93   C     C_R   0.883999 0.486225 0.948982 0.391821
C94   C     C_R   0.115458 0.512881 0.049548 0.403473
C95   C     C_R   0.115075 0.515280 0.947855 0.383707
C96   C     C_R   0.883853 0.487986 0.050689 0.398090
C97   C     C_R   0.384001 0.986216 0.948979 0.391842
C98   C     C_R   0.615453 0.012911 0.049546 0.403477
C99   C     C_R   0.615073 0.015297 0.947853 0.383809
C100  C     C_R   0.383854 0.987970 0.050689 0.397875
C101  C     C_2   0.212420 0.565604 0.597336 0.912285
O17   O     O_2   0.183726 0.516998 0.586334 -0.563949
O18   O     O_R   0.256789 0.571022 0.672425 -0.765808
H17   H     H_    0.261379 0.531408 0.710774 0.358462
C102  C     C_2   0.774349 0.435522 0.552752 0.845229
O19   O     O_2   0.811108 0.473954 0.585992 -0.566244
O20   O     O_R   0.708544 0.442245 0.570074 -0.732034
H18   H     H_    0.697974 0.481087 0.607818 0.354581
C103  C     C_2   0.772513 0.565171 0.445916 0.846712
O21   O     O_2   0.714699 0.555998 0.440818 -0.580639
O22   O     O_R   0.813631 0.526004 0.394999 -0.722438
H19   H     H_    0.789837 0.491817 0.359934 0.345696
C104  C     C_2   0.217705 0.439544 0.418946 0.850972
O23   O     O_2   0.258872 0.475646 0.446787 -0.603518
O24   O     O_R   0.186934 0.450082 0.331471 -0.729018
H20   H     H_    0.205293 0.487565 0.297390 0.372547
C105  C     C_2   0.712440 0.065610 0.597300 0.912284
O25   O     O_2   0.683721 0.017013 0.586353 -0.563924
O26   O     O_R   0.756852 0.071025 0.672332 -0.765789
H21   H     H_    0.761445 0.031416 0.710695 0.358440
C106  C     C_2   0.274332 0.935535 0.552629 0.845253
O27   O     O_2   0.311081 0.973951 0.585941 -0.566217
O28   O     O_R   0.208516 0.942289 0.569818 -0.732068
H22   H     H_    0.197932 0.981137 0.607536 0.354534
C107  C     C_2   0.272526 0.065186 0.445791 0.846599
O29   O     O_2   0.214709 0.056063 0.440540 -0.580601
O30   O     O_R   0.313665 0.025979 0.394993 -0.722429
H23   H     H_    0.289878 0.991809 0.359876 0.345730
C108  C     C_2   0.717711 0.939578 0.418976 0.850831
O31   O     O_2   0.758896 0.975653 0.446844 -0.603544
O32   O     O_R   0.686921 0.950175 0.331535 -0.729078
H24   H     H_    0.705289 0.987668 0.297492 0.372518
C109  C     C_2   0.929113 0.172371 0.508497 0.863721
O33   O     O_2   0.945440 0.129029 0.559265 -0.519205
O34   O     O_R   0.973378 0.199263 0.445057 -0.777279
H25   H     H_    0.017463 0.179777 0.449264 0.349257
C110  C     C_2   0.093579 0.811161 0.363754 0.847124
O35   O     O_2   0.073081 0.864050 0.363123 -0.518716
O36   O     O_R   0.064034 0.766258 0.306332 -0.801473
H26   H     H_    0.025023 0.782587 0.271118 0.343574
C111  C     C_2   0.091116 0.190110 0.633299 0.840671
O37   O     O_2   0.069789 0.137431 0.632391 -0.527604
O38   O     O_R   0.060847 0.235096 0.689716 -0.789316
H27   H     H_    0.020731 0.219006 0.722885 0.344100
C112  C     C_2   0.931629 0.824821 0.489516 0.858832
O39   O     O_2   0.948703 0.866122 0.435010 -0.528457
O40   O     O_R   0.975631 0.799030 0.553888 -0.774510
H28   H     H_    0.020195 0.817417 0.547101 0.347323
C113  C     C_2   0.429115 0.672391 0.508789 0.863723
O41   O     O_2   0.445433 0.629129 0.559722 -0.519266
O42   O     O_R   0.473395 0.699208 0.445298 -0.777219
H29   H     H_    0.517482 0.679736 0.449598 0.349261
C114  C     C_2   0.593515 0.311219 0.363963 0.847157
O43   O     O_2   0.573016 0.364108 0.363408 -0.518697
O44   O     O_R   0.563943 0.266340 0.306522 -0.801448
H30   H     H_    0.524915 0.282685 0.271368 0.343530
C115  C     C_2   0.591173 0.690168 0.633485 0.840650
O45   O     O_2   0.569844 0.637490 0.632654 -0.527618
O46   O     O_R   0.560930 0.735180 0.689883 -0.789322
H31   H     H_    0.520827 0.719106 0.723108 0.344128
C116  C     C_2   0.431628 0.324850 0.489865 0.858810
O47   O     O_2   0.448717 0.366254 0.435555 -0.528347
O48   O     O_R   0.475610 0.298963 0.554175 -0.774603
H32   H     H_    0.520173 0.317368 0.547498 0.347309
O49   O     O_3   0.112981 0.487141 0.743482 -0.500073
C117  C     C_3   0.133295 0.425688 0.760483 -0.145444
H33   H     H_    0.172868 0.414676 0.709630 0.194904
H34   H     H_    0.094160 0.391455 0.747962 0.143619
H35   H     H_    0.152330 0.419697 0.834577 0.141059
O50   O     O_3   0.892295 0.462311 0.254355 -0.509758
C118  C     C_3   0.887790 0.397715 0.238558 -0.184225
H36   H     H_    0.848171 0.379166 0.283749 0.177412
H37   H     H_    0.932656 0.373445 0.259794 0.143836
H38   H     H_    0.876375 0.386224 0.162420 0.152089
O51   O     O_3   0.886842 0.512370 0.743237 -0.487553
C119  C     C_3   0.866207 0.573915 0.758947 -0.135321
H39   H     H_    0.826628 0.584153 0.708094 0.185550
H40   H     H_    0.905196 0.608186 0.745566 0.122850
H41   H     H_    0.847138 0.580786 0.832989 0.146777
O52   O     O_3   0.106123 0.541186 0.252252 -0.520702
C120  C     C_3   0.107759 0.605637 0.234653 -0.174577
H42   H     H_    0.147881 0.625988 0.276478 0.196300
H43   H     H_    0.062574 0.628435 0.258603 0.156733
H44   H     H_    0.116807 0.616629 0.157525 0.145554
O53   O     O_3   0.612981 0.987145 0.743485 -0.500075
C121  C     C_3   0.633293 0.925691 0.760487 -0.145313
H45   H     H_    0.672866 0.914677 0.709638 0.194907
H46   H     H_    0.594156 0.891460 0.747966 0.143644
H47   H     H_    0.652325 0.919700 0.834582 0.141079
O54   O     O_3   0.392305 0.962285 0.254349 -0.509777
C122  C     C_3   0.387818 0.897688 0.238547 -0.184346
H48   H     H_    0.348200 0.879128 0.283729 0.177410
H49   H     H_    0.432690 0.873430 0.259793 0.143841
H50   H     H_    0.376414 0.886197 0.162406 0.152032
O55   O     O_3   0.386839 0.012342 0.743231 -0.487404
C123  C     C_3   0.366189 0.073883 0.758924 -0.135283
H51   H     H_    0.326611 0.084109 0.708063 0.185570
H52   H     H_    0.405171 0.108162 0.745544 0.122822
H53   H     H_    0.347114 0.080758 0.832962 0.146768
O56   O     O_3   0.606110 0.041220 0.252245 -0.520703
C124  C     C_3   0.607721 0.105671 0.234650 -0.174620
H54   H     H_    0.647843 0.126034 0.276463 0.196273
H55   H     H_    0.562532 0.128455 0.258619 0.156714
H56   H     H_    0.616753 0.116667 0.157520 0.145550
O57   O     O_3   0.826473 0.476042 0.901979 -0.544401
C125  C     C_3   0.819818 0.412038 0.885786 -0.167172
H57   H     H_    0.817510 0.386131 0.955111 0.145087
H58   H     H_    0.859344 0.393889 0.839591 0.147649
H59   H     H_    0.774100 0.403803 0.846965 0.193261
O58   O     O_3   0.173659 0.516212 0.097054 -0.547531
C126  C     C_3   0.202085 0.457125 0.095187 -0.209982
H60   H     H_    0.213070 0.441951 0.020216 0.166284
H61   H     H_    0.171088 0.422308 0.131903 0.166350
H62   H     H_    0.248266 0.459324 0.134649 0.191721
O59   O     O_3   0.171935 0.528074 0.900077 -0.555321
C127  C     C_3   0.176985 0.592661 0.889086 -0.185462
H63   H     H_    0.174963 0.616991 0.959894 0.144985
H64   H     H_    0.139073 0.610464 0.840079 0.152867
H65   H     H_    0.224170 0.603560 0.856048 0.210836
O60   O     O_3   0.825461 0.484636 0.098135 -0.546188
C128  C     C_3   0.803903 0.545297 0.115802 -0.176313
H66   H     H_    0.795961 0.570779 0.047123 0.145654
H67   H     H_    0.837885 0.571193 0.162790 0.155380
H68   H     H_    0.757263 0.542777 0.154407 0.197198
O61   O     O_3   0.326487 0.976023 0.901949 -0.544389
C129  C     C_3   0.319743 0.911994 0.886069 -0.167328
H69   H     H_    0.317020 0.886285 0.955560 0.145758
H70   H     H_    0.359452 0.893605 0.840425 0.146989
H71   H     H_    0.274191 0.903780 0.846781 0.193339
O62   O     O_3   0.673656 0.016258 0.097041 -0.547502
C130  C     C_3   0.702043 0.957155 0.095316 -0.209941
H72   H     H_    0.712917 0.941846 0.020383 0.166030
H73   H     H_    0.671072 0.922425 0.132259 0.166594
H74   H     H_    0.748276 0.959388 0.134626 0.191753
O63   O     O_3   0.671937 0.028073 0.900078 -0.555238
C131  C     C_3   0.676989 0.092657 0.889028 -0.185401
H75   H     H_    0.674969 0.117011 0.959816 0.145000
H76   H     H_    0.639076 0.110443 0.840008 0.152844
H77   H     H_    0.724174 0.103542 0.855977 0.210799
O64   O     O_3   0.325464 0.984609 0.098135 -0.546354
C132  C     C_3   0.303892 0.045266 0.115802 -0.176408
H78   H     H_    0.295945 0.070745 0.047122 0.145680
H79   H     H_    0.337870 0.071168 0.162790 0.155402
H80   H     H_    0.257254 0.042736 0.154408 0.197231

loop_
_geom_bond_atom_site_label_1
_geom_bond_atom_site_label_2
_geom_bond_distance
_ccdc_geom_bond_type
C130  H74   1.109060 S    
C25   C101  1.493261 S    
O48   H32   1.013634 S    
C107  O29   1.222775 D    
C8    C21   1.457461 S    
O5    Cu2   1.957782 S    
C58   H10   1.083312 S    
C108  O32   1.392189 S    
C116  O47   1.222534 D    
C100  O64   1.383139 S    
C57   H9    1.082925 S    
O63   C131  1.410192 S    
C14   C22   1.398288 A    
C119  H41   1.109206 S    
O32   H24   1.012866 S    
C59   H11   1.082758 S    
C74   N2    1.382929 A    
C79   O55   1.381041 S    
C106  O27   1.220392 D    
C112  O39   1.222476 D    
C98   C99   1.410194 A    
C29   C37   1.411034 A    
C126  H60   1.112618 S    
C12   C52   1.400250 A    
C31   C107  1.501212 S    
C68   C112  1.485269 S    
C111  O37   1.222955 D    
O10   C6    1.295792 A    
C132  H80   1.109265 S    
C10   C18   1.398296 A    
C105  O25   1.218622 D    
O7    Cu2   1.958359 S    
C87   C99   1.414302 A    
O12   Cu4   1.963318 S    
C54   C69   1.416101 A    
C27   C35   1.410966 A    
C75   O51   1.381038 S    
C53   C70   1.418619 A    
C120  H44   1.110611 S    
C103  O22   1.396339 S    
C128  H66   1.113402 S    
C117  H34   1.114441 S    
C112  O40   1.398669 S    
C26   C102  1.499567 S    
C75   C81   1.430581 A    
C41   C49   1.415448 A    
C130  H72   1.112531 S    
C46   C54   1.414572 A    
C127  H65   1.108385 S    
C45   C53   1.415456 A    
C123  H51   1.109264 S    
O13   C7    1.301763 A    
O3    C2    1.303204 A    
C113  O42   1.398596 S    
C124  H54   1.108888 S    
C108  O31   1.222159 D    
O14   C8    1.297955 A    
C115  O46   1.398598 S    
C20   C28   1.416372 A    
C82   C94   1.418016 A    
C78   O54   1.378974 S    
C32   C40   1.417061 A    
C74   C84   1.431907 A    
C77   N3    1.373387 A    
C97   O61   1.383037 S    
C41   C46   1.403681 A    
C38   C46   1.406757 A    
O20   H18   1.014135 S    
C62   H14   1.083306 S    
C123  H52   1.114151 S    
C110  O36   1.398445 S    
C127  H64   1.113051 S    
C96   O60   1.383142 S    
C93   C96   1.409841 A    
C65   C109  1.485011 S    
O55   C123  1.417376 S    
C36   C44   1.412703 A    
O13   Cu4   1.957782 S    
O11   Cu3   1.963318 S    
O14   Cu3   1.957779 S    
C104  O24   1.392210 S    
C16   C56   1.400237 A    
O61   C129  1.409977 S    
C10   C50   1.404141 A    
C63   H15   1.082764 S    
C59   C71   1.401665 A    
C114  O43   1.223006 D    
C16   C24   1.395933 A    
C61   C65   1.402646 A    
Cu3   Cu4   2.699903 S    
C39   C47   1.407993 A    
C24   C32   1.416391 A    
O16   Cu3   1.958362 S    
C109  O34   1.398616 S    
C25   C33   1.411048 A    
O46   H31   1.013915 S    
C105  O26   1.398636 S    
C80   C86   1.430024 A    
O57   C125  1.409936 S    
C83   C89   1.407399 A    
C30   C106  1.499571 S    
O1    Cu1   1.962206 S    
O8    Cu1   1.958362 S    
C116  O48   1.398691 S    
C42   C50   1.414592 A    
C99   O63   1.383148 S    
C107  O30   1.396323 S    
C74   O50   1.378987 S    
C33   C41   1.409381 A    
C15   H7    1.080795 S    
C88   C92   1.405268 A    
C21   C29   1.415410 A    
O52   C120  1.416868 S    
C102  O20   1.399345 S    
C102  O19   1.220385 D    
C9    C49   1.399824 A    
C111  O38   1.398599 S    
C81   C93   1.417391 A    
C97   C100  1.409871 A    
C125  H58   1.113823 S    
O8    C3    1.294740 A    
C78   C88   1.431907 A    
C84   C96   1.419875 A    
C73   N1    1.373396 A    
O42   H29   1.013637 S    
C30   C38   1.405731 A    
C44   C47   1.408120 A    
C27   C103  1.501192 S    
O3    Cu1   1.963318 S    
O64   C132  1.409866 S    
C29   C105  1.493266 S    
C38   C62   1.402131 A    
O2    Cu2   1.962206 S    
Cu4   N4    2.028531 S    
C81   C89   1.407951 A    
O30   H23   1.014207 S    
C128  H67   1.113456 S    
C117  H33   1.109349 S    
C73   C83   1.427268 A    
C126  H62   1.109144 S    
C106  O28   1.399336 S    
C34   C42   1.406757 A    
C85   C97   1.417355 A    
O58   C126  1.411056 S    
O49   C117  1.417129 S    
O12   C5    1.301093 A    
O7    C4    1.298912 A    
C66   C110  1.489260 S    
C58   C70   1.402337 A    
C51   C68   1.412071 A    
C35   C43   1.407998 A    
C124  H55   1.113739 S    
C1    C20   1.466540 S    
C64   C68   1.399895 A    
C60   C72   1.399936 A    
C33   C57   1.406695 A    
C2    C19   1.459311 S    
O38   H27   1.013920 S    
C76   C82   1.430033 A    
C120  H42   1.108882 S    
C39   C63   1.402732 A    
C3    C18   1.456280 S    
C76   N2    1.381120 A    
C5    C24   1.466546 S    
C35   C59   1.402723 A    
C85   C91   1.407935 A    
C77   O53   1.379572 S    
O26   H21   1.014113 S    
C60   H12   1.076767 S    
C131  H77   1.108390 S    
C86   C92   1.405278 A    
O22   H19   1.014200 S    
C57   C69   1.402625 A    
C127  H63   1.113935 S    
C26   C34   1.405730 A    
C114  O44   1.398450 S    
O53   C121  1.417129 S    
C76   O52   1.377343 S    
C84   C90   1.405270 A    
C122  H49   1.114005 S    
Cu1   Cu2   2.699903 S    
C48   C56   1.416503 A    
C119  H39   1.109263 S    
C73   O49   1.379575 S    
C7    C22   1.456270 S    
C32   C108  1.485461 S    
C129  H70   1.114138 S    
C55   C72   1.412127 A    
C22   C30   1.412074 A    
C77   C87   1.427263 A    
O4    C1    1.301090 A    
C13   C53   1.399837 A    
O15   C8    1.298919 A    
C12   H4    1.081326 S    
C28   C104  1.485470 S    
C43   C51   1.414170 A    
C121  H45   1.109342 S    
O16   C7    1.294736 A    
C121  H46   1.114437 S    
C12   C20   1.395938 A    
O54   C122  1.418098 S    
C9    C17   1.397358 A    
C37   C61   1.406687 A    
C15   C55   1.403238 A    
C47   C55   1.414182 A    
C125  H59   1.109397 S    
C94   O58   1.383349 S    
C17   C25   1.415415 A    
C91   C92   1.427232 A    
C130  H73   1.113643 S    
O24   H20   1.012862 S    
C52   C67   1.417942 A    
C15   C23   1.396139 A    
O9    Cu3   1.962206 S    
C19   C27   1.412948 A    
C89   C90   1.427236 A    
C98   O62   1.383319 S    
O10   Cu4   1.962206 S    
C113  O41   1.222663 D    
C28   C36   1.417049 A    
C61   H13   1.082931 S    
C80   O56   1.377338 S    
C125  H57   1.113650 S    
C86   C98   1.418022 A    
C42   C45   1.403676 A    
C118  H37   1.114011 S    
O1    C1    1.301095 A    
Cu2   N2    2.028531 S    
C119  H40   1.114153 S    
O2    C2    1.295788 A    
C129  H71   1.109528 S    
C79   C85   1.430583 A    
C63   C67   1.401668 A    
C67   C111  1.489530 S    
C128  H68   1.109270 S    
O4    Cu2   1.963318 S    
C16   H8    1.081329 S    
C94   C95   1.410223 A    
O5    C3    1.301763 A    
Cu3   N3    2.028531 S    
O36   H26   1.013869 S    
C132  H79   1.113458 S    
C121  H47   1.109580 S    
O6    C4    1.297962 A    
C43   C48   1.408125 A    
O11   C6    1.303213 A    
C79   N3    1.375790 A    
C36   C60   1.410391 A    
C123  H53   1.109208 S    
C75   N1    1.375789 A    
C124  H56   1.110607 S    
C13   C21   1.397364 A    
C101  O18   1.398629 S    
O18   H17   1.014108 S    
C132  H78   1.113407 S    
O40   H28   1.013608 S    
C120  H43   1.113745 S    
O34   H25   1.013650 S    
C62   C66   1.402332 A    
C101  O17   1.218624 D    
O60   C128  1.409870 S    
C9    H1    1.081049 S    
C4    C17   1.457463 S    
C40   C64   1.410404 A    
C117  H35   1.109584 S    
O9    C5    1.301095 A    
O15   Cu4   1.958359 S    
C70   C114  1.489265 S    
O6    Cu1   1.957779 S    
C23   C31   1.412962 A    
C11   H3    1.080808 S    
C118  H36   1.109413 S    
O56   C124  1.416863 S    
C14   H6    1.080711 S    
C34   C58   1.402147 A    
C11   C19   1.396116 A    
C122  H50   1.110076 S    
C13   H5    1.081046 S    
C44   C52   1.416510 A    
O51   C119  1.417373 S    
C88   C100  1.419877 A    
C115  O45   1.222950 D    
C87   C91   1.407399 A    
C18   C26   1.412084 A    
O28   H22   1.014136 S    
C126  H61   1.113789 S    
C129  H69   1.113848 S    
C110  O35   1.223002 D    
C56   C71   1.417940 A    
C109  O33   1.222724 D    
O44   H30   1.013875 S    
C71   C115  1.489528 S    
C49   C66   1.418613 A    
C80   N4    1.381127 A    
C64   H16   1.076761 S    
C118  H38   1.110075 S    
C31   C39   1.410968 A    
C131  H75   1.113933 S    
C40   C48   1.412722 A    
C10   H2    1.080700 S    
O50   C118  1.418104 S    
C83   C95   1.414305 A    
C122  H48   1.109410 S    
C69   C113  1.484943 S    
O62   C130  1.411026 S    
C14   C54   1.404131 A    
C95   O59   1.383145 S    
C104  O23   1.222155 D    
C103  O21   1.222758 D    
C50   C65   1.416139 A    
C131  H76   1.113054 S    
C82   C90   1.405290 A    
C6    C23   1.459335 S    
C78   N4    1.382938 A    
C72   C116  1.485347 S    
O59   C127  1.410192 S    
C93   O57   1.383049 S    
C11   C51   1.403218 A    
C37   C45   1.409365 A    
Cu1   N1    2.028531 S    
