data_mof_unit_22918.cif
_audit_creation_date              2012-12-10T18:01:42-0500
_audit_creation_method            fapswitch 2.2
_symmetry_space_group_name_H-M    P1
_symmetry_Int_Tables_number       1
_space_group_crystal_system       triclinic
_cell_length_a                    10.828538
_cell_length_b                    9.495801
_cell_length_c                    19.420024
_cell_angle_alpha                 89.931571
_cell_angle_beta                  89.793598
_cell_angle_gamma                 90.041649
_cell_volume                      1996.8615199

loop_
_atom_site_label
_atom_site_type_symbol
_atom_type_description
_atom_site_fract_x
_atom_site_fract_y
_atom_site_fract_z
_atom_type_partial_charge
C1    C     C_R   0.261994 0.499966 0.500311 0.775505
C2    C     C_R   0.738000 0.500024 0.499910 0.786640
C3    C     C_R   0.486399 0.493314 0.927828 0.429052
C4    C     C_R   0.483234 0.492503 0.067253 0.427960
C5    C     C_R   0.499583 0.499858 0.366611 0.788186
C6    C     C_R   0.500456 0.499852 0.632210 0.799396
C7    C     C_R   0.063771 0.372032 0.498871 -0.192406
C8    C     C_R   0.936192 0.627892 0.502994 -0.189647
C9    C     C_R   0.936049 0.372074 0.498656 -0.191927
C10   C     C_R   0.063924 0.627852 0.503269 -0.187543
C11   C     C_R   0.871794 0.500021 0.500436 -0.018511
C12   C     C_R   0.128188 0.499939 0.500887 -0.018927
C13   C     C_R   0.406901 0.074293 0.531252 -0.026823
C14   C     C_R   0.593725 0.925758 0.469428 -0.029054
C15   C     C_R   0.593333 0.074592 0.469005 -0.035512
C16   C     C_R   0.406630 0.925406 0.530971 -0.039324
C17   C     C_R   0.482415 0.626552 0.250190 0.125793
C18   C     C_R   0.592689 0.430999 0.745069 0.123280
C19   C     C_R   0.399329 0.566372 0.743230 0.113175
C20   C     C_R   0.505098 0.368095 0.251481 0.127673
C21   C     C_R   0.475318 0.620794 0.178217 -0.190794
C22   C     C_R   0.586297 0.428070 0.817040 -0.186296
C23   C     C_R   0.397918 0.564722 0.815243 -0.177831
C24   C     C_R   0.499821 0.369505 0.179442 -0.190412
C25   C     C_R   0.484828 0.494106 0.142887 -0.007867
C26   C     C_R   0.490002 0.495026 0.852248 -0.013743
C27   C     C_R   0.496212 0.498449 0.289096 -0.113851
C28   C     C_R   0.497633 0.499350 0.707638 -0.077254
Cu1   Cu    Cu3+1 0.500000 0.640660 0.500000 0.931674
Cu2   Cu    Cu3+1 0.500000 0.359340 0.500000 0.928355
H1    H     H_    0.111782 0.272041 0.497185 0.143812
H2    H     H_    0.888162 0.727863 0.504732 0.144044
H3    H     H_    0.887919 0.272102 0.496898 0.144202
H4    H     H_    0.112060 0.727810 0.505204 0.142752
H5    H     H_    0.466726 0.717528 0.148909 0.153784
H6    H     H_    0.658975 0.376774 0.845934 0.154957
H7    H     H_    0.322641 0.615529 0.842488 0.159381
H8    H     H_    0.505898 0.271261 0.151232 0.153554
H9    H     H_    0.332578 0.130151 0.556571 0.118889
H10   H     H_    0.669122 0.869981 0.445180 0.119537
H11   H     H_    0.667902 0.130628 0.443898 0.110561
H12   H     H_    0.331795 0.869283 0.555736 0.124402
N1    N     N_R   0.500000 0.852070 0.500000 -0.150849
N2    N     N_R   0.500000 0.147930 0.500000 -0.150753
N3    N     N_R   0.541597 0.388653 0.031966 -0.240592
N4    N     N_R   0.427174 0.596578 0.963093 -0.239472
N5    N     N_R   0.543491 0.389294 0.963513 -0.239983
N6    N     N_R   0.426059 0.596504 0.031568 -0.240730
O1    O     O_R   0.319640 0.618740 0.500000 -0.593782
O2    O     O_R   0.680360 0.381260 0.500000 -0.590345
O3    O     O_R   0.680360 0.618740 0.500000 -0.594249
O4    O     O_R   0.319640 0.381260 0.500000 -0.592485
O5    O     O_R   0.499980 0.618820 0.400140 -0.571579
O6    O     O_R   0.500020 0.381180 0.599860 -0.584048
O7    O     O_R   0.500020 0.618820 0.599860 -0.567796
O8    O     O_R   0.499980 0.381180 0.400140 -0.570167
C29   C     C_3   0.480800 0.773824 0.280733 -0.365308
C30   C     C_3   0.612027 0.824012 0.295926 -0.812868
H13   H     H_    0.609142 0.929229 0.320529 0.225167
H14   H     H_    0.660907 0.749811 0.330529 0.256176
H15   H     H_    0.665369 0.832923 0.247145 0.243813
H16   H     H_    0.440190 0.850299 0.243759 0.185223
H17   H     H_    0.418944 0.782009 0.326052 0.219692
C31   C     C_3   0.704677 0.365763 0.710367 -0.416178
C32   C     C_3   0.795289 0.478727 0.685937 -0.813328
H18   H     H_    0.751072 0.550983 0.648520 0.247096
H19   H     H_    0.828859 0.540976 0.730507 0.252717
H20   H     H_    0.875761 0.428004 0.660511 0.243069
H21   H     H_    0.754399 0.295490 0.746750 0.199688
H22   H     H_    0.677018 0.297891 0.666667 0.225241
C33   C     C_3   0.292211 0.636747 0.706729 -0.400472
C34   C     C_3   0.306029 0.796663 0.707806 -0.803343
H23   H     H_    0.394417 0.828442 0.683095 0.262955
H24   H     H_    0.228519 0.845609 0.679173 0.223965
H25   H     H_    0.304263 0.836210 0.761601 0.250958
H26   H     H_    0.283027 0.600883 0.652665 0.197031
H27   H     H_    0.204151 0.607194 0.732608 0.196134
C35   C     C_3   0.521001 0.223307 0.283869 -0.375912
C36   C     C_3   0.397077 0.162391 0.307681 -0.772842
H28   H     H_    0.412895 0.066231 0.338944 0.234078
H29   H     H_    0.343901 0.238724 0.339176 0.264317
H30   H     H_    0.340506 0.133717 0.262198 0.230708
H31   H     H_    0.560642 0.148013 0.245930 0.184037
H32   H     H_    0.590782 0.224231 0.325411 0.206171

loop_
_geom_bond_atom_site_label_1
_geom_bond_atom_site_label_2
_ccdc_geom_bond_type
C5    O8    A    
C19   C33   S    
C6    O7    A    
C4    C25   S    
C29   H16   S    
Cu1   O1    S    
Cu2   O6    S    
C5    O5    A    
C15   N2    A    
C4    N6    A    
C33   H26   S    
C30   H14   S    
C23   C26   A    
C21   C25   A    
C2    O2    A    
C5    C27   S    
C35   H31   S    
C6    C28   S    
C20   C24   A    
C32   H19   S    
C24   H8    S    
C31   H22   S    
C30   H15   S    
Cu2   O2    S    
Cu1   N1    S    
C9    H3    S    
Cu2   N2    S    
C1    C12   S    
C6    O6    A    
C34   H25   S    
C2    C11   S    
C29   H17   S    
C4    N3    A    
N3    N5    A    
C7    C12   A    
N4    N6    A    
C7    H1    S    
C17   C27   A    
C18   C28   A    
C24   C25   A    
C15   H11   S    
C34   H24   S    
C36   H29   S    
C35   C36   S    
Cu1   O7    S    
C30   H13   S    
C23   H7    S    
Cu2   O8    S    
C17   C21   A    
C8    H2    S    
C19   C23   A    
Cu1   Cu2   S    
C32   H20   S    
C10   H4    S    
C31   H21   S    
C19   C28   A    
C9    C11   A    
C16   N1    A    
C10   C12   A    
C16   H12   S    
C33   H27   S    
Cu1   O3    S    
C7    C9    A    
Cu2   O4    S    
C18   C22   A    
C3    C26   S    
C34   H23   S    
C36   H30   S    
C21   H5    S    
C20   C27   A    
C22   H6    S    
C3    N4    A    
C20   C35   S    
C31   C32   S    
C33   C34   S    
C18   C31   S    
C29   C30   S    
Cu1   O5    S    
C8    C11   A    
C3    N5    A    
C1    O4    A    
C13   H9    S    
C2    O3    A    
C14   H10   S    
C36   H28   S    
C35   H32   S    
C8    C10   A    
C32   H18   S    
C22   C26   A    
C13   C16   A    
C14   C15   A    
C1    O1    A    
C13   N2    A    
C17   C29   S    
C14   N1    A    
