data_mof_unit_10094.cif
_audit_creation_date              2012-12-10T18:49:25-0500
_audit_creation_method            fapswitch 2.2
_symmetry_space_group_name_H-M    P1
_symmetry_Int_Tables_number       1
_space_group_crystal_system       triclinic
_cell_length_a                    10.002235
_cell_length_b                    10.838569
_cell_length_c                    13.84876
_cell_angle_alpha                 91.103413
_cell_angle_beta                  85.602526
_cell_angle_gamma                 91.832101
_cell_volume                      1495.94514928

loop_
_atom_site_label
_atom_site_type_symbol
_atom_type_description
_atom_site_fract_x
_atom_site_fract_y
_atom_site_fract_z
_atom_type_partial_charge
C1    C     C_R   0.501811 0.739952 0.498931 0.874297
C2    C     C_R   0.923683 0.551656 0.575685 -0.056553
C3    C     C_1   0.530569 0.503962 0.214278 -0.182772
C4    C     C_1   0.470242 0.510297 0.785776 -0.165425
C5    C     C_2   0.554719 0.503416 0.025731 -0.021216
C6    C     C_2   0.452856 0.535565 0.973783 -0.026424
C7    C     C_1   0.463847 0.521557 0.871440 -0.039059
C8    C     C_1   0.539302 0.505243 0.128365 -0.045927
C9    C     C_R   0.601818 0.940630 0.550317 -0.105632
C10   C     C_R   0.376804 0.058767 0.493033 -0.031255
C11   C     C_R   0.597035 0.068557 0.556753 -0.044585
C12   C     C_R   0.496706 0.260713 0.507073 0.902808
C13   C     C_R   0.390314 0.934415 0.470327 -0.054728
C14   C     C_2   0.870039 0.388133 0.343048 0.475462
C15   C     C_2   0.132993 0.609938 0.656548 0.593704
C16   C     C_2   0.153871 0.387242 0.342578 0.468778
C17   C     C_2   0.849967 0.597544 0.664549 0.375417
C18   C     C_R   0.322228 0.579720 0.016253 0.131213
C19   C     C_R   0.232391 0.500221 0.069622 -0.169346
C20   C     C_R   0.102094 0.537415 0.097029 -0.164079
C21   C     C_R   0.060890 0.653769 0.071924 -0.110646
C22   C     C_R   0.149925 0.733491 0.019216 -0.141139
C23   C     C_R   0.489127 0.127910 0.520740 -0.124350
C24   C     C_R   0.279858 0.696473 0.990936 -0.154938
C25   C     C_R   0.689303 0.469689 0.982725 0.118156
C26   C     C_R   0.767740 0.554346 0.925573 -0.155641
C27   C     C_R   0.900930 0.529199 0.896006 -0.163921
C28   C     C_R   0.956323 0.418987 0.921875 -0.124444
C29   C     C_R   0.879260 0.334390 0.978971 -0.144784
C30   C     C_R   0.746633 0.359978 0.010111 -0.164535
C31   C     C_2   0.705860 0.879525 0.600637 0.483393
C32   C     C_2   0.241051 0.108502 0.506647 0.477142
C33   C     C_R   0.698989 0.139556 0.608514 0.165337
C34   C     C_R   0.502639 0.873782 0.501651 -0.140729
C35   C     C_R   0.827206 0.162266 0.563222 -0.087342
C36   C     C_R   0.917457 0.241086 0.607623 -0.065237
C37   C     C_R   0.883892 0.291264 0.699339 -0.124303
C38   C     C_R   0.756816 0.267166 0.745357 -0.135653
C39   C     C_R   0.663871 0.192310 0.699810 -0.097463
C40   C     C_R   0.287177 0.869116 0.414127 0.115253
C41   C     C_R   0.325176 0.819187 0.322278 -0.146479
C42   C     C_R   0.233226 0.748477 0.272249 -0.105030
C43   C     C_R   0.101896 0.728956 0.312414 -0.123289
C44   C     C_R   0.062694 0.779281 0.403224 -0.147459
C45   C     C_R   0.479080 0.500583 0.684371 0.897137
C46   C     C_R   0.155198 0.847525 0.454707 -0.088098
C47   C     C_R   0.520969 0.501142 0.315708 0.915105
C48   C     C_R   0.934497 0.448588 0.424326 -0.061420
C49   C     C_R   0.066737 0.554214 0.574190 -0.031912
C50   C     C_R   0.077498 0.447600 0.424655 -0.040928
H1    H     H_    0.883536 0.427664 0.271579 -0.000011
H2    H     H_    0.727353 0.641492 0.906782 0.171971
H3    H     H_    0.962070 0.596525 0.854797 0.173083
H4    H     H_    0.059627 0.400089 0.898844 0.147179
H5    H     H_    0.922746 0.249755 0.000039 0.147721
H6    H     H_    0.688858 0.294853 0.056132 0.148274
H7    H     H_    0.781525 0.826470 0.559803 0.095309
H8    H     H_    0.171574 0.099703 0.450320 0.073983
H9    H     H_    0.854360 0.124088 0.491833 0.143901
H10   H     H_    0.011061 0.267732 0.569182 0.180953
H11   H     H_    0.955059 0.352312 0.732602 0.117880
H12   H     H_    0.124771 0.563878 0.725619 -0.012234
H13   H     H_    0.728403 0.309226 0.814699 0.160108
H14   H     H_    0.564219 0.176900 0.734687 0.130827
H15   H     H_    0.426970 0.832408 0.290676 0.113206
H16   H     H_    0.265057 0.707916 0.202953 0.159793
H17   H     H_    0.030644 0.673456 0.274224 0.115398
H18   H     H_    0.961417 0.763027 0.434600 0.132603
H19   H     H_    0.124404 0.881607 0.526693 0.174800
H20   H     H_    0.137705 0.412059 0.269312 -0.002904
H21   H     H_    0.791316 0.534352 0.710892 0.110566
H22   H     H_    0.261544 0.408318 0.086890 0.144805
H23   H     H_    0.031491 0.474795 0.135247 0.130906
H24   H     H_    0.959559 0.681555 0.092591 0.139883
H25   H     H_    0.117725 0.823230 0.999147 0.152566
H26   H     H_    0.346865 0.757832 0.947815 0.153155
N1    N     N_R   0.142790 0.500030 0.500020 -0.115560
N2    N     N_R   0.857210 0.499970 0.499980 -0.125882
O1    O     O_R   0.385380 0.683250 0.500010 -0.558099
O2    O     O_2   0.193481 0.709120 0.648814 -0.549148
O3    O     O_2   0.229438 0.304329 0.355382 -0.575748
O4    O     O_2   0.870730 0.702267 0.694526 -0.562954
O5    O     O_2   0.708819 0.891970 0.688277 -0.510563
O6    O     O_2   0.204142 0.153476 0.585212 -0.590832
O7    O     O_R   0.614620 0.316750 0.499990 -0.573512
O8    O     O_R   0.614710 0.683220 0.500000 -0.661641
O9    O     O_R   0.385290 0.316780 0.500000 -0.552470
O10   O     O_R   0.368830 0.499990 0.640350 -0.619812
O11   O     O_R   0.631170 0.500010 0.359650 -0.616390
O12   O     O_R   0.598160 0.499960 0.640350 -0.646492
O13   O     O_R   0.401840 0.500040 0.359650 -0.594853
O14   O     O_2   0.806103 0.291182 0.354334 -0.567863
Zn1   Zn    Zn3+2 0.346870 0.500020 0.500000 1.035246
Zn2   Zn    Zn3+2 0.653130 0.499980 0.500000 0.976389

loop_
_geom_bond_atom_site_label_1
_geom_bond_atom_site_label_2
_ccdc_geom_bond_type
C41   C42   A    
C35   C36   A    
C32   H8    S    
C40   C46   A    
C39   H14   S    
C12   C23   S    
C26   C27   A    
C33   C39   A    
C12   O7    A    
C18   C24   A    
C36   C37   A    
C16   C50   S    
O1    Zn1   S    
C5    C6    D    
C48   N2    A    
C1    O8    A    
C31   O5    D    
C35   H9    S    
C17   O4    D    
C11   C23   A    
O11   Zn2   S    
C13   C40   S    
O8    Zn2   S    
C15   O2    D    
C46   H19   S    
C29   C30   A    
C48   C50   A    
C21   C22   A    
C2    C17   S    
C47   O11   A    
C19   H22   S    
C22   H25   S    
C4    C7    T    
C6    C18   S    
C44   C46   A    
C1    C34   S    
O12   Zn2   S    
C4    C45   S    
C32   O6    D    
C11   C33   S    
C45   O10   A    
C16   H20   S    
C3    C8    T    
C28   H4    S    
C18   C19   A    
C41   H15   S    
C29   H5    S    
C25   C26   A    
C30   H6    S    
C21   H24   S    
C43   C44   A    
C37   C38   A    
C2    N2    A    
C2    C49   A    
C26   H2    S    
O13   Zn1   S    
O7    Zn2   S    
C14   H1    S    
C45   O12   A    
C9    C11   A    
C14   O14   D    
C5    C25   S    
C40   C41   A    
C17   H21   S    
C9    C34   A    
C1    O1    A    
C22   C24   A    
C44   H18   S    
C42   C43   A    
C50   N1    A    
N1    Zn1   S    
C38   H13   S    
C25   C30   A    
O10   Zn1   S    
C28   C29   A    
C12   O9    A    
C47   O13   A    
C24   H26   S    
C36   H10   S    
C10   C13   A    
C5    C8    S    
C37   H11   S    
C27   H3    S    
C6    C7    S    
C10   C23   A    
C31   H7    S    
C19   C20   A    
C13   C34   A    
C38   C39   A    
N2    Zn2   S    
O9    Zn1   S    
C3    C47   S    
C16   O3    D    
C33   C35   A    
C15   H12   S    
C49   N1    A    
C20   H23   S    
C15   C49   S    
C9    C31   S    
C10   C32   S    
C20   C21   A    
C43   H17   S    
C27   C28   A    
C42   H16   S    
C14   C48   S    
