data_mof_unit_63960.cif
_audit_creation_date              2012-12-11T15:00:30-0500
_audit_creation_method            fapswitch 2.2
_symmetry_space_group_name_H-M    P1
_symmetry_Int_Tables_number       1
_space_group_crystal_system       triclinic
_cell_length_a                    13.275854
_cell_length_b                    13.281372
_cell_length_c                    26.81633
_cell_angle_alpha                 96.819718
_cell_angle_beta                  97.029823
_cell_angle_gamma                 61.216763
_cell_volume                      4103.21530325

loop_
_atom_site_label
_atom_site_type_symbol
_atom_type_description
_atom_site_fract_x
_atom_site_fract_y
_atom_site_fract_z
_atom_type_partial_charge
C1    C     C_R   0.379176 0.722670 0.435099 0.545161
C2    C     C_1   0.331353 0.340877 0.267957 0.000090
C3    C     C_1   0.344868 0.348092 0.320836 -0.036680
C4    C     C_1   0.362939 0.356698 0.365726 -0.003693
C5    C     C_3   0.723368 0.313235 0.262249 -0.210815
C6    C     C_3   0.937637 0.229988 0.282655 -0.218181
C7    C     C_3   0.954737 0.219094 0.225761 -0.215234
C8    C     C_1   0.893551 0.293412 0.102418 -0.016309
C9    C     C_3   0.818987 0.333047 0.294132 0.067708
C10   C     C_3   0.740562 0.301484 0.205294 -0.215155
C11   C     C_3   0.847523 0.314032 0.197743 0.068402
C12   C     C_R   0.394740 0.373243 0.417614 0.542441
C13   C     C_3   0.829534 0.433245 0.221378 -0.213255
C14   C     C_3   0.813458 0.444161 0.278266 -0.213291
C15   C     C_1   0.866586 0.303488 0.144471 -0.073257
C16   C     C_1   0.800082 0.346399 0.347546 -0.072880
C17   C     C_1   0.773160 0.365742 0.390046 -0.015378
C18   C     C_3   0.467391 0.739440 0.271179 -0.221633
C19   C     C_3   0.306635 0.940592 0.284618 -0.260357
C20   C     C_3   0.300024 0.956598 0.227804 -0.227347
C21   C     C_1   0.306197 0.887081 0.100391 -0.014805
C22   C     C_3   0.347071 0.812806 0.292515 0.078968
C23   C     C_R   0.724306 0.399399 0.437338 0.545779
C24   C     C_3   0.459241 0.753117 0.213974 -0.229557
C25   C     C_3   0.334759 0.840290 0.196142 0.039322
C26   C     C_3   0.252336 0.793751 0.205495 -0.189176
C27   C     C_3   0.258332 0.778512 0.262560 0.137028
C28   C     C_1   0.324835 0.859340 0.142830 -0.070307
C29   C     C_1   0.354300 0.795531 0.345908 -0.028459
C30   C     C_1   0.362938 0.770097 0.388190 0.002488
C31   C     C_3   0.452637 0.288968 0.726122 -0.212025
C32   C     C_3   0.270794 0.273563 0.702808 -0.215840
C33   C     C_3   0.260653 0.267406 0.759171 -0.211527
C34   C     C_R   0.381518 0.724498 0.575504 0.541162
C35   C     C_1   0.296019 0.308443 0.887535 -0.012997
C36   C     C_3   0.331483 0.345700 0.697632 0.061774
C37   C     C_3   0.442506 0.282938 0.782421 -0.214546
C38   C     C_3   0.314339 0.335303 0.793140 0.062027
C39   C     C_3   0.250225 0.462179 0.779132 -0.214863
C40   C     C_3   0.260327 0.468343 0.722665 -0.212388
C41   C     C_1   0.305017 0.326180 0.845949 -0.070704
C42   C     C_1   0.343887 0.351724 0.644852 -0.071031
C43   C     C_1   0.362592 0.359820 0.603318 -0.013078
C44   C     C_1   0.889029 0.294188 0.864445 -0.009747
C45   C     C_R   0.395637 0.375962 0.557709 0.543859
C46   C     C_1   0.861444 0.305920 0.820146 -0.047195
C47   C     C_1   0.838536 0.319861 0.767909 -0.010613
C48   C     C_1   0.821467 0.333350 0.723416 -0.010682
C49   C     C_1   0.798788 0.352456 0.671616 -0.047533
C50   C     C_1   0.771547 0.372995 0.627970 -0.010146
C51   C     C_1   0.293337 0.893838 0.862824 -0.010260
C52   C     C_1   0.313019 0.866326 0.819208 -0.047667
C53   C     C_1   0.330591 0.842933 0.767372 -0.010581
C54   C     C_1   0.342680 0.825069 0.722836 -0.010553
C55   C     C_1   0.355205 0.801175 0.670616 -0.047368
C56   C     C_R   0.724102 0.403748 0.577718 0.542375
C57   C     C_1   0.366252 0.772873 0.626421 -0.009764
C58   C     C_R   0.941969 0.277961 0.055942 0.545157
C59   C     C_R   0.288063 0.271335 0.073193 0.541727
C60   C     C_R   0.270822 0.937095 0.053189 0.544166
C61   C     C_R   0.936925 0.279075 0.915581 0.542071
C62   C     C_R   0.281571 0.273983 0.933165 0.544751
C63   C     C_R   0.262673 0.941011 0.912940 0.542714
C64   C     C_1   0.305335 0.303104 0.124987 -0.012862
C65   C     C_1   0.314909 0.320888 0.169842 -0.053155
C66   C     C_1   0.323336 0.333722 0.222717 -0.009668
Cr1   Cr    Cr6+3 0.585490 0.589720 0.509170 1.031028
Cr2   Cr    Cr6+3 0.329280 0.580760 0.494920 1.040092
Cr3   Cr    Cr6+3 0.585250 0.329540 0.495950 1.031446
Cr4   Cr    Cr6+3 0.077160 0.074530 0.981700 1.031138
Cr5   Cr    Cr6+3 0.079310 0.333830 0.996170 1.032374
Cr6   Cr    Cr6+3 0.334250 0.081620 0.994710 1.030774
H1    H     H_    0.751700 0.216156 0.188728 0.120825
H2    H     H_    0.636961 0.386549 0.269866 0.116365
H3    H     H_    0.662434 0.368815 0.185606 0.113419
H4    H     H_    0.905145 0.444767 0.216050 0.125944
H5    H     H_    0.520568 0.783210 0.206311 0.123027
H6    H     H_    0.529169 0.767663 0.291071 0.114743
H7    H     H_    0.220430 0.996335 0.299370 0.101137
H8    H     H_    0.367495 0.968566 0.305753 0.125773
H9    H     H_    0.358167 0.991841 0.221662 0.131649
H10   H     H_    0.210786 0.020846 0.215467 0.112032
H11   H     H_    0.725157 0.233910 0.272954 0.121967
H12   H     H_    0.171706 0.838017 0.276214 0.150230
H13   H     H_    0.275123 0.710808 0.182842 0.133883
H14   H     H_    0.503264 0.647015 0.278002 0.112989
H15   H     H_    0.484800 0.668049 0.192827 0.108966
H16   H     H_    0.162288 0.855057 0.192575 0.096001
H17   H     H_    0.490506 0.191590 0.792344 0.123624
H18   H     H_    0.505607 0.200518 0.709060 0.123233
H19   H     H_    0.183362 0.312912 0.682777 0.121773
H20   H     H_    0.320466 0.184971 0.685213 0.121729
H21   H     H_    0.305161 0.175664 0.768535 0.124732
H22   H     H_    0.007767 0.242159 0.305062 0.115354
H23   H     H_    0.168216 0.303449 0.766168 0.124586
H24   H     H_    0.302260 0.522122 0.719241 0.125220
H25   H     H_    0.172638 0.511000 0.703045 0.122729
H26   H     H_    0.287452 0.512725 0.802781 0.122018
H27   H     H_    0.498297 0.339296 0.722779 0.124810
H28   H     H_    0.482948 0.330551 0.806089 0.121285
H29   H     H_    0.157711 0.501653 0.786607 0.123305
H30   H     H_    0.943348 0.148984 0.293535 0.112962
H31   H     H_    0.969943 0.132294 0.209412 0.111408
H32   H     H_    0.032901 0.226628 0.220929 0.115388
H33   H     H_    0.728988 0.519816 0.286551 0.111072
H34   H     H_    0.881840 0.459995 0.300248 0.123459
H35   H     H_    0.752369 0.503020 0.202307 0.112299
O1    O     O_R   0.700490 0.499650 0.456540 -0.507169
O2    O     O_R   0.339040 0.474950 0.540330 -0.495895
O3    O     O_R   0.494500 0.302900 0.543920 -0.507025
O4    O     O_R   0.682200 0.343540 0.552130 -0.493965
O5    O     O_3   0.500010 0.500010 0.500010 -0.252731
O6    O     O_R   0.170650 0.959160 0.034150 -0.507256
O7    O     O_R   0.983870 0.178140 0.033160 -0.494871
O8    O     O_R   0.966160 0.354510 0.046020 -0.506519
O9    O     O_R   0.187830 0.326650 0.051390 -0.493537
O10   O     O_R   0.362200 0.173970 0.055450 -0.507713
O11   O     O_R   0.326660 0.983110 0.039170 -0.494671
O12   O     O_R   0.479270 0.682700 0.457880 -0.499130
O13   O     O_R   0.165170 0.960730 0.925500 -0.505458
O14   O     O_R   0.978790 0.179600 0.932440 -0.493964
O15   O     O_R   0.960680 0.356080 0.937360 -0.505227
O16   O     O_R   0.182750 0.328100 0.950670 -0.494648
O17   O     O_R   0.356720 0.175530 0.946790 -0.506864
O18   O     O_R   0.321590 0.984560 0.938450 -0.493840
O19   O     O_3   0.163570 0.163330 0.990860 -0.252342
O20   O     O_R   0.304400 0.696100 0.445190 -0.496296
O21   O     O_R   0.337880 0.472540 0.439600 -0.487611
O22   O     O_R   0.493250 0.300300 0.435260 -0.510129
O23   O     O_R   0.681040 0.341130 0.451400 -0.494279
O24   O     O_R   0.701750 0.502250 0.565200 -0.505243
O25   O     O_R   0.480430 0.685110 0.558610 -0.494360
O26   O     O_R   0.305650 0.698700 0.553850 -0.506583
O27   O     O_3   0.282328 0.666176 0.271180 -0.700553
H36   H     H_    0.352766 0.610610 0.254319 0.324488

loop_
_geom_bond_atom_site_label_1
_geom_bond_atom_site_label_2
_ccdc_geom_bond_type
C22   C29   S    
C20   H10   S    
Cr3   O4    S    
Cr5   O15   S    
C36   C42   S    
C19   C20   S    
C13   H35   S    
C6    C9    S    
C62   O17   A    
C53   C54   T    
Cr4   O7    S    
C25   C28   S    
C7    C11   S    
C59   C64   S    
C29   C30   T    
C18   C24   S    
C32   C36   S    
Cr5   O16   S    
Cr2   O26   S    
C9    C16   S    
Cr3   O23   S    
C1    O12   A    
C38   C39   S    
C5    H11   S    
C10   H1    S    
C45   O2    A    
Cr1   O1    S    
C32   H19   S    
C20   C25   S    
C61   O14   A    
Cr2   O5    S    
C5    H2    S    
C8    C58   S    
C54   C55   S    
C11   C15   S    
C14   H33   S    
Cr1   O25   S    
Cr4   O13   S    
C59   O9    A    
C6    H22   S    
Cr6   O10   S    
C34   C57   S    
Cr5   O19   S    
C60   O11   A    
C31   H27   S    
C4    C12   S    
Cr2   O21   S    
C56   O4    A    
Cr4   O19   S    
C34   O25   A    
C59   O10   A    
C7    H31   S    
C13   C14   S    
Cr6   O17   S    
C60   O6    A    
C40   H24   S    
C33   H23   S    
C62   O16   A    
C44   C46   T    
C39   H29   S    
C6    C7    S    
Cr4   O6    S    
C12   O22   A    
C51   C52   T    
C36   C40   S    
C19   C22   S    
C51   C63   S    
C24   C25   S    
C38   C41   S    
C39   C40   S    
C18   H14   S    
C45   O3    A    
C16   C17   T    
C39   H26   S    
C34   O26   A    
C25   C26   S    
C50   C56   S    
C31   C37   S    
C23   O23   A    
Cr6   O19   S    
C61   O15   A    
C9    C14   S    
C5    C9    S    
C37   C38   S    
Cr3   O3    S    
Cr1   O5    S    
C47   C48   T    
C13   H4    S    
C18   H6    S    
C31   H18   S    
C26   C27   S    
Cr5   O8    S    
C17   C23   S    
C19   H7    S    
C43   C45   S    
Cr2   O20   S    
C63   O18   A    
C21   C60   S    
C26   H16   S    
C48   C49   S    
C21   C28   T    
C49   C50   T    
C8    C15   T    
C22   C27   S    
C55   C57   T    
C58   O8    A    
C42   C43   T    
C3    C4    T    
C40   H25   S    
C52   C53   S    
C46   C47   S    
C27   H12   S    
C18   C22   S    
C27   O27   S    
Cr1   O24   S    
C1    O20   A    
C2    C66   T    
C33   H21   S    
O27   H36   S    
C12   O21   A    
C44   C61   S    
C33   C38   S    
C37   H17   S    
Cr6   O18   S    
C7    H32   S    
C64   C65   T    
C2    C3    S    
C5    C10   S    
C32   C33   S    
C63   O13   A    
C11   C13   S    
Cr4   O14   S    
C32   H20   S    
C26   H13   S    
C23   O1    A    
C1    C30   S    
Cr3   O5    S    
Cr5   O9    S    
C35   C62   S    
Cr2   O2    S    
C6    H30   S    
C19   H8    S    
C35   C41   T    
C24   H15   S    
C56   O24   A    
C10   C11   S    
C24   H5    S    
C14   H34   S    
Cr3   O22   S    
C65   C66   S    
Cr6   O11   S    
C58   O7    A    
C31   C36   S    
C20   H9    S    
Cr1   O12   S    
C37   H28   S    
C10   H3    S    
