data_mof_unit_15614.cif
_audit_creation_date              2012-12-10T17:49:38-0500
_audit_creation_method            fapswitch 2.2
_symmetry_space_group_name_H-M    P1
_symmetry_Int_Tables_number       1
_space_group_crystal_system       triclinic
_cell_length_a                    14.745837
_cell_length_b                    14.724102
_cell_length_c                    15.882226
_cell_angle_alpha                 76.104723
_cell_angle_beta                  102.968368
_cell_angle_gamma                 114.923333
_cell_volume                      3005.80704003

loop_
_atom_site_label
_atom_site_type_symbol
_atom_type_description
_atom_site_fract_x
_atom_site_fract_y
_atom_site_fract_z
_atom_type_partial_charge
C1    C     C_R   0.880531 0.312255 0.513739 0.795162
C2    C     C_3   0.997619 0.405004 0.068673 -0.566132
C3    C     C_3   0.994485 0.505068 0.080349 0.067992
C4    C     C_3   0.091255 0.593552 0.049425 -0.529995
C5    C     C_3   0.093959 0.608250 0.948054 0.868431
C6    C     C_1   0.997564 0.502187 0.174134 0.059230
C7    C     C_1   0.000331 0.507524 0.823082 0.030134
C8    C     C_1   0.000558 0.502860 0.748715 -0.215469
C9    C     C_R   0.813310 0.204413 0.524389 -0.053440
C10   C     C_R   0.187623 0.795620 0.478674 -0.051118
C11   C     C_R   0.781647 0.028799 0.586258 -0.212589
C12   C     C_R   0.999865 0.499971 0.659653 0.814810
C13   C     C_R   0.849039 0.129344 0.569897 -0.189197
C14   C     C_R   0.710418 0.177550 0.493114 -0.270293
C15   C     C_R   0.639922 0.078258 0.514688 0.082422
C16   C     C_R   0.677554 0.002952 0.560175 0.167189
C17   C     C_R   0.533589 0.052280 0.494517 0.072184
C18   C     C_R   0.466833 0.948968 0.513685 0.065968
C19   C     C_R   0.507773 0.876117 0.558083 -0.226661
C20   C     C_R   0.611045 0.903014 0.581106 -0.229496
C21   C     C_R   0.491563 0.126435 0.459566 -0.248729
C22   C     C_R   0.387965 0.100496 0.445954 -0.257451
C23   C     C_R   0.119646 0.687822 0.485903 0.790454
C24   C     C_R   0.322059 0.999384 0.461264 0.173235
C25   C     C_R   0.360804 0.922333 0.491054 0.084675
C26   C     C_R   0.217449 0.974228 0.446143 -0.203445
C27   C     C_R   0.150611 0.872866 0.456611 -0.204363
C28   C     C_R   0.291997 0.820931 0.495407 -0.262785
C29   C     C_R   0.698875 0.643625 0.340713 -0.421904
C30   C     C_R   0.788456 0.627369 0.369003 0.658054
C31   C     C_R   0.720688 0.515427 0.495089 -0.113835
C32   C     C_R   0.626136 0.525776 0.468954 0.013705
C33   C     C_R   0.618523 0.593444 0.389747 0.116102
C34   C     C_R   0.000104 0.500235 0.340272 0.819661
C35   C     C_R   0.538996 0.472011 0.515632 -0.089636
C36   C     C_R   0.450765 0.496087 0.483190 0.035948
C37   C     C_R   0.448637 0.563409 0.403635 -0.181257
C38   C     C_R   0.530292 0.610294 0.358100 -0.177398
C39   C     C_R   0.533505 0.393399 0.590583 0.305017
C40   C     C_R   0.443993 0.341100 0.628975 0.396376
C41   C     C_R   0.364815 0.375723 0.604071 -0.082128
C42   C     C_R   0.366473 0.452535 0.530853 -0.077842
C43   C     C_R   0.284630 0.335403 0.653488 -0.368312
C44   C     C_R   0.204039 0.367182 0.628741 0.660384
C45   C     C_3   0.000100 0.409547 0.970473 0.243400
C46   C     C_R   0.283328 0.483594 0.509276 -0.045632
C47   C     C_3   0.898923 0.519522 0.925325 0.097104
C48   C     C_3   0.896602 0.519669 0.025559 0.810701
C49   C     C_1   0.999858 0.500887 0.250416 -0.213088
C50   C     C_3   0.000148 0.513659 0.914059 -0.046555
Cu1   Cu    Cu3+1 0.081750 0.475690 0.522550 0.972320
Cu2   Cu    Cu3+1 0.918250 0.524310 0.477450 0.958372
H1    H     H_    0.929752 0.338996 0.090395 0.207165
H2    H     H_    0.061572 0.391346 0.113390 0.194565
H3    H     H_    0.098124 0.665335 0.066801 0.214005
H4    H     H_    0.638952 0.845203 0.616832 0.144288
H5    H     H_    0.318340 0.760223 0.509115 0.156097
H6    H     H_    0.070355 0.855144 0.446723 0.142570
H7    H     H_    0.359237 0.160131 0.422038 0.140246
H8    H     H_    0.810593 0.971616 0.621692 0.134245
H9    H     H_    0.928548 0.148504 0.594142 0.181026
H10   H     H_    0.687315 0.236222 0.452813 0.149747
H11   H     H_    0.925179 0.351381 0.949287 0.130615
H12   H     H_    0.461635 0.798019 0.580044 0.146550
H13   H     H_    0.536384 0.206240 0.444799 0.133022
H14   H     H_    0.187387 0.033008 0.426014 0.131005
H15   H     H_    0.524145 0.660891 0.296931 0.131739
H16   H     H_    0.279344 0.543369 0.456069 0.138253
H17   H     H_    0.690685 0.692719 0.279208 0.147579
H18   H     H_    0.739615 0.473941 0.556119 0.219095
H19   H     H_    0.383068 0.579673 0.372772 0.123543
H20   H     H_    0.284096 0.279220 0.711433 0.182116
H21   H     H_    0.836131 0.447234 0.908771 0.074985
H22   H     H_    0.155950 0.577391 0.089876 0.135694
N1    N     N_R   0.795410 0.560790 0.443550 -0.221858
N2    N     N_R   0.204590 0.439170 0.556520 -0.213868
O1    O     O_R   0.977910 0.338120 0.529720 -0.539036
O2    O     O_R   0.839850 0.379180 0.491640 -0.599284
O3    O     O_R   0.069060 0.479460 0.639610 -0.541622
O4    O     O_R   0.931000 0.520530 0.601530 -0.597144
O5    O     O_R   0.160150 0.620820 0.508360 -0.594876
O6    O     O_R   0.022090 0.661880 0.470280 -0.565135
O7    O     O_R   0.069000 0.479470 0.398470 -0.588244
O8    O     O_R   0.930940 0.520540 0.360390 -0.526675
O9    O     O_3   0.067965 0.374387 0.949592 -0.567615
C51   C     C_3   0.165901 0.402685 0.998147 0.178601
H23   H     H_    0.185300 0.460399 0.039624 0.152008
H24   H     H_    0.221353 0.435944 0.950890 0.169840
C52   C     C_3   0.180131 0.308848 0.054440 -0.883051
H25   H     H_    0.170413 0.254298 0.012332 0.252280
H26   H     H_    0.257303 0.331006 0.091995 0.206903
H27   H     H_    0.124104 0.271046 0.101132 0.251227
O10   O     O_3   0.117788 0.318721 0.669541 -0.570805
C53   C     C_3   0.139117 0.308606 0.762108 0.064687
H28   H     H_    0.095038 0.341472 0.784395 0.212588
H29   H     H_    0.219606 0.349992 0.788285 0.113229
C54   C     C_3   0.103833 0.196461 0.802119 -0.828823
H30   H     H_    0.144974 0.159646 0.780958 0.231256
H31   H     H_    0.117825 0.188079 0.874618 0.220757
H32   H     H_    0.021635 0.157482 0.781094 0.252289
O11   O     O_3   0.440354 0.262675 0.698944 -0.554260
C55   C     C_3   0.376504 0.168133 0.671424 0.041272
H33   H     H_    0.385986 0.164695 0.604747 0.123311
H34   H     H_    0.295768 0.152319 0.670151 0.146896
C56   C     C_3   0.400078 0.083415 0.735827 -0.782227
H35   H     H_    0.383382 0.079812 0.801625 0.246574
H36   H     H_    0.353128 0.009626 0.713263 0.210428
H37   H     H_    0.480881 0.096847 0.740720 0.248590
O12   O     O_3   0.865276 0.667552 0.317522 -0.585403
C57   C     C_3   0.897958 0.774228 0.292913 0.029883
H38   H     H_    0.980516 0.807375 0.314285 0.170923
H39   H     H_    0.863624 0.810285 0.324003 0.114535
C58   C     C_3   0.880082 0.801250 0.193183 -0.353906
H40   H     H_    0.918543 0.767801 0.164399 0.241004
H41   H     H_    0.798037 0.768669 0.168851 0.205226
C59   C     C_3   0.921465 0.916098 0.163517 -0.920956
H42   H     H_    0.882903 0.950916 0.190652 0.257048
H43   H     H_    0.908249 0.933585 0.090958 0.264527
H44   H     H_    0.004028 0.949878 0.185637 0.257448
O13   O     O_3   0.885768 0.604631 0.868236 -0.615341
C60   C     C_3   0.805094 0.575666 0.799307 0.036595
H45   H     H_    0.732316 0.532416 0.826301 0.154949
H46   H     H_    0.816329 0.527613 0.761374 0.173140
C61   C     C_3   0.800272 0.671079 0.737233 -0.367088
H47   H     H_    0.799538 0.725004 0.774957 0.225518
H48   H     H_    0.868167 0.708908 0.703136 0.205560
C62   C     C_3   0.706108 0.645709 0.669184 -0.874631
H49   H     H_    0.704193 0.589578 0.632781 0.282223
H50   H     H_    0.707535 0.715351 0.622110 0.241351
H51   H     H_    0.636966 0.613950 0.701232 0.254727
O14   O     O_3   0.618316 0.377799 0.637423 -0.588070
C63   C     C_3   0.624016 0.292282 0.616829 0.077549
H52   H     H_    0.641711 0.308445 0.549260 0.130177
H53   H     H_    0.553541 0.224153 0.621849 0.172332
C64   C     C_3   0.707348 0.267381 0.680708 -0.765151
H54   H     H_    0.692602 0.254672 0.749019 0.252325
H55   H     H_    0.709895 0.197368 0.668706 0.210460
H56   H     H_    0.781554 0.330968 0.672670 0.237276
O15   O     O_3   0.814154 0.429405 0.056200 -0.685265
C65   C     C_3   0.731828 0.436796 0.081449 0.052478
H57   H     H_    0.670378 0.360007 0.082429 0.169141
H58   H     H_    0.697794 0.484594 0.032628 0.104974
C66   C     C_3   0.754820 0.460196 0.174809 -0.300733
H59   H     H_    0.780868 0.403022 0.220371 0.219875
H60   H     H_    0.815200 0.536556 0.179307 0.260206
C67   C     C_3   0.661026 0.455754 0.203980 -0.917257
H61   H     H_    0.638027 0.517605 0.163944 0.247100
H62   H     H_    0.677724 0.464872 0.273806 0.270493
H63   H     H_    0.597629 0.381293 0.197483 0.247563
O16   O     O_3   0.903500 0.613114 0.045560 -0.633852
C68   C     C_3   0.832827 0.656207 0.000213 0.110112
H64   H     H_    0.787494 0.653693 0.048563 0.129701
H65   H     H_    0.778873 0.616419 0.947639 0.150332
C69   C     C_3   0.889090 0.768126 0.963480 -0.288598
H66   H     H_    0.947405 0.806468 0.015353 0.221277
H67   H     H_    0.928492 0.774562 0.909181 0.257788
C70   C     C_3   0.816973 0.823075 0.930121 -0.986897
H68   H     H_    0.756735 0.785720 0.878925 0.256325
H69   H     H_    0.859482 0.903051 0.901695 0.263796
H70   H     H_    0.781221 0.822752 0.984791 0.262542
O17   O     O_3   0.184964 0.607689 0.930937 -0.618915
C71   C     C_3   0.275050 0.679677 0.969665 0.025285
H71   H     H_    0.293980 0.650337 0.039497 0.133293
H72   H     H_    0.270185 0.754005 0.965178 0.178522
C72   C     C_3   0.363833 0.695766 0.925804 -0.839224
H73   H     H_    0.355113 0.730359 0.855959 0.244431
H74   H     H_    0.434988 0.747241 0.959444 0.208863
H75   H     H_    0.369765 0.621970 0.930249 0.243665
O18   O     O_3   0.087654 0.705347 0.911944 -0.623058
C73   C     C_3   0.081006 0.737707 0.819430 0.134213
H76   H     H_    0.060583 0.804810 0.806374 0.152190
H77   H     H_    0.018787 0.683765 0.781556 0.170018
C74   C     C_3   0.179090 0.771495 0.781553 -0.399543
H78   H     H_    0.242320 0.825905 0.819870 0.227697
H79   H     H_    0.195096 0.704205 0.782349 0.262037
C75   C     C_3   0.169710 0.823262 0.686339 -0.949880
H80   H     H_    0.106351 0.770936 0.646217 0.258614
H81   H     H_    0.240756 0.844348 0.659857 0.272274
H82   H     H_    0.156394 0.893315 0.681471 0.257548

loop_
_geom_bond_atom_site_label_1
_geom_bond_atom_site_label_2
_ccdc_geom_bond_type
C10   C27   A    
C66   C67   S    
C43   H20   S    
C23   O6    A    
C48   O16   S    
C64   H56   S    
C1    O1    A    
C41   C42   A    
C36   C42   A    
C35   C36   A    
C65   C66   S    
C9    C14   A    
C3    C6    S    
C46   N2    A    
C54   H30   S    
C64   H54   S    
C72   H73   S    
C28   H5    S    
C25   C28   A    
C56   H36   S    
C26   C27   A    
O10   C53   S    
C73   H77   S    
C36   C37   A    
C24   C26   A    
C71   H71   S    
Cu1   O1    S    
C42   C46   A    
C55   H34   S    
C51   H24   S    
C73   H76   S    
C66   H59   S    
C67   H63   S    
C12   O3    A    
C29   C33   A    
C3    C48   S    
C59   H42   S    
C55   C56   S    
C66   H60   S    
C18   C19   A    
O18   C73   S    
C68   C69   S    
Cu2   O8    S    
C29   H17   S    
C9    C13   A    
C57   H38   S    
C60   C61   S    
C44   O10   S    
C57   H39   S    
C40   O11   S    
C31   H18   S    
C31   C32   A    
C63   H52   S    
C68   H64   S    
C75   H80   S    
C52   H26   S    
C29   C30   A    
Cu1   O5    S    
C67   H62   S    
C8    C12   S    
C53   H29   S    
C58   C59   S    
Cu2   N1    S    
C75   H81   S    
C69   H67   S    
C70   H69   S    
C74   H78   S    
C21   C22   A    
C70   H68   S    
C1    O2    A    
C41   C43   A    
C53   H28   S    
C18   C25   A    
C34   O8    A    
Cu2   O2    S    
C54   H31   S    
O17   C71   S    
C47   C50   S    
C71   H72   S    
C74   H79   S    
C2    C45   S    
C56   H37   S    
C15   C16   A    
C67   H61   S    
C30   O12   S    
Cu1   Cu2   S    
C26   H14   S    
O11   C55   S    
C7    C8    T    
C1    C9    S    
C65   H57   S    
C47   H21   S    
C69   C70   S    
C2    H2    S    
C22   H7    S    
C51   H23   S    
C53   C54   S    
O9    C51   S    
C45   H11   S    
C17   C21   A    
C5    O17   S    
C35   C39   A    
C43   C44   A    
C62   H50   S    
C46   H16   S    
C37   C38   A    
C71   C72   S    
C11   C16   A    
C31   N1    A    
C47   C48   S    
C19   H12   S    
C16   C20   A    
C17   C18   A    
C69   H66   S    
C24   C25   A    
C52   H27   S    
Cu2   O6    S    
C57   C58   S    
C60   H45   S    
C61   C62   S    
C63   H53   S    
C47   O13   S    
C72   H75   S    
C37   H19   S    
C4    H3    S    
C22   C24   A    
C5    C50   S    
C34   O7    A    
C11   H8    S    
Cu1   O7    S    
C39   C40   A    
C54   H32   S    
O13   C60   S    
C61   H48   S    
C58   H40   S    
C74   C75   S    
C10   C28   A    
C64   H55   S    
C40   C41   A    
C34   C49   S    
C23   O5    A    
C48   O15   S    
C21   H13   S    
C12   O4    A    
C4    H22   S    
C32   C35   A    
C2    H1    S    
C65   H58   S    
C4    C5    S    
C51   C52   S    
O15   C65   S    
C15   C17   A    
C62   H49   S    
C10   C23   S    
C70   H70   S    
C56   H35   S    
C33   C38   A    
O16   C68   S    
C59   H44   S    
C45   O9    S    
C32   C33   A    
C75   H82   S    
C19   C20   A    
C2    C3    S    
C62   H51   S    
Cu2   O4    S    
O14   C63   S    
C30   N1    A    
C11   C13   A    
C39   O14   S    
C45   C50   S    
C27   H6    S    
C63   C64   S    
C7    C50   S    
C59   H43   S    
C20   H4    S    
C68   H65   S    
C6    C49   T    
C55   H33   S    
Cu1   O3    S    
C60   H46   S    
C13   H9    S    
C38   H15   S    
C72   H74   S    
Cu1   N2    S    
C5    O18   S    
C14   C15   A    
C44   N2    A    
C52   H25   S    
O12   C57   S    
C3    C4    S    
C61   H47   S    
C58   H41   S    
C73   C74   S    
C14   H10   S    
