data_mof_unit_37037.cif
_audit_creation_date              2013-03-05T16:11:00-0500
_audit_creation_method            fapswitch 2.2
_symmetry_space_group_name_H-M    P1
_symmetry_Int_Tables_number       1
_space_group_crystal_system       triclinic
_cell_length_a                    22.975628
_cell_length_b                    7.199085
_cell_length_c                    20.779265
_cell_angle_alpha                 89.95827
_cell_angle_beta                  93.678538
_cell_angle_gamma                 89.926569
_cell_volume                      3429.87808419

loop_
_atom_site_label
_atom_site_type_symbol
_atom_site_description
_atom_site_fract_x
_atom_site_fract_y
_atom_site_fract_z
_atom_type_partial_charge
O1    O     O_R   0.307200 0.614510 0.194080 -0.565238
O2    O     O_R   0.692800 0.385490 0.805920 -0.565228
O3    O     O_R   0.192800 0.114510 0.305920 -0.562862
O4    O     O_R   0.807200 0.885490 0.694080 -0.562858
O5    O     O_R   0.188140 0.283260 0.181690 -0.564484
O6    O     O_R   0.811860 0.716740 0.818310 -0.564479
O7    O     O_R   0.311860 0.783260 0.318310 -0.571159
O8    O     O_R   0.688140 0.216740 0.681690 -0.571160
C1    C     C_R   0.168470 0.453438 0.166017 1.068506
C2    C     C_R   0.831530 0.546562 0.833983 1.068506
C3    C     C_R   0.331638 0.953062 0.333862 1.074385
C4    C     C_R   0.668363 0.046938 0.666137 1.074396
O9    O     O_R   0.306460 0.284700 0.186400 -0.568225
O10   O     O_R   0.693540 0.715300 0.813600 -0.568238
O11   O     O_R   0.193540 0.784700 0.313600 -0.574399
O12   O     O_R   0.806460 0.215300 0.686400 -0.574405
O13   O     O_R   0.311970 0.115840 0.310660 -0.577643
O14   O     O_R   0.688030 0.884160 0.689340 -0.577658
O15   O     O_R   0.188030 0.615840 0.189340 -0.572996
O16   O     O_R   0.811970 0.384160 0.810660 -0.572994
C5    C     C_R   0.325346 0.453272 0.171765 1.000937
C6    C     C_R   0.674653 0.546728 0.828235 1.000923
C7    C     C_R   0.174667 0.953365 0.328250 1.004516
C8    C     C_R   0.825333 0.046635 0.671750 1.004522
O17   O     O_3   0.251670 0.448440 0.290760 -0.278777
O18   O     O_3   0.748330 0.551560 0.709240 -0.278780
O19   O     O_3   0.248330 0.948440 0.209240 -0.264033
O20   O     O_3   0.751670 0.051560 0.790760 -0.264031
V1    V     V_3+5 0.249690 0.173030 0.242440 1.352086
V2    V     V_3+5 0.750310 0.826970 0.757560 1.352078
V3    V     V_3+5 0.250310 0.673030 0.257560 1.346550
V4    V     V_3+5 0.749690 0.326970 0.742440 1.346548
C9    C     C_R   0.966645 0.160890 0.504638 -0.200858
C10   C     C_R   0.033354 0.839110 0.495362 -0.200853
C11   C     C_R   0.533163 0.661013 0.995265 -0.195838
C12   C     C_R   0.466836 0.338989 0.004734 -0.195860
H1    H     H_    0.941140 0.286525 0.508909 0.215924
H2    H     H_    0.058859 0.713474 0.491090 0.215927
H3    H     H_    0.558519 0.786739 0.990926 0.215091
H4    H     H_    0.441480 0.213262 0.009073 0.215104
C13   C     C_R   0.954535 0.007161 0.543140 -0.086602
C14   C     C_R   0.045465 0.992839 0.456859 -0.086608
C15   C     C_R   0.545463 0.507321 0.956858 -0.082651
C16   C     C_R   0.454537 0.492680 0.043141 -0.082647
C17   C     C_R   0.988193 0.843117 0.538329 0.369367
C18   C     C_R   0.011807 0.156883 0.461670 0.369377
C19   C     C_R   0.512002 0.343153 0.961774 0.362160
C20   C     C_R   0.487997 0.656848 0.038225 0.362264
C21   C     C_1   0.908691 0.024043 0.588362 0.223127
C22   C     C_1   0.091309 0.975957 0.411637 0.223119
C23   C     C_1   0.591292 0.524319 0.911624 0.224370
C24   C     C_1   0.408707 0.475682 0.088375 0.224419
C25   C     C_1   0.129426 0.963613 0.373837 -0.104838
C26   C     C_1   0.870574 0.036387 0.626163 -0.104830
C27   C     C_1   0.370595 0.463350 0.126181 -0.100287
C28   C     C_1   0.629405 0.536650 0.873819 -0.100308
C29   C     C_R   0.435523 0.037068 0.366114 0.360782
C30   C     C_R   0.564477 0.962952 0.633884 0.360946
C31   C     C_R   0.065249 0.379057 0.127208 0.366134
C32   C     C_R   0.934751 0.620947 0.872792 0.366093
C33   C     C_R   0.381710 0.962221 0.382695 -0.459628
C34   C     C_R   0.618293 0.037779 0.617303 -0.459678
C35   C     C_R   0.119015 0.464569 0.116465 -0.453450
C36   C     C_R   0.880985 0.535431 0.883535 -0.453443
C37   C     C_R   0.375723 0.898246 0.446156 0.340379
C38   C     C_R   0.624283 0.101744 0.553841 0.340385
C39   C     C_R   0.124838 0.566619 0.059158 0.349866
C40   C     C_R   0.875163 0.433379 0.940841 0.349875
C41   C     C_R   0.420663 0.934681 0.495078 -0.155967
C42   C     C_R   0.579342 0.065321 0.504919 -0.155915
C43   C     C_R   0.079548 0.561213 0.009018 -0.155240
C44   C     C_R   0.920453 0.438787 0.990981 -0.155262
C45   C     C_R   0.476356 0.990910 0.476480 -0.007610
C46   C     C_R   0.523649 0.009093 0.523515 -0.007685
C47   C     C_R   0.023838 0.493799 0.023384 -0.001128
C48   C     C_R   0.976163 0.506201 0.976615 -0.001112
C49   C     C_R   0.485011 0.025429 0.410638 -0.172993
C50   C     C_R   0.514992 0.974586 0.589357 -0.173002
C51   C     C_R   0.015544 0.417559 0.085028 -0.173666
C52   C     C_R   0.984456 0.582444 0.914971 -0.173654
C53   C     C_R   0.410869 0.924966 0.561895 0.210334
C54   C     C_R   0.589134 0.075059 0.438101 0.210505
C55   C     C_R   0.088887 0.614177 0.944540 0.206844
C56   C     C_R   0.911113 0.385828 0.055460 0.206833
C57   C     C_R   0.457075 0.957679 0.608790 0.379691
C58   C     C_R   0.542928 0.042368 0.391205 0.379707
C59   C     C_R   0.042259 0.612058 0.896730 0.380997
C60   C     C_R   0.957742 0.387952 0.103270 0.381017
N1    N     N_R   0.022415 0.319884 0.423758 0.254634
O21   O     O_R   0.074391 0.357404 0.405970 -0.357874
O22   O     O_R   0.980993 0.440796 0.411557 -0.337559
N2    N     N_R   0.977585 0.680116 0.576242 0.254634
O23   O     O_R   0.925608 0.642596 0.594030 -0.357881
O24   O     O_R   0.019006 0.559203 0.588442 -0.337499
N3    N     N_R   0.477180 0.819823 0.076026 0.252697
O25   O     O_R   0.425119 0.857389 0.093627 -0.352996
O26   O     O_R   0.518496 0.940653 0.088310 -0.329470
N4    N     N_R   0.522819 0.180179 0.923972 0.252663
O27   O     O_R   0.574879 0.142612 0.906373 -0.352995
O28   O     O_R   0.481502 0.059350 0.911688 -0.329489
N5    N     N_R   0.438593 0.140553 0.307127 0.255577
O29   O     O_R   0.458247 0.310027 0.309111 -0.335476
O30   O     O_R   0.418730 0.071585 0.252137 -0.331605
N6    N     N_R   0.561399 0.859513 0.692879 0.255571
O31   O     O_R   0.541732 0.690055 0.690910 -0.335648
O32   O     O_R   0.581260 0.928518 0.747864 -0.331553
N7    N     N_R   0.062277 0.240770 0.176919 0.258821
O33   O     O_R   0.042971 0.075427 0.162062 -0.334073
O34   O     O_R   0.081128 0.275487 0.236095 -0.338915
N8    N     N_R   0.937722 0.759242 0.823083 0.258822
O35   O     O_R   0.957024 0.924586 0.837944 -0.334043
O36   O     O_R   0.918870 0.724534 0.763907 -0.338924
N9    N     N_R   0.324961 0.792772 0.460084 0.254722
O37   O     O_R   0.330919 0.624975 0.482890 -0.311020
O38   O     O_R   0.272858 0.859840 0.447376 -0.384117
N10   N     N_R   0.675048 0.207203 0.539915 0.254738
O39   O     O_R   0.669095 0.375017 0.517123 -0.310935
O40   O     O_R   0.727148 0.140112 0.552619 -0.384118
N11   N     N_R   0.175795 0.679283 0.053070 0.255507
O41   O     O_R   0.170259 0.857603 0.044376 -0.319860
O42   O     O_R   0.227716 0.606444 0.059548 -0.378169
N12   N     N_R   0.824207 0.320714 0.946930 0.255503
O43   O     O_R   0.829743 0.142395 0.955627 -0.319878
O44   O     O_R   0.772285 0.393550 0.940451 -0.378178
N13   N     N_R   0.352990 0.900748 0.582660 0.290714
O45   O     O_R   0.341855 0.765517 0.621580 -0.235308
O46   O     O_R   0.313160 0.025605 0.568575 -0.255976
N14   N     N_R   0.647013 0.099291 0.417337 0.290494
O47   O     O_R   0.686841 0.974416 0.431407 -0.256138
O48   O     O_R   0.658151 0.234568 0.378438 -0.235581
N15   N     N_R   0.146645 0.652528 0.925642 0.290460
O49   O     O_R   0.186161 0.522570 0.929182 -0.255131
O50   O     O_R   0.157885 0.809830 0.898185 -0.239513
N16   N     N_R   0.853356 0.347481 0.074358 0.290499
O51   O     O_R   0.842116 0.190185 0.101820 -0.239519
O52   O     O_R   0.813839 0.477438 0.070815 -0.255149
S1    S     S_3+6 0.439534 0.023365 0.688434 0.100198
O53   O     O_2   0.437106 0.853016 0.730025 -0.159474
O54   O     O_2   0.484428 0.155579 0.717589 -0.222359
O55   O     O_3   0.374471 0.131219 0.686851 -0.430341
H5    H     H_    0.367422 0.154549 0.732680 0.404730
S2    S     S_3+6 0.560472 0.976820 0.311548 0.100334
O56   O     O_2   0.515586 0.844676 0.282338 -0.221112
O57   O     O_2   0.562905 0.147288 0.270014 -0.160405
O58   O     O_3   0.625530 0.868935 0.313114 -0.430306
H6    H     H_    0.633170 0.849316 0.267230 0.404756
S3    S     S_3+6 0.058969 0.599357 0.813780 0.100321
O59   O     O_2   0.013838 0.486074 0.775847 -0.218661
O60   O     O_2   0.060797 0.791969 0.786042 -0.168254
O61   O     O_3   0.124030 0.496979 0.806284 -0.428442
H7    H     H_    0.130636 0.504550 0.759711 0.404755
S4    S     S_3+6 0.941032 0.400683 0.186219 0.100265
O62   O     O_2   0.939206 0.208088 0.213971 -0.168094
O63   O     O_2   0.986165 0.513987 0.224142 -0.218923
O64   O     O_3   0.875971 0.503058 0.193714 -0.428506
H8    H     H_    0.869490 0.496259 0.240329 0.404724

loop_
_geom_bond_atom_site_label_1
_geom_bond_atom_site_label_2
_geom_bond_distance
_ccdc_geom_bond_type
O17   V3    1.756860 S    
C55   C59   1.413659 A    
C30   C34   1.412012 A    
N5    O29   1.301243 A    
C20   N3    1.442556 S    
C39   N11   1.437299 S    
O19   V1    1.757859 S    
O13   V1    1.990951 S    
C45   C46   1.420313 A    
O1    C5    1.326866 A    
O3    C7    1.326628 A    
N3    O25   1.301164 A    
C10   C14   1.403695 A    
C44   C48   1.418948 A    
O15   V3    1.992136 S    
N14   O47   1.301607 A    
N6    O32   1.301892 A    
O58   H6    0.990650 S    
O4    V2    1.961563 S    
C18   N1    1.442585 S    
O18   V4    1.756860 S    
S1    O54   1.503349 D    
C56   N16   1.434931 S    
C19   N4    1.442557 S    
C59   S3    1.792120 S    
C36   C40   1.412461 A    
O9    V1    1.974783 S    
S3    O60   1.502937 D    
C52   C59   1.420574 A    
C11   H3    1.083845 S    
O4    C8    1.326629 A    
C8    C26   1.452401 S    
C21   C26   1.216552 T    
O1    V3    1.961256 S    
N10   O39   1.301141 A    
C12   C19   1.411920 A    
O2    V4    1.961256 S    
C23   C28   1.216610 T    
C14   C18   1.417901 A    
O3    V1    1.961565 S    
C17   N2    1.442585 S    
C42   C46   1.419523 A    
C51   C60   1.420573 A    
N8    O35   1.301245 A    
C1    O15   1.333403 A    
C3    O13   1.334063 A    
S3    O59   1.503271 D    
C2    O16   1.333404 A    
O2    C6    1.326865 A    
N7    O33   1.301245 A    
C41   C45   1.419530 A    
O14   V2    1.990953 S    
N1    O22   1.301644 A    
C11   C15   1.403709 A    
O5    V1    1.997415 S    
C24   C27   1.216612 T    
C40   C44   1.425066 A    
C16   C24   1.460933 S    
O11   C7    1.330853 A    
O12   C8    1.330855 A    
C10   H2    1.083857 S    
C9    C18   1.411897 A    
N7    O34   1.301711 A    
S2    O58   1.682048 S    
O10   V2    1.974783 S    
C11   C20   1.411922 A    
C13   C21   1.460830 S    
N6    O31   1.301242 A    
C7    C25   1.452401 S    
C43   C55   1.422270 A    
N11   O42   1.301474 A    
S1    O55   1.682041 S    
C35   C39   1.412460 A    
C22   C25   1.216550 T    
O7    V3    1.999580 S    
C34   C38   1.411558 A    
O8    V4    1.999581 S    
C29   C49   1.421421 A    
C12   H4    1.083845 S    
S3    O61   1.682017 S    
C41   C53   1.422402 A    
O55   H5    0.990583 S    
C31   C51   1.421126 A    
C5    C27   1.452482 S    
N16   O52   1.301612 A    
C3    C33   1.485933 S    
C54   C58   1.414308 A    
C31   N7    1.438921 S    
C56   C60   1.413655 A    
O7    C3    1.337303 A    
C47   C48   1.419613 A    
O5    C1    1.338038 A    
C4    C34   1.485928 S    
S4    O64   1.682001 S    
O8    C4    1.337301 A    
N2    O24   1.301643 A    
O9    C5    1.330884 A    
C10   C17   1.411899 A    
O11   V3    1.974111 S    
C54   N14   1.434955 S    
C44   C56   1.422271 A    
C38   N10   1.437281 S    
C14   C22   1.460832 S    
C50   C57   1.420521 A    
O6    V2    1.997409 S    
S4    O63   1.503280 D    
C49   C58   1.420536 A    
N4    O28   1.301651 A    
N13   O45   1.301262 A    
S2    O57   1.502942 D    
C12   C16   1.403710 A    
C30   N6    1.439534 S    
C40   N12   1.437300 S    
N15   O49   1.301611 A    
C57   S1    1.791952 S    
C58   S2    1.791975 S    
C9    H1    1.083858 S    
N9    O37   1.301142 A    
O16   V4    1.992136 S    
C32   C52   1.421127 A    
C45   C49   1.416924 A    
C53   N13   1.434955 S    
C1    C35   1.485665 S    
C37   N9    1.437286 S    
C2    C36   1.485667 S    
C48   C52   1.417342 A    
C15   C19   1.417912 A    
N15   O50   1.301278 A    
N14   O48   1.301263 A    
C60   S4    1.792120 S    
C6    C28   1.452480 S    
N11   O41   1.301191 A    
N3    O26   1.301650 A    
C29   C33   1.412025 A    
N16   O51   1.301277 A    
O12   V4    1.974112 S    
C29   N5    1.439533 S    
S1    O53   1.502924 D    
C31   C35   1.411360 A    
O61   H7    0.990616 S    
C32   C36   1.411362 A    
C9    C13   1.403697 A    
O10   C6    1.330886 A    
O20   V2    1.757859 S    
C55   N15   1.434932 S    
N12   O43   1.301192 A    
C43   C47   1.418947 A    
C15   C23   1.460934 S    
C38   C42   1.426439 A    
C47   C51   1.417339 A    
C37   C41   1.426430 A    
N2    O23   1.301151 A    
N10   O40   1.301412 A    
C39   C43   1.425068 A    
C42   C54   1.422393 A    
N8    O36   1.301711 A    
C32   N8    1.438921 S    
O6    C2    1.338039 A    
C30   C50   1.421411 A    
C33   C37   1.411561 A    
S4    O62   1.502930 D    
N5    O30   1.301892 A    
N4    O27   1.301163 A    
C46   C50   1.416917 A    
C4    O14   1.334063 A    
O64   H8    0.990596 S    
N13   O46   1.301610 A    
C13   C17   1.417901 A    
S2    O56   1.503323 D    
N1    O21   1.301151 A    
N12   O44   1.301476 A    
C53   C57   1.414305 A    
C16   C20   1.417912 A    
N9    O38   1.301410 A    
