data_mof_unit_53831.cif
_audit_creation_date              2012-12-10T19:47:22-0500
_audit_creation_method            fapswitch 2.2
_symmetry_space_group_name_H-M    P1
_symmetry_Int_Tables_number       1
_space_group_crystal_system       triclinic
_cell_length_a                    10.86832
_cell_length_b                    10.874665
_cell_length_c                    12.702521
_cell_angle_alpha                 92.394876
_cell_angle_beta                  92.348297
_cell_angle_gamma                 90.318239
_cell_volume                      1498.69190154

loop_
_atom_site_label
_atom_site_type_symbol
_atom_type_description
_atom_site_fract_x
_atom_site_fract_y
_atom_site_fract_z
_atom_type_partial_charge
C1    C     C_R   0.261881 0.495664 0.501345 0.806812
C2    C     C_R   0.738118 0.504345 0.498655 0.806833
C3    C     C_R   0.496139 0.871667 0.497073 -0.063135
C4    C     C_R   0.503883 0.128334 0.502926 -0.063138
C5    C     C_R   0.455767 0.935039 0.407289 0.027127
C6    C     C_R   0.544261 0.064962 0.592708 0.027122
C7    C     C_R   0.223362 0.295567 0.807918 -0.128412
C8    C     C_R   0.776670 0.704862 0.192295 -0.128254
C9    C     C_R   0.181275 0.332552 0.708753 -0.084769
C10   C     C_R   0.818777 0.667718 0.291415 -0.084912
C11   C     C_R   0.123783 0.447092 0.698668 0.150044
C12   C     C_R   0.876211 0.553118 0.301373 0.150028
C13   C     C_R   0.110261 0.524339 0.788921 -0.151786
C14   C     C_R   0.889644 0.475963 0.211040 -0.151729
C15   C     C_R   0.152627 0.486992 0.887843 -0.142724
C16   C     C_R   0.847247 0.513464 0.112162 -0.142637
C17   C     C_R   0.207904 0.372152 0.897430 -0.121738
C18   C     C_R   0.792037 0.628369 0.102701 -0.121755
C19   C     C_R   0.937304 0.488826 0.592208 -0.238175
C20   C     C_R   0.062692 0.511200 0.407792 -0.238154
C21   C     C_R   0.871800 0.506863 0.496985 -0.088357
C22   C     C_R   0.128198 0.493157 0.503016 -0.088356
C23   C     C_R   0.502530 0.261892 0.501214 0.820092
C24   C     C_R   0.497477 0.738109 0.498786 0.820082
C25   C     C_R   0.935485 0.520556 0.403482 -0.009115
C26   C     C_R   0.064511 0.479497 0.596524 -0.009134
C27   C     C_2   0.483416 0.454969 0.031767 -0.263340
C28   C     C_2   0.516593 0.545020 0.968233 -0.263238
C29   C     C_1   0.518701 0.528779 0.852655 0.214293
C30   C     C_1   0.481303 0.471215 0.147345 0.214285
C31   C     C_R   0.754474 0.238239 0.797031 0.171045
C32   C     C_R   0.245543 0.761796 0.202958 0.171047
C33   C     C_R   0.709484 0.186188 0.698623 0.227110
C34   C     C_R   0.290539 0.813834 0.301368 0.227099
C35   C     C_R   0.593339 0.126316 0.692373 0.080934
C36   C     C_R   0.406693 0.873686 0.307623 0.080941
C37   C     C_R   0.526140 0.116107 0.783598 -0.200940
C38   C     C_R   0.473902 0.883880 0.216405 -0.200877
C39   C     C_R   0.571530 0.166682 0.880063 -0.186255
C40   C     C_R   0.428508 0.833317 0.119937 -0.186225
C41   C     C_R   0.684509 0.228269 0.886778 -0.194243
C42   C     C_R   0.315516 0.771753 0.113216 -0.194253
C43   C     C_R   0.539227 0.937403 0.588467 -0.268376
C44   C     C_R   0.460800 0.062597 0.411530 -0.268373
Cu1   Cu    Cu3+1 0.492140 0.492110 0.395880 0.985383
Cu2   Cu    Cu3+1 0.507860 0.507890 0.604120 0.985367
H1    H     H_    0.718657 0.267289 0.962285 0.138208
H2    H     H_    0.281365 0.732742 0.037706 0.138217
H3    H     H_    0.064551 0.612158 0.782834 0.119676
H4    H     H_    0.935301 0.388095 0.217029 0.119639
H5    H     H_    0.140543 0.546068 0.957289 0.120359
H6    H     H_    0.859251 0.454457 0.042651 0.120365
H7    H     H_    0.888834 0.477501 0.663983 0.181744
H8    H     H_    0.111161 0.522544 0.336019 0.181719
H9    H     H_    0.541918 0.634634 0.003023 0.154621
H10   H     H_    0.458083 0.365357 0.996979 0.154609
H11   H     H_    0.438752 0.067441 0.779949 0.134154
H12   H     H_    0.561299 0.932528 0.220059 0.134106
H13   H     H_    0.519302 0.157135 0.950020 0.135714
H14   H     H_    0.480741 0.842857 0.049983 0.135711
H15   H     H_    0.571918 0.889189 0.657143 0.162574
H16   H     H_    0.428109 0.110810 0.342854 0.162577
H17   H     H_    0.237609 0.342013 0.974403 0.117009
H18   H     H_    0.762316 0.658630 0.025762 0.116930
H19   H     H_    0.265530 0.206440 0.815745 0.118258
H20   H     H_    0.734554 0.794037 0.184566 0.118202
H21   H     H_    0.190437 0.270827 0.640404 0.098697
H22   H     H_    0.809682 0.729370 0.359830 0.098667
N1    N     N_1   0.480320 0.480250 0.239400 -0.158044
N2    N     N_1   0.519680 0.519750 0.760600 -0.158048
O1    O     O_R   0.313000 0.493330 0.412070 -0.581775
O2    O     O_R   0.687000 0.506670 0.587930 -0.581781
O3    O     O_R   0.326280 0.506660 0.587930 -0.571684
O4    O     O_R   0.673720 0.493340 0.412070 -0.571669
O5    O     O_R   0.493370 0.312980 0.412070 -0.591013
O6    O     O_R   0.506630 0.687020 0.587930 -0.591012
O7    O     O_R   0.506650 0.326310 0.587930 -0.568496
O8    O     O_R   0.493350 0.673690 0.412070 -0.568479
N3    N     N_3   0.871870 0.298914 0.806796 -0.625765
H23   H     H_    0.858603 0.388263 0.837698 0.212638
H24   H     H_    0.927133 0.252707 0.861425 0.220867
N4    N     N_3   0.128129 0.701155 0.193186 -0.625768
H25   H     H_    0.141364 0.611796 0.162284 0.212622
H26   H     H_    0.072873 0.747379 0.138569 0.220890
N5    N     N_3   0.780023 0.190906 0.605360 -0.606846
H27   H     H_    0.804912 0.100782 0.584196 0.200784
H28   H     H_    0.862151 0.239909 0.619972 0.246817
N6    N     N_3   0.219994 0.809129 0.394628 -0.606853
H29   H     H_    0.195097 0.899255 0.415776 0.200797
H30   H     H_    0.137872 0.760114 0.380019 0.246818

loop_
_geom_bond_atom_site_label_1
_geom_bond_atom_site_label_2
_ccdc_geom_bond_type
C8    H20   S    
C40   H14   S    
Cu1   O1    S    
Cu2   O6    S    
C39   C41   A    
Cu1   Cu2   S    
C3    C43   A    
C1    O1    A    
C28   C29   S    
C19   C21   A    
C20   C25   A    
C5    C36   S    
C6    C35   S    
C7    C9    A    
C19   C26   A    
C33   N5    S    
C38   H12   S    
C7    C17   A    
C31   C33   A    
Cu1   O8    S    
C15   H5    S    
Cu2   O2    S    
C2    O4    A    
C19   H7    S    
C40   C42   A    
C1    C22   S    
C27   C30   S    
C3    C24   S    
C2    O2    A    
C28   H9    S    
N5    H28   S    
Cu1   N1    S    
C4    C6    A    
C23   O5    A    
N3    H24   S    
C4    C23   S    
C27   H10   S    
C24   O6    A    
C34   N6    S    
C4    C44   A    
C11   C26   S    
C44   H16   S    
N5    H27   S    
C8    C18   A    
Cu1   O4    S    
C32   C34   A    
C9    H21   S    
C7    H19   S    
C39   H13   S    
C2    C21   S    
C41   H1    S    
C16   C18   A    
C42   H2    S    
C23   O7    A    
C9    C11   A    
C10   C12   A    
C13   H3    S    
C20   H8    S    
C5    C44   A    
N6    H30   S    
N4    H26   S    
C6    C43   A    
C13   C15   A    
C14   C16   A    
C30   N1    T    
C43   H15   S    
C29   N2    T    
C24   O8    A    
C15   C17   A    
C21   C25   A    
C31   C41   A    
C35   C37   A    
C16   H6    S    
C20   C22   A    
C3    C5    A    
Cu2   O7    S    
C31   N3    S    
C10   H22   S    
C32   N4    S    
C12   C25   S    
Cu1   O5    S    
C1    O3    A    
C36   C38   A    
C12   C14   A    
C37   C39   A    
C17   H17   S    
C38   C40   A    
C11   C13   A    
C18   H18   S    
C14   H4    S    
C33   C35   A    
C34   C36   A    
Cu2   N2    S    
N3    H23   S    
N6    H29   S    
C8    C10   A    
N4    H25   S    
C22   C26   A    
C27   C28   D    
C32   C42   A    
Cu2   O3    S    
C37   H11   S    
