data_mof_unit_45167.cif
_audit_creation_date              2012-12-10T17:19:03-0500
_audit_creation_method            fapswitch 2.2
_symmetry_space_group_name_H-M    P1
_symmetry_Int_Tables_number       1
_space_group_crystal_system       triclinic
_cell_length_a                    10.282815
_cell_length_b                    10.878093
_cell_length_c                    13.467203
_cell_angle_alpha                 94.291858
_cell_angle_beta                  100.539217
_cell_angle_gamma                 92.872799
_cell_volume                      1473.70909084

loop_
_atom_site_label
_atom_site_type_symbol
_atom_type_description
_atom_site_fract_x
_atom_site_fract_y
_atom_site_fract_z
_atom_type_partial_charge
Br1   Br    Br    0.291724 0.743211 0.184986 -0.368118
Br2   Br    Br    0.726387 0.282583 0.804373 -0.356997
C1    C     C_R   0.045531 0.730958 0.487494 0.951229
C2    C     C_2   0.971688 0.056273 0.436513 0.327287
C3    C     C_2   0.431161 0.494880 0.520212 0.081628
C4    C     C_2   0.572681 0.482495 0.498629 0.088060
C5    C     C_R   0.092815 0.512920 0.686459 0.918355
C6    C     C_R   0.907086 0.487431 0.312749 0.938189
C7    C     C_R   0.141326 0.527727 0.795413 -0.152152
C8    C     C_R   0.860537 0.475267 0.202137 -0.156849
C9    C     C_R   0.160757 0.649565 0.955308 -0.096547
C10   C     C_R   0.851966 0.365298 0.037573 -0.118776
C11   C     C_R   0.095481 0.619917 0.855802 -0.205377
C12   C     C_R   0.948853 0.267803 0.503009 0.998853
C13   C     C_R   0.914220 0.392255 0.138179 -0.127710
C14   C     C_R   0.245138 0.458641 0.837057 0.354349
C15   C     C_R   0.760857 0.547386 0.158196 0.331694
C16   C     C_R   0.330956 0.509237 0.926407 -0.040367
C17   C     C_R   0.675782 0.494687 0.070019 -0.016741
C18   C     C_R   0.282023 0.598736 0.990536 0.008954
C19   C     C_R   0.728002 0.411137 0.003742 0.040863
C20   C     C_R   0.465301 0.479933 0.950656 0.017720
C21   C     C_R   0.542489 0.525393 0.045359 -0.002901
C22   C     C_R   0.483761 0.597025 0.114431 -0.079827
C23   C     C_R   0.527949 0.415753 0.879558 -0.109351
C24   C     C_R   0.356865 0.636919 0.086908 0.298983
C25   C     C_R   0.655565 0.377330 0.906147 0.298115
C26   C     C_2   0.055006 0.859247 0.466790 -0.380787
C27   C     C_2   0.921668 0.136010 0.498888 -0.394708
C28   C     C_2   0.947096 0.926350 0.443070 0.393250
H1    H     H_    0.001979 0.346434 0.164870 0.250312
H2    H     H_    0.419198 0.546560 0.589363 0.163639
H3    H     H_    0.893893 0.810566 0.050031 0.398200
H4    H     H_    0.267623 0.188742 0.662614 0.397461
H5    H     H_    0.104383 0.009025 0.203928 0.396397
H6    H     H_    0.595146 0.946923 0.342603 0.407743
H7    H     H_    0.634422 0.643077 0.793434 0.386249
H8    H     H_    0.439047 0.230632 0.284106 0.389224
H9    H     H_    0.011207 0.670521 0.825505 0.221125
H10   H     H_    0.121569 0.719639 0.000728 0.211668
H11   H     H_    0.896383 0.301778 0.989945 0.211223
H12   H     H_    0.537097 0.624649 0.190352 0.219910
H13   H     H_    0.479780 0.396660 0.801651 0.234551
H14   H     H_    0.860962 0.102722 0.550581 0.200953
H15   H     H_    0.154142 0.902591 0.473084 0.179736
H16   H     H_    0.589135 0.409812 0.444200 0.171854
N1    N     N_2   0.322180 0.446120 0.460900 0.065293
N2    N     N_2   0.677820 0.553880 0.539100 0.062766
O1    O     O_R   0.935190 0.693030 0.507870 -0.539075
O2    O     O_2   0.928713 0.741408 0.239477 -0.251132
O3    O     O_3   0.855911 0.724252 0.044163 -0.546479
O4    O     O_2   0.311022 0.226624 0.876461 -0.255274
O5    O     O_2   0.092108 0.250466 0.775249 -0.290637
O6    O     O_3   0.295536 0.275512 0.688399 -0.554291
O7    O     O_2   0.986968 0.200539 0.288415 -0.318986
O8    O     O_2   0.196089 0.138626 0.387365 -0.221703
O9    O     O_3   0.055051 0.977294 0.254351 -0.471027
O10   O     O_2   0.743831 0.746883 0.374862 -0.234157
O11   O     O_2   0.729608 0.888865 0.521887 -0.231711
O12   O     O_R   0.064810 0.306970 0.492130 -0.540539
O13   O     O_3   0.689716 0.972140 0.345218 -0.493509
O14   O     O_2   0.800718 0.728364 0.676179 -0.233170
O15   O     O_2   0.563504 0.745145 0.612101 -0.253178
O16   O     O_3   0.633167 0.579161 0.736799 -0.589566
O17   O     O_2   0.207995 0.349494 0.276021 -0.217451
O18   O     O_2   0.413558 0.476239 0.292486 -0.347586
O19   O     O_3   0.425270 0.255543 0.353503 -0.516026
O20   O     O_R   0.142080 0.658430 0.482770 -0.609805
O21   O     O_R   0.857920 0.341570 0.517230 -0.620941
O22   O     O_R   0.969700 0.527180 0.651960 -0.573476
O23   O     O_R   0.030300 0.472820 0.348040 -0.546433
O24   O     O_R   0.176600 0.492580 0.626860 -0.618789
O25   O     O_R   0.823400 0.507420 0.373140 -0.618595
O26   O     O_2   0.701396 0.788419 0.167549 -0.229185
S1    S     S_3+6 0.811245 0.705557 0.156418 0.083641
S2    S     S_3+6 0.235234 0.297849 0.795957 0.023961
S3    S     S_3+6 0.055532 0.097944 0.339979 0.091400
S4    S     S_3+6 0.774753 0.876822 0.422074 0.120305
S5    S     S_3+6 0.669328 0.657066 0.641304 0.154619
S6    S     S_3+6 0.339800 0.383357 0.342154 0.146847
Zn1   Zn    Zn3+2 0.861850 0.523100 0.516760 1.143318
Zn2   Zn    Zn3+2 0.138150 0.476900 0.483240 1.150007

loop_
_geom_bond_atom_site_label_1
_geom_bond_atom_site_label_2
_ccdc_geom_bond_type
C22   H12   S    
C1    O20   A    
C23   H13   S    
C5    O22   A    
C1    O1    A    
O15   S5    D    
C3    N1    D    
C4    N2    D    
N2    S5    S    
C1    C26   S    
C17   C19   A    
C7    C14   A    
C22   C24   A    
C8    C13   A    
C3    C4    S    
O7    S3    D    
C8    C15   A    
N2    Zn1   S    
N1    Zn2   S    
O1    Zn1   S    
O22   Zn1   S    
C7    C11   A    
C15   C17   A    
O12   Zn2   S    
C20   C23   A    
C21   C22   A    
Br2   C25   S    
C2    C27   D    
O23   Zn2   S    
C19   C25   A    
O17   S6    D    
C14   S2    S    
N1    S6    S    
O11   S4    D    
O25   Zn1   S    
C9    C18   A    
C26   H15   S    
O26   S1    D    
O9    S3    S    
O14   S5    D    
C5    O24   A    
C10   C19   A    
O8    S3    D    
C17   C21   A    
C10   H11   S    
C10   C13   A    
O13   S4    S    
O6    S2    S    
C6    C8    S    
H4    O6    S    
C27   H14   S    
Br1   C24   S    
C12   O21   A    
O5    S2    D    
H3    O3    S    
C12   C27   S    
H6    O13   S    
H7    O16   S    
O18   S6    D    
C5    C7    S    
C6    O23   A    
C4    H16   S    
C16   C20   A    
O19   S6    S    
O3    S1    S    
O4    S2    D    
C13   H1    S    
C23   C25   A    
C12   O12   A    
H5    O9    S    
O20   Zn2   S    
C3    H2    S    
C26   C28   D    
C2    S3    S    
O2    S1    D    
C9    C11   A    
C18   C24   A    
C6    O25   A    
O16   S5    S    
C16   C18   A    
C9    H10   S    
C2    C28   S    
C11   H9    S    
O21   Zn1   S    
O10   S4    D    
C28   S4    S    
H8    O19   S    
C14   C16   A    
C15   S1    S    
C20   C21   A    
O24   Zn2   S    
