data_mof_unit_60601.cif
_audit_creation_date              2012-12-10T18:57:57-0500
_audit_creation_method            fapswitch 2.2
_symmetry_space_group_name_H-M    P1
_symmetry_Int_Tables_number       1
_space_group_crystal_system       triclinic
_cell_length_a                    37.173701
_cell_length_b                    30.294059
_cell_length_c                    21.464167
_cell_angle_alpha                 89.995414
_cell_angle_beta                  54.51356
_cell_angle_gamma                 89.99602
_cell_volume                      19681.882497

loop_
_atom_site_label
_atom_site_type_symbol
_atom_type_description
_atom_site_fract_x
_atom_site_fract_y
_atom_site_fract_z
_atom_type_partial_charge
C1    C     C_R   0.913671 0.499973 0.586064 0.976712
C2    C     C_R   0.203187 0.460122 0.289843 0.614214
C3    C     C_R   0.010373 0.842312 0.934713 0.521555
C4    C     C_R   0.499999 0.365568 0.000007 -0.542009
C5    C     C_R   0.999999 0.865568 0.000008 -0.541944
C6    C     C_R   0.499998 0.273742 0.000015 -0.350147
C7    C     C_R   0.999998 0.773741 0.000016 -0.350093
C8    C     C_R   0.961065 0.296774 0.053186 0.603048
C9    C     C_R   0.038935 0.296774 0.946783 0.603023
C10   C     C_R   0.538828 0.796782 0.975608 0.603008
C11   C     C_R   0.461181 0.796785 0.024354 0.603009
C12   C     C_R   0.961054 0.342560 0.052902 -0.263394
C13   C     C_R   0.296813 0.960123 0.710101 0.614223
C14   C     C_R   0.038947 0.342561 0.947078 -0.263423
C15   C     C_R   0.538839 0.842567 0.975307 -0.263445
C16   C     C_R   0.461167 0.842570 0.024668 -0.263425
C17   C     C_R   0.000001 0.365634 0.999993 -0.222990
C18   C     C_R   0.500002 0.865639 0.999992 -0.223220
C19   C     C_3   0.020026 0.543686 0.192666 0.395828
C20   C     C_3   0.979396 0.543478 0.807866 0.396156
C21   C     C_3   0.520391 0.043559 0.192324 0.396014
C22   C     C_3   0.479427 0.043489 0.807838 0.396121
C23   C     C_R   1.000000 0.273863 0.999983 -0.218668
C24   C     C_R   0.703187 0.960128 0.289805 0.614223
C25   C     C_R   0.500005 0.773870 0.999978 -0.218905
C26   C     C_R   0.490805 0.703174 0.954145 -0.066054
C27   C     C_R   0.509204 0.703171 0.045821 -0.066064
C28   C     C_R   0.009492 0.203169 0.935455 -0.065658
C29   C     C_R   0.990509 0.203168 0.064518 -0.065682
C30   C     C_R   0.490980 0.657395 0.953865 -0.182237
C31   C     C_R   0.509027 0.657392 0.046111 -0.182229
C32   C     C_R   0.009312 0.157389 0.935529 -0.182035
C33   C     C_R   0.990689 0.157388 0.064452 -0.182011
C34   C     C_R   0.500002 0.634290 0.999991 -0.040043
C35   C     C_R   0.842585 0.460280 0.665098 -0.265419
C36   C     C_R   0.000000 0.134287 0.999992 -0.037934
C37   C     C_R   0.500005 0.725998 0.999980 0.206119
C38   C     C_R   0.000001 0.225993 0.999985 0.206654
C39   C     C_3   0.030150 0.461442 0.254825 -0.472514
C40   C     C_3   0.970385 0.461043 0.744693 -0.471326
C41   C     C_3   0.529810 0.961188 0.255138 -0.470821
C42   C     C_3   0.470357 0.961062 0.744717 -0.470471
C43   C     C_3   0.953436 0.493963 0.334530 0.366464
C44   C     C_3   0.046625 0.494657 0.665392 0.366612
C45   C     C_3   0.453398 0.994413 0.334577 0.366314
C46   C     C_R   0.157416 0.460273 0.334938 -0.265958
C47   C     C_3   0.546620 0.994621 0.665400 0.366352
C48   C     C_3   0.001590 0.500126 0.308865 -0.144218
C49   C     C_3   0.998386 0.500123 0.691157 -0.144195
C50   C     C_3   0.501607 0.000127 0.308849 -0.144337
C51   C     C_3   0.498386 0.000122 0.691157 -0.144333
C52   C     C_3   0.999919 0.499618 0.189665 -0.113590
C53   C     C_3   0.000077 0.499679 0.810335 -0.113432
C54   C     C_3   0.499925 0.999659 0.189661 -0.113236
C55   C     C_3   0.500074 0.999673 0.810339 -0.113194
C56   C     C_3   0.028607 0.460810 0.184884 -0.525628
C57   C     C_R   0.342583 0.960272 0.665009 -0.265582
C58   C     C_3   0.971890 0.460500 0.814674 -0.526268
C59   C     C_3   0.528301 0.960618 0.185160 -0.526859
C60   C     C_3   0.471856 0.960517 0.814705 -0.527074
C61   C     C_R   0.657416 0.960279 0.334895 -0.265753
C62   C     C_R   0.865669 0.499912 0.633110 -0.220626
C63   C     C_R   0.134332 0.499909 0.366890 -0.221243
C64   C     C_R   0.365668 0.999913 0.633107 -0.220933
C65   C     C_R   0.086329 0.499972 0.413936 0.975783
C66   C     C_R   0.634331 0.999909 0.366899 -0.221127
C67   C     C_R   0.842604 0.539384 0.646046 -0.203239
C68   C     C_R   0.157396 0.539384 0.353917 -0.203470
C69   C     C_R   0.342602 0.039396 0.646126 -0.203375
C70   C     C_R   0.657394 0.039377 0.353987 -0.203435
C71   C     C_R   0.796806 0.539273 0.690789 0.611346
C72   C     C_R   0.203194 0.539272 0.309175 0.611207
C73   C     C_R   0.296804 0.039287 0.690867 0.611321
C74   C     C_R   0.703191 0.039264 0.309252 0.611308
C75   C     C_R   0.773901 0.499653 0.723152 -0.185580
C76   C     C_R   0.413671 0.999973 0.586063 0.976388
C77   C     C_R   0.226100 0.499647 0.276848 -0.185594
C78   C     C_R   0.273899 0.999656 0.723145 -0.185662
C79   C     C_R   0.726098 0.999646 0.276870 -0.185706
C80   C     C_R   0.702823 0.513167 0.742178 -0.053356
C81   C     C_R   0.297177 0.513181 0.257811 -0.053444
C82   C     C_R   0.202819 0.013240 0.742210 -0.053122
C83   C     C_R   0.797178 0.013140 0.257844 -0.053194
C84   C     C_R   0.657035 0.512960 0.788789 -0.256595
C85   C     C_R   0.342965 0.512975 0.211200 -0.256605
C86   C     C_R   0.157031 0.013032 0.788823 -0.257336
C87   C     C_R   0.586329 0.999972 0.413938 0.976096
C88   C     C_R   0.842966 0.012937 0.211226 -0.257269
C89   C     C_R   0.634285 0.499534 0.865371 -0.186573
C90   C     C_R   0.365716 0.499531 0.134629 -0.186532
C91   C     C_R   0.134283 0.999537 0.865369 -0.186194
C92   C     C_R   0.865714 0.999536 0.134633 -0.186258
C93   C     C_R   0.001792 0.500011 0.376854 0.957768
C94   C     C_R   0.998177 0.500006 0.623173 0.957458
C95   C     C_R   0.501812 0.000009 0.376836 0.957535
C96   C     C_R   0.498179 0.000006 0.623173 0.957451
C97   C     C_R   0.657855 0.485986 0.894815 0.637111
C98   C     C_3   0.952308 0.494476 0.264142 -0.369818
C99   C     C_R   0.342147 0.485962 0.105198 0.637092
C100  C     C_R   0.157853 0.985921 0.894777 0.637566
C101  C     C_R   0.842142 0.986013 0.105186 0.637598
C102  C     C_R   0.703635 0.486023 0.847836 -0.143478
C103  C     C_R   0.296367 0.485997 0.152176 -0.143558
C104  C     C_R   0.203632 0.985959 0.847797 -0.143510
C105  C     C_R   0.796362 0.986046 0.152171 -0.143531
C106  C     C_R   0.726035 0.499640 0.771749 0.104494
C107  C     C_R   0.273966 0.499633 0.228251 0.104553
C108  C     C_R   0.226032 0.999644 0.771745 0.104339
C109  C     C_3   0.047748 0.495142 0.735786 -0.369137
C110  C     C_R   0.773964 0.999635 0.228269 0.104387
C111  C     C_R   1.000000 0.586231 0.000002 1.038875
C112  C     C_R   0.499999 0.086231 0.000001 1.038839
C113  C     C_R   0.999848 0.499395 0.121567 0.936882
C114  C     C_R   0.000153 0.499460 0.878430 0.937001
C115  C     C_R   0.499848 0.999438 0.121568 0.936946
C116  C     C_R   0.500152 0.999455 0.878431 0.937005
C117  C     C_R   0.000000 0.413636 0.999998 0.909888
C118  C     C_R   0.500001 0.913638 0.999998 0.910022
C119  C     C_R   0.500000 0.413675 0.000002 1.034973
C120  C     C_3   0.452276 0.994898 0.264183 -0.369126
C121  C     C_R   1.000000 0.913675 0.000002 1.034893
C122  C     C_R   0.586250 0.499755 0.913683 0.907790
C123  C     C_R   0.413750 0.499754 0.086317 0.907785
C124  C     C_R   0.086249 0.999755 0.913683 0.907761
C125  C     C_R   0.913750 0.999756 0.086318 0.907699
C126  C     C_R   0.500000 0.586272 0.999997 0.852116
C127  C     C_R   0.000000 0.086271 0.999998 0.851922
C128  C     C_R   0.037950 0.703155 0.943597 -0.127331
C129  C     C_R   0.962048 0.703153 0.056435 -0.127434
C130  C     C_R   0.537949 0.203155 0.943591 -0.127315
C131  C     C_3   0.547741 0.995101 0.735795 -0.368935
C132  C     C_R   0.462049 0.203153 0.056438 -0.127352
C133  C     C_3   0.020225 0.544464 0.264106 0.434930
C134  C     C_3   0.979121 0.544201 0.736499 0.434151
C135  C     C_3   0.520645 0.044299 0.263711 0.434426
C136  C     C_3   0.479153 0.044213 0.736469 0.434173
C137  C     C_R   0.038077 0.657459 0.943221 0.596098
C138  C     C_R   0.961921 0.657457 0.056801 0.596586
C139  C     C_R   0.538075 0.157459 0.943216 0.596232
C140  C     C_R   0.461923 0.157457 0.056803 0.596390
C141  C     C_R   0.999999 0.634239 0.000008 -0.349521
C142  C     C_R   0.796815 0.460131 0.710193 0.614299
C143  C     C_R   0.499999 0.134238 0.000007 -0.349400
C144  C     C_R   0.999999 0.725925 0.000018 0.069098
C145  C     C_R   0.499999 0.225925 0.000016 0.069035
C146  C     C_R   0.489767 0.296590 0.065069 0.542646
C147  C     C_R   0.510229 0.296592 0.934957 0.542647
C148  C     C_R   0.989769 0.796590 0.065069 0.542618
C149  C     C_R   0.010227 0.796592 0.934960 0.542644
C150  C     C_R   0.489623 0.342311 0.065308 0.521569
C151  C     C_R   0.510375 0.342313 0.934711 0.521580
C152  C     C_R   0.989624 0.842311 0.065307 0.521572
F1    F     F_    0.062918 0.551397 0.242630 -0.661288
F2    F     F_    0.225185 0.577826 0.296004 -0.621101
F3    F     F_    0.274813 0.077849 0.704085 -0.620950
F4    F     F_    0.725181 0.077812 0.296143 -0.620917
F5    F     F_    0.636881 0.472016 0.968230 -0.615095
F6    F     F_    0.363123 0.471973 0.031794 -0.615135
F7    F     F_    0.136877 0.971880 0.968156 -0.614758
F8    F     F_    0.863113 0.972071 0.031758 -0.614748
F9    F     F_    0.075162 0.636229 0.886707 -0.589215
F10   F     F_    0.924836 0.636224 0.113310 -0.588807
F11   F     F_    0.575159 0.136229 0.886698 -0.589109
F12   F     F_    0.936315 0.550487 0.758140 -0.661926
F13   F     F_    0.424839 0.136224 0.113317 -0.588989
F14   F     F_    0.480557 0.274548 0.127901 -0.564086
F15   F     F_    0.519437 0.274552 0.872129 -0.564071
F16   F     F_    0.980560 0.774548 0.127901 -0.564157
F17   F     F_    0.019435 0.774551 0.872132 -0.564117
F18   F     F_    0.478877 0.363555 0.129735 -0.552943
F19   F     F_    0.521121 0.363557 0.870279 -0.552928
F20   F     F_    0.978881 0.863555 0.129733 -0.553002
F21   F     F_    0.021117 0.863557 0.870283 -0.552986
F22   F     F_    0.923068 0.274795 0.104396 -0.632987
F23   F     F_    0.563414 0.050812 0.242119 -0.661745
F24   F     F_    0.076932 0.274796 0.895570 -0.633026
F25   F     F_    0.576726 0.774806 0.951094 -0.632803
F26   F     F_    0.423284 0.774811 0.048864 -0.632804
F27   F     F_    0.995956 0.579233 0.194219 -0.635427
F28   F     F_    0.003040 0.579336 0.806645 -0.635724
F29   F     F_    0.496582 0.079302 0.193681 -0.635612
F30   F     F_    0.503098 0.079328 0.806589 -0.635705
F31   F     F_    0.926434 0.527127 0.384928 -0.638794
F32   F     F_    0.073136 0.528229 0.615525 -0.638045
F33   F     F_    0.426713 0.027845 0.384616 -0.638248
F34   F     F_    0.436352 0.050530 0.758106 -0.661942
F35   F     F_    0.573155 0.028176 0.615515 -0.638034
F36   F     F_    0.774853 0.421480 0.740544 -0.626609
F37   F     F_    0.225149 0.421468 0.259529 -0.626682
F38   F     F_    0.274851 0.921463 0.740366 -0.626610
F39   F     F_    0.725150 0.921481 0.259431 -0.626616
F40   F     F_    0.774814 0.577825 0.703923 -0.621101
H1    H     H_    0.937286 0.463174 0.262202 0.153320
H2    H     H_    0.140078 0.570273 0.378365 0.218482
H3    H     H_    0.359919 0.070290 0.621717 0.218392
H4    H     H_    0.640075 0.070261 0.378480 0.218471
H5    H     H_    0.720183 0.523567 0.683085 0.182202
H6    H     H_    0.279816 0.523596 0.316894 0.182119
H7    H     H_    0.220178 0.023694 0.683145 0.182168
H8    H     H_    0.779820 0.023520 0.316944 0.182119
H9    H     H_    0.999557 0.572559 0.301238 0.203731
H10   H     H_    0.999354 0.572589 0.699731 0.203984
H11   H     H_    0.500259 0.072584 0.300609 0.203927
H12   H     H_    0.063159 0.464014 0.737293 0.153629
H13   H     H_    0.499406 0.072587 0.699683 0.204006
H14   H     H_    0.721705 0.475622 0.870711 0.191216
H15   H     H_    0.278297 0.475579 0.129311 0.191140
H16   H     H_    0.221704 0.975504 0.870644 0.191353
H17   H     H_    0.778290 0.975663 0.129293 0.191314
H18   H     H_    0.483821 0.720839 0.918388 0.159807
H19   H     H_    0.516189 0.720834 0.081575 0.159807
H20   H     H_    0.016707 0.220836 0.885500 0.159221
H21   H     H_    0.983295 0.220834 0.114469 0.159216
H22   H     H_    0.054492 0.547056 0.140514 0.159224
H23   H     H_    0.437015 0.963701 0.262520 0.153957
H24   H     H_    0.944904 0.546437 0.860089 0.159497
H25   H     H_    0.554871 0.046675 0.140123 0.159388
H26   H     H_    0.444937 0.046474 0.860058 0.159477
H27   H     H_    0.064939 0.464983 0.235898 0.244762
H28   H     H_    0.935556 0.464049 0.763613 0.244939
H29   H     H_    0.564623 0.964380 0.236227 0.244965
H30   H     H_    0.435532 0.964091 0.763627 0.245019
H31   H     H_    0.062906 0.463253 0.132002 0.228753
H32   H     H_    0.937556 0.462544 0.867560 0.228556
H33   H     H_    0.562625 0.962818 0.132283 0.228295
H34   H     H_    0.563127 0.963961 0.737327 0.154058
H35   H     H_    0.437523 0.962589 0.867585 0.228219
H36   H     H_    0.940276 0.461813 0.364754 0.122567
H37   H     H_    0.060258 0.462715 0.634655 0.121800
H38   H     H_    0.439932 0.962399 0.365143 0.121783
H39   H     H_    0.560231 0.962670 0.634684 0.121551
H40   H     H_    0.930961 0.522055 0.269209 0.276076
H41   H     H_    0.068751 0.522969 0.731102 0.275930
H42   H     H_    0.431142 0.022629 0.268998 0.275948
H43   H     H_    0.568766 0.022912 0.731094 0.275902
H44   H     H_    0.014653 0.428844 0.182522 0.204959
H45   H     H_    0.017732 0.429216 0.285034 0.211615
H46   H     H_    0.986228 0.428724 0.816736 0.204918
H47   H     H_    0.514116 0.928770 0.182970 0.204854
H48   H     H_    0.486165 0.928728 0.816799 0.204848
H49   H     H_    0.859862 0.429472 0.655630 0.208054
H50   H     H_    0.140140 0.429462 0.344435 0.208108
H51   H     H_    0.359859 0.929454 0.655475 0.208136
H52   H     H_    0.640141 0.929474 0.344343 0.208134
H53   H     H_    0.639471 0.523638 0.765138 0.200023
H54   H     H_    0.360528 0.523670 0.234840 0.199993
H55   H     H_    0.139464 0.023766 0.765205 0.199370
H56   H     H_    0.983298 0.428988 0.714074 0.211510
H57   H     H_    0.860531 0.023598 0.234880 0.199430
H58   H     H_    0.067457 0.720861 0.900029 0.212445
H59   H     H_    0.932541 0.720857 0.100006 0.212460
H60   H     H_    0.567455 0.220860 0.900019 0.212498
H61   H     H_    0.432543 0.220857 0.100012 0.212501
H62   H     H_    0.930714 0.359884 0.094284 0.207080
H63   H     H_    0.069287 0.359885 0.905699 0.207063
H64   H     H_    0.569089 0.859893 0.956250 0.207219
H65   H     H_    0.430916 0.859898 0.043729 0.207224
H66   H     H_    0.483797 0.640159 0.918055 0.175061
H67   H     H_    0.517069 0.929071 0.285612 0.211516
H68   H     H_    0.516208 0.640154 0.081926 0.175070
H69   H     H_    0.016724 0.140149 0.885126 0.172921
H70   H     H_    0.983277 0.140147 0.114858 0.172926
H71   H     H_    0.483250 0.928998 0.714119 0.211480
H72   H     H_    0.859921 0.570270 0.621569 0.218264
O1    O     O_R   0.934520 0.536930 0.565470 -0.601716
O2    O     O_R   0.434550 0.499990 0.013170 -0.555578
O3    O     O_R   0.065450 0.999990 0.986830 -0.554124
O4    O     O_R   0.934550 0.999990 0.013170 -0.554043
O5    O     O_R   0.500010 0.565460 0.947720 -0.629849
O6    O     O_R   0.499990 0.565460 0.052280 -0.629838
O7    O     O_R   0.000010 0.065460 0.947720 -0.629584
O8    O     O_R   0.999990 0.065460 0.052280 -0.629591
O9    O     O_R   0.934480 0.463010 0.565510 -0.634670
O10   O     O_R   0.065520 0.463010 0.434490 -0.634832
O11   O     O_R   0.434480 0.963010 0.565510 -0.634778
O12   O     O_R   0.065480 0.536930 0.434530 -0.601230
O13   O     O_R   0.565520 0.963010 0.434490 -0.634815
O14   O     O_R   0.999990 0.536930 0.407410 -0.578153
O15   O     O_R   0.000010 0.536930 0.592590 -0.578196
O16   O     O_R   0.499990 0.036930 0.407410 -0.578171
O17   O     O_R   0.500010 0.036930 0.592590 -0.578185
O18   O     O_R   0.999940 0.463010 0.407450 -0.652524
O19   O     O_R   0.000060 0.463010 0.592550 -0.652505
O20   O     O_R   0.499940 0.963010 0.407450 -0.652543
O21   O     O_R   0.500060 0.963010 0.592550 -0.652527
O22   O     O_R   0.963000 0.565420 0.036990 -0.554645
O23   O     O_R   0.434520 0.036930 0.565470 -0.601501
O24   O     O_R   0.037000 0.565420 0.963010 -0.555114
O25   O     O_R   0.463000 0.065420 0.036990 -0.554842
O26   O     O_R   0.537000 0.065420 0.963010 -0.554987
O27   O     O_R   0.963020 0.499940 0.129580 -0.608867
O28   O     O_R   0.036980 0.499940 0.870420 -0.609539
O29   O     O_R   0.463020 0.999940 0.129580 -0.607999
O30   O     O_R   0.536980 0.999940 0.870420 -0.608202
O31   O     O_R   0.036940 0.500000 0.055660 -0.641781
O32   O     O_R   0.963060 0.500000 0.944340 -0.641567
O33   O     O_R   0.536940 0.000000 0.055660 -0.642961
O34   O     O_R   0.565480 0.036930 0.434530 -0.601339
O35   O     O_R   0.463060 0.000000 0.944340 -0.642893
O36   O     O_R   0.963020 0.434470 0.036970 -0.630765
O37   O     O_R   0.036980 0.434470 0.963030 -0.630728
O38   O     O_R   0.463020 0.934470 0.036970 -0.630723
O39   O     O_R   0.536980 0.934470 0.963030 -0.630711
O40   O     O_R   0.499930 0.434510 0.947790 -0.550520
O41   O     O_R   0.500070 0.434510 0.052210 -0.550543
O42   O     O_R   0.999930 0.934510 0.947790 -0.550566
O43   O     O_R   0.000070 0.934510 0.052210 -0.550541
O44   O     O_R   0.565440 0.499980 0.882290 -0.628823
O45   O     O_R   0.434560 0.499980 0.117710 -0.628822
O46   O     O_R   0.065440 0.999980 0.882290 -0.630281
O47   O     O_R   0.934560 0.999980 0.117710 -0.630312
O48   O     O_R   0.565450 0.499990 0.986830 -0.555554
Zn1   Zn    Zn3+2 0.000000 0.549330 0.500000 1.118894
Zn2   Zn    Zn3+2 0.500030 0.499980 0.069780 1.107185
Zn3   Zn    Zn3+2 0.999970 0.999980 0.930220 1.107416
Zn4   Zn    Zn3+2 0.000030 0.999980 0.069780 1.107355
Zn5   Zn    Zn3+2 0.500000 0.049330 0.500000 1.118901
Zn6   Zn    Zn3+2 0.000000 0.450610 0.500000 0.989886
Zn7   Zn    Zn3+2 0.500000 0.950610 0.500000 0.989793
Zn8   Zn    Zn3+2 0.950610 0.499940 0.049380 1.065142
Zn9   Zn    Zn3+2 0.049390 0.499940 0.950620 1.064428
Zn10  Zn    Zn3+2 0.450610 0.999940 0.049380 1.064837
Zn11  Zn    Zn3+2 0.549390 0.999940 0.950620 1.064626
Zn12  Zn    Zn3+2 0.499970 0.499980 0.930220 1.107174

loop_
_geom_bond_atom_site_label_1
_geom_bond_atom_site_label_2
_ccdc_geom_bond_type
C99   C103  A    
C105  C110  A    
C63   C65   S    
C24   C61   A    
O14   Zn1   S    
C52   C113  S    
C136  H13   S    
C6    C146  A    
C29   C33   A    
C100  C104  A    
C8    C23   A    
C118  O38   A    
C9    F24   S    
C78   C108  S    
C146  C150  A    
C70   C74   A    
C76   O23   A    
C60   H48   S    
C91   C100  A    
C18   C118  S    
C83   C88   A    
C40   H28   S    
C65   O12   A    
O39   Zn11  S    
C133  H9    S    
C3    C149  A    
C40   C58   S    
C27   C31   A    
C28   C32   A    
C81   H6    S    
O28   Zn9   S    
C135  H11   S    
C131  H43   S    
C33   H70   S    
O41   Zn2   S    
C98   H1    S    
C47   C131  S    
O9    Zn6   S    
C29   H21   S    
C39   C56   S    
C68   C72   A    
O29   Zn10  S    
C73   F3    S    
C96   O21   A    
C74   F4    S    
C138  F10   S    
O17   Zn5   S    
C128  C144  A    
C147  F15   S    
C98   H40   S    
C45   C120  S    
O2    Zn12  S    
C74   C79   A    
C28   H20   S    
C86   C91   A    
C19   F27   S    
C53   C109  S    
C140  F13   S    
C136  F34   S    
C126  O6    A    
C42   H71   S    
C138  C141  A    
O26   Zn11  S    
C85   C90   A    
C113  O27   A    
C4    C150  A    
C114  O28   A    
O32   Zn8   S    
C115  O33   A    
C137  F9    S    
C45   F33   S    
C150  F18   S    
C45   C50   S    
C80   H5    S    
C43   F31   S    
C103  C107  A    
C20   C134  S    
O12   Zn1   S    
C21   C135  S    
C135  F23   S    
C109  H41   S    
C15   C18   A    
C129  H59   S    
C100  F7    S    
C86   H55   S    
C53   C58   S    
C90   C123  S    
C140  C143  A    
C1    C62   S    
C33   C36   A    
O33   Zn11  S    
C129  C144  A    
C66   C70   A    
C149  F17   S    
C132  C145  A    
C32   C36   A    
C39   H27   S    
C75   C142  A    
C103  H15   S    
C152  F20   S    
C8    F22   S    
C13   C57   A    
C89   C122  S    
C11   C25   A    
C40   C49   S    
C80   C106  A    
C69   H3    S    
C151  F19   S    
C52   C98   S    
C139  C143  A    
C101  F8    S    
C134  F12   S    
C29   C38   A    
C111  O24   A    
C31   H68   S    
C82   C108  A    
C119  O40   A    
C125  O47   A    
O44   Zn12  S    
C121  O43   A    
C127  O7    A    
C122  O44   A    
C112  O25   A    
O31   Zn9   S    
C14   C17   A    
C93   O18   A    
C54   C59   S    
C31   C34   A    
C30   C34   A    
C9    C23   A    
C13   F38   S    
C76   O11   A    
C147  C151  A    
C44   H37   S    
C51   C136  S    
C24   C79   A    
C8    C12   A    
C83   C110  A    
C26   H18   S    
C64   C69   A    
C69   C73   A    
C102  H14   S    
O34   Zn5   S    
C10   C25   A    
C35   H49   S    
C71   F40   S    
C45   H38   S    
C47   F35   S    
C90   C99   A    
C39   H45   S    
C43   H36   S    
C13   C78   A    
C95   O16   A    
C119  O41   A    
C30   H66   S    
C10   F25   S    
C109  H12   S    
C148  C152  A    
C56   H31   S    
C26   C30   A    
C96   O17   A    
C46   C63   A    
C91   C124  S    
C139  F11   S    
O18   Zn6   S    
C82   H7    S    
C22   F30   S    
C6    C147  A    
C123  O2    A    
C111  O22   A    
C118  O39   A    
O1    Zn1   S    
C32   H69   S    
C111  C141  S    
C35   C142  A    
O30   Zn11  S    
C70   H4    S    
C56   H44   S    
C68   H2    S    
C83   H8    S    
C42   H30   S    
C81   C85   A    
C88   H57   S    
C113  O31   A    
C81   C107  A    
C114  O32   A    
O16   Zn5   S    
C115  O29   A    
C80   C84   A    
O36   Zn8   S    
C120  H23   S    
C116  O30   A    
O42   Zn3   S    
C20   H24   S    
C112  C143  S    
O22   Zn8   S    
C50   C135  S    
C21   C54   S    
C105  H17   S    
C41   H67   S    
C63   C68   A    
C19   C52   S    
C132  C140  A    
C116  O35   A    
O11   Zn7   S    
C12   C17   A    
C2    F37   S    
C4    C119  S    
C124  O46   A    
C97   C102  A    
C17   C117  S    
C44   C109  S    
C55   C60   S    
C92   C125  S    
C130  C145  A    
C130  C139  A    
O46   Zn3   S    
C48   C93   S    
C72   F2    S    
C6    C145  S    
C58   H32   S    
C47   C51   S    
C82   C86   A    
C128  H58   S    
C22   C136  S    
C9    C14   A    
C11   C16   A    
C34   C126  S    
C54   C115  S    
C122  O48   A    
C123  O45   A    
C93   O14   A    
C132  H61   S    
C55   C131  S    
C148  F16   S    
C46   H50   S    
O3    Zn4   S    
C41   C50   S    
C104  C108  A    
C53   C114  S    
O15   Zn1   S    
C137  C141  A    
C79   C110  S    
C87   O34   A    
C20   C53   S    
C3    C5    A    
O45   Zn2   S    
C26   C37   A    
C22   C55   S    
C130  H60   S    
C19   C133  S    
C23   C38   S    
C142  F36   S    
C124  O3    A    
C60   H35   S    
C57   H51   S    
C2    C77   A    
C16   H65   S    
O35   Zn10  S    
O48   Zn2   S    
C67   C71   A    
C104  H16   S    
C59   H33   S    
O20   Zn7   S    
C75   C106  S    
C95   O20   A    
C55   C116  S    
C117  O37   A    
C41   H29   S    
C39   C48   S    
O5    Zn12  S    
C44   C49   S    
C49   C134  S    
O21   Zn7   S    
C121  O42   A    
C54   C120  S    
C112  O26   A    
O23   Zn5   S    
C126  O5    A    
C131  H34   S    
C43   C98   S    
C67   H72   S    
C20   F28   S    
C2    C46   A    
C21   F29   S    
C117  O36   A    
C5    C152  A    
C62   C67   A    
C133  F1    S    
O38   Zn10  S    
C10   C15   A    
O8    Zn4   S    
C50   C95   S    
C47   H39   S    
C5    C121  S    
C87   O13   A    
C120  H42   S    
C94   O15   A    
C7    C149  A    
O4    Zn3   S    
C61   C66   A    
C3    F21   S    
C14   H63   S    
C88   C92   A    
O24   Zn9   S    
C73   C78   A    
C49   C94   S    
C24   F39   S    
C43   C48   S    
C44   F32   S    
C1    O9    A    
C51   C96   S    
C25   C37   S    
C61   H52   S    
C146  F14   S    
O47   Zn4   S    
C7    C144  S    
C40   H56   S    
O25   Zn10  S    
C134  H10   S    
C15   H64   S    
C101  C105  A    
O6    Zn2   S    
C12   H62   S    
C129  C138  A    
C48   C133  S    
C77   C107  S    
C41   C59   S    
C42   C60   S    
C66   C87   S    
O10   Zn6   S    
C89   C97   A    
C84   H53   S    
C97   F5    S    
C59   H47   S    
C128  C137  A    
C72   C77   A    
O19   Zn6   S    
C28   C38   A    
C27   H19   S    
C64   C76   S    
C11   F26   S    
O40   Zn12  S    
O27   Zn8   S    
C92   C101  A    
C127  O8    A    
C125  O4    A    
O37   Zn9   S    
C85   H54   S    
C36   C127  S    
C84   C89   A    
C57   C64   A    
C7    C148  A    
C4    C151  A    
C65   O10   A    
O7    Zn3   S    
C42   C51   S    
C19   H22   S    
C71   C75   A    
C27   C37   A    
C102  C106  A    
C35   C62   A    
C22   H26   S    
O13   Zn7   S    
C1    O1    A    
C16   C18   A    
C99   F6    S    
C94   O19   A    
C21   H25   S    
O43   Zn4   S    
C58   H46   S    
C52   C56   S    
