data_mof_unit_34227.cif
_audit_creation_date              2012-12-10T19:35:00-0500
_audit_creation_method            fapswitch 2.2
_symmetry_space_group_name_H-M    P1
_symmetry_Int_Tables_number       1
_space_group_crystal_system       triclinic
_cell_length_a                    10.917796
_cell_length_b                    15.938881
_cell_length_c                    17.170478
_cell_angle_alpha                 95.95427
_cell_angle_beta                  94.855779
_cell_angle_gamma                 91.666537
_cell_volume                      2959.01462192

loop_
_atom_site_label
_atom_site_type_symbol
_atom_type_description
_atom_site_fract_x
_atom_site_fract_y
_atom_site_fract_z
_atom_type_partial_charge
C1    C     C_R   0.505855 0.489866 0.348525 0.804159
C2    C     C_R   0.496915 0.510101 0.651709 0.859517
C3    C     C_R   0.509659 0.485533 0.261102 -0.112279
C4    C     C_R   0.490857 0.512176 0.738859 -0.087591
C5    C     C_R   0.509988 0.560929 0.222522 0.092290
C6    C     C_R   0.443572 0.439397 0.770243 0.102717
C7    C     C_R   0.474394 0.556226 0.141115 0.164464
C8    C     C_R   0.466858 0.430244 0.851090 0.166766
C9    C     C_R   0.461867 0.476774 0.096527 0.295025
C10   C     C_R   0.516008 0.500122 0.902482 0.283205
C11   C     C_R   0.480866 0.403516 0.132405 -0.225984
C12   C     C_R   0.548922 0.574527 0.872954 -0.224920
C13   C     C_R   0.506710 0.406459 0.213770 0.092977
C14   C     C_R   0.537908 0.582032 0.792430 0.120914
C15   C     C_R   0.432235 0.754013 0.463024 0.088274
C16   C     C_R   0.556002 0.244731 0.541897 0.110542
C17   C     C_R   0.438135 0.843118 0.466195 -0.288926
C18   C     C_R   0.552211 0.155846 0.536217 -0.265229
C19   C     C_R   0.530959 0.891845 0.512767 0.296117
C20   C     C_R   0.470439 0.107554 0.480971 0.291324
C21   C     C_R   0.620115 0.849399 0.555508 -0.113620
C22   C     C_R   0.389862 0.150738 0.432524 -0.124833
C23   C     C_R   0.263322 0.501149 0.506890 0.821238
C24   C     C_R   0.738160 0.500068 0.502776 0.831439
C25   C     C_R   0.609814 0.759747 0.554600 0.225137
C26   C     C_R   0.397492 0.241109 0.437905 0.260472
C27   C     C_R   0.115643 0.363172 0.572047 -0.247894
C28   C     C_R   0.887101 0.626655 0.434690 -0.208097
C29   C     C_R   0.061008 0.320557 0.627625 -0.147686
C30   C     C_R   0.943833 0.706043 0.435113 -0.116425
C31   C     C_R   0.960199 0.354382 0.663107 0.168235
C32   C     C_R   0.050787 0.728254 0.484934 0.161811
C33   C     C_R   0.897216 0.420177 0.629178 0.001592
C34   C     C_R   0.113778 0.664294 0.522087 0.004143
C35   C     C_R   0.939982 0.450038 0.560494 0.047374
C36   C     C_R   0.066033 0.579185 0.506504 0.040799
C37   C     C_R   0.063723 0.436984 0.546950 0.063194
C38   C     C_R   0.940928 0.567461 0.481095 0.033677
C39   C     C_R   0.873591 0.502743 0.511444 -0.136006
C40   C     C_R   0.131046 0.504876 0.519905 -0.136984
Cu1   Cu    Cu3+1 0.493970 0.415220 0.496180 0.920286
Cu2   Cu    Cu3+1 0.506030 0.584780 0.503820 0.937947
H1    H     H_    0.611148 0.124574 0.577256 0.237480
H2    H     H_    0.371787 0.874609 0.430062 0.239271
H3    H     H_    0.201502 0.339414 0.555161 0.192867
H4    H     H_    0.798711 0.614069 0.401720 0.157658
H5    H     H_    0.107490 0.267747 0.650091 0.153044
H6    H     H_    0.896854 0.752706 0.403321 0.149967
H7    H     H_    0.477395 0.343651 0.095840 0.161324
H8    H     H_    0.585836 0.627192 0.914158 0.164732
N1    N     N_2   0.442508 0.470247 0.013886 -0.236169
N2    N     N_2   0.533415 0.499301 0.984913 -0.228190
N3    N     N_R   0.515100 0.712130 0.509560 -0.207601
N4    N     N_R   0.484900 0.287870 0.490440 -0.206872
N5    N     N_2   0.541794 0.982438 0.515602 -0.170473
N6    N     N_2   0.458865 0.016870 0.477006 -0.174253
O1    O     O_R   0.494360 0.420530 0.382500 -0.578635
O2    O     O_R   0.505640 0.579470 0.617500 -0.564407
O3    O     O_R   0.504550 0.563720 0.388950 -0.610060
O4    O     O_R   0.495450 0.436280 0.611050 -0.611333
O5    O     O_R   0.314560 0.428400 0.496770 -0.605461
O6    O     O_R   0.685440 0.571600 0.503230 -0.576634
O7    O     O_R   0.324750 0.571590 0.503220 -0.604333
O8    O     O_R   0.675250 0.428410 0.496780 -0.612457
C41   C     C_3   0.089005 0.820441 0.502394 -0.846608
H9    H     H_    0.030001 0.860745 0.467087 0.244855
H10   H     H_    0.081112 0.841147 0.565470 0.215903
H11   H     H_    0.185115 0.831155 0.489058 0.253491
C42   C     C_3   0.933070 0.327068 0.741625 -0.848438
H12   H     H_    0.993698 0.276221 0.759209 0.236618
H13   H     H_    0.948540 0.381548 0.787618 0.233459
H14   H     H_    0.837130 0.303157 0.740114 0.279049
C43   C     C_2   0.727340 0.898612 0.599915 0.373217
H15   H     H_    0.816517 0.870630 0.606504 0.076015
O9    O     O_2   0.717102 0.970322 0.630739 -0.513192
C44   C     C_2   0.294311 0.101137 0.377481 0.377836
H16   H     H_    0.205101 0.126783 0.363791 0.075013
O10   O     O_2   0.314682 0.031368 0.345801 -0.507009
C45   C     C_3   0.707834 0.719879 0.603901 -0.739708
H17   H     H_    0.725265 0.756429 0.662618 0.186354
H18   H     H_    0.682134 0.656814 0.615988 0.309381
H19   H     H_    0.794653 0.718108 0.574648 0.225408
C46   C     C_3   0.300280 0.281985 0.387418 -0.810677
H20   H     H_    0.291861 0.250378 0.326420 0.183368
H21   H     H_    0.210070 0.275489 0.412009 0.201234
H22   H     H_    0.316082 0.348206 0.380212 0.283795
C47   C     C_2   0.810731 0.469846 0.676049 0.306156
H23   H     H_    0.755832 0.440216 0.716118 0.091020
O11   O     O_2   0.805825 0.545871 0.674055 -0.578475
C48   C     C_2   0.209153 0.689421 0.588421 0.418864
H24   H     H_    0.260586 0.749111 0.592027 0.065707
O12   O     O_2   0.228952 0.644405 0.641154 -0.538379
C49   C     C_3   0.357404 0.375714 0.720010 -0.782621
H25   H     H_    0.305528 0.407149 0.673963 0.238319
H26   H     H_    0.409160 0.322952 0.693224 0.260730
H27   H     H_    0.286582 0.350036 0.754789 0.227413
C50   C     C_3   0.558173 0.645248 0.264701 -0.780473
H28   H     H_    0.632138 0.637097 0.311213 0.226804
H29   H     H_    0.602782 0.684450 0.224611 0.228964
H30   H     H_    0.482036 0.680686 0.289026 0.250815
C51   C     C_3   0.444147 0.345858 0.881664 -0.785996
H31   H     H_    0.515308 0.335562 0.929518 0.239681
H32   H     H_    0.351694 0.343352 0.903890 0.234855
H33   H     H_    0.450421 0.292617 0.835276 0.244668
C52   C     C_3   0.449572 0.635594 0.101693 -0.796431
H34   H     H_    0.389273 0.622334 0.046138 0.247157
H35   H     H_    0.400719 0.681094 0.140340 0.243635
H36   H     H_    0.537590 0.665268 0.088410 0.230084
C53   C     C_3   0.540498 0.325116 0.246456 -0.769657
H37   H     H_    0.464639 0.301320 0.277592 0.248508
H38   H     H_    0.558225 0.274922 0.199290 0.218301
H39   H     H_    0.626018 0.335084 0.286678 0.238858
C54   C     C_3   0.580827 0.664739 0.767550 -0.773923
H40   H     H_    0.596657 0.714441 0.818087 0.217559
H41   H     H_    0.670168 0.655736 0.743119 0.259594
H42   H     H_    0.511265 0.689091 0.725574 0.264452
C55   C     C_2   0.630517 0.289140 0.609062 0.367349
H43   H     H_    0.672595 0.349276 0.604536 0.104193
O13   O     O_2   0.642230 0.258874 0.671582 -0.589125
C56   C     C_2   0.337398 0.708567 0.405069 0.323170
H44   H     H_    0.329697 0.641246 0.394573 0.149267
O14   O     O_2   0.266078 0.747171 0.364610 -0.559026

loop_
_geom_bond_atom_site_label_1
_geom_bond_atom_site_label_2
_ccdc_geom_bond_type
C47   H23   S    
C49   H25   S    
C27   C29   A    
Cu1   Cu2   S    
C2    C4    S    
C9    N1    S    
Cu1   O5    S    
C20   N6    S    
C10   N2    S    
Cu2   O2    S    
C55   O13   D    
C50   H28   S    
C52   H35   S    
C28   H4    S    
C26   C46   S    
C29   H5    S    
C15   N3    A    
C30   H6    S    
C35   C37   A    
C44   O10   D    
C37   C40   A    
C53   H38   S    
Cu2   N3    S    
C38   C39   A    
C2    O4    A    
C23   C40   S    
C21   C43   S    
C24   C39   S    
C15   C56   S    
C15   C17   A    
C43   H15   S    
C42   H13   S    
C13   C53   S    
C17   C19   A    
C41   H10   S    
C7    C52   S    
C22   C44   S    
C8    C51   S    
Cu2   O6    S    
C18   C20   A    
C3    C13   A    
C54   H42   S    
C27   H3    S    
C23   O7    A    
C24   O8    A    
C25   N3    A    
C43   O9    D    
C26   N4    A    
C50   H29   S    
C56   O14   D    
C52   H36   S    
N1    N2    D    
C51   H31   S    
C36   C40   A    
C41   H11   S    
C44   H16   S    
C4    C6    A    
C53   H39   S    
C5    C7    A    
C6    C8    A    
C1    C3    S    
C32   C34   A    
C42   H14   S    
C35   C39   A    
C34   C48   S    
C11   H7    S    
C1    O1    A    
C48   O12   D    
C46   H20   S    
C31   C42   S    
C6    C49   S    
N5    N6    D    
C31   C33   A    
C9    C11   A    
C10   C12   A    
C16   C18   A    
C46   H21   S    
C20   C22   A    
C51   H33   S    
C47   O11   D    
C36   C38   A    
C50   H30   S    
C56   H44   S    
C45   H18   S    
C54   H40   S    
C51   H32   S    
C19   N5    S    
C7    C9    A    
C21   C25   A    
C24   O6    A    
C19   C21   A    
C25   C45   S    
Cu1   O4    S    
C12   C14   A    
C3    C5    A    
Cu2   O3    S    
C45   H19   S    
C12   H8    S    
C2    O2    A    
C49   H27   S    
C14   C54   S    
C52   H34   S    
C55   H43   S    
C1    O3    A    
C33   C47   S    
C17   H2    S    
Cu1   O1    S    
C29   C31   A    
C16   C55   S    
C30   C32   A    
C11   C13   A    
C48   H24   S    
C49   H26   S    
C27   C37   A    
C28   C30   A    
C33   C35   A    
C5    C50   S    
C34   C36   A    
C4    C14   A    
C42   H12   S    
C16   N4    A    
Cu1   N4    S    
C45   H17   S    
C23   O5    A    
C46   H22   S    
C8    C10   A    
C41   H9    S    
C22   C26   A    
C18   H1    S    
Cu1   O8    S    
C28   C38   A    
C53   H37   S    
Cu2   O7    S    
C32   C41   S    
C54   H41   S    
