data_mof_unit_55428.cif
_audit_creation_date              2012-12-10T17:36:22-0500
_audit_creation_method            fapswitch 2.2
_symmetry_space_group_name_H-M    P1
_symmetry_Int_Tables_number       1
_space_group_crystal_system       triclinic
_cell_length_a                    12.328419
_cell_length_b                    13.003704
_cell_length_c                    15.871902
_cell_angle_alpha                 77.818911
_cell_angle_beta                  100.900336
_cell_angle_gamma                 116.109165
_cell_volume                      2219.94851038

loop_
_atom_site_label
_atom_site_type_symbol
_atom_type_description
_atom_site_fract_x
_atom_site_fract_y
_atom_site_fract_z
_atom_type_partial_charge
C1    C     C_R   0.855656 0.285425 0.505583 0.777856
C2    C     C_3   0.005901 0.387412 0.068614 -0.329870
C3    C     C_3   0.993580 0.496206 0.082702 0.271467
C4    C     C_3   0.102386 0.604055 0.045587 -0.422695
C5    C     C_3   0.100314 0.605002 0.947568 -0.397068
C6    C     C_1   0.997923 0.497385 0.175395 -0.080611
C7    C     C_1   0.995083 0.497728 0.824361 -0.080877
C8    C     C_1   0.997251 0.498776 0.748993 -0.160899
C9    C     C_R   0.277470 0.035291 0.398095 -0.149852
C10   C     C_R   0.226065 0.839818 0.474137 -0.151971
C11   C     C_R   0.817755 0.073781 0.548123 0.014023
C12   C     C_R   0.999279 0.499694 0.659559 0.816172
C13   C     C_R   0.734040 0.960599 0.570145 -0.218976
C14   C     C_R   0.610486 0.929223 0.548732 -0.189654
C15   C     C_R   0.565741 0.009270 0.499416 0.085718
C16   C     C_R   0.650864 0.123400 0.472422 0.060209
C17   C     C_R   0.439315 0.979416 0.474855 0.081372
C18   C     C_R   0.401157 0.061368 0.420345 0.108314
C19   C     C_R   0.486774 0.168342 0.387123 -0.221332
C20   C     C_R   0.609560 0.197574 0.410728 -0.162503
C21   C     C_R   0.349552 0.870154 0.502021 -0.251447
C22   C     C_R   0.188534 0.925966 0.425667 -0.009765
C23   C     C_R   0.144571 0.714923 0.488360 0.786089
C24   C     C_R   0.775623 0.159650 0.505773 -0.128199
C25   C     C_R   0.346928 0.327637 0.638134 -0.274591
C26   C     C_R   0.759202 0.645904 0.383190 0.069416
C27   C     C_R   0.662990 0.678403 0.357729 -0.233091
C28   C     C_R   0.559779 0.623508 0.401704 -0.194101
C29   C     C_R   0.551599 0.534948 0.472310 -0.005613
C30   C     C_R   0.653222 0.505233 0.496542 0.280504
C31   C     C_R   0.447149 0.475195 0.519883 -0.041726
C32   C     C_R   0.446996 0.387621 0.590346 0.163069
C33   C     C_R   0.546853 0.360549 0.613172 -0.225502
C34   C     C_R   0.000424 0.499959 0.340439 0.830882
C35   C     C_R   0.647642 0.418258 0.567663 -0.165188
C36   C     C_R   0.342017 0.498052 0.501076 0.031085
C37   C     C_R   0.247031 0.354548 0.616532 0.128652
C38   C     C_3   0.005797 0.387873 0.971036 -0.402142
C39   C     C_3   0.871405 0.498143 0.932186 -0.160820
C40   C     C_3   0.873797 0.501019 0.031171 -0.175581
C41   C     C_1   0.000117 0.498539 0.251036 -0.160652
C42   C     C_3   0.991984 0.496311 0.916425 0.222223
Cu1   Cu    Cu3+1 0.098280 0.475420 0.519630 0.969018
Cu2   Cu    Cu3+1 0.901720 0.524580 0.480370 0.923398
H1    H     H_    0.931823 0.306674 0.095345 0.221591
H2    H     H_    0.092536 0.387775 0.960563 0.176760
H3    H     H_    0.092402 0.386303 0.104285 0.162284
H4    H     H_    0.098853 0.684707 0.055524 0.170832
H5    H     H_    0.250219 0.101035 0.359124 0.177779
H6    H     H_    0.373214 0.805089 0.544220 0.157030
H7    H     H_    0.931634 0.307140 0.950225 0.159850
H8    H     H_    0.671495 0.277991 0.377808 0.178813
H9    H     H_    0.547457 0.294002 0.667299 0.166983
H10   H     H_    0.346137 0.260498 0.692043 0.141170
H11   H     H_    0.334124 0.562908 0.448614 0.122414
H12   H     H_    0.838709 0.688814 0.348456 0.141876
H13   H     H_    0.488097 0.652165 0.379161 0.138960
H14   H     H_    0.668385 0.746328 0.303619 0.162089
H15   H     H_    0.719454 0.391631 0.591088 0.205201
H16   H     H_    0.869514 0.580897 0.895961 0.149231
H17   H     H_    0.878258 0.587238 0.035658 0.085265
H18   H     H_    0.187593 0.607573 0.935457 0.181105
H19   H     H_    0.093211 0.684955 0.910327 0.166741
H20   H     H_    0.189609 0.603824 0.080469 0.180282
N1    N     N_R   0.246300 0.438200 0.549400 -0.175797
N2    N     N_R   0.754300 0.561180 0.451130 -0.211204
O1    O     O_R   0.972520 0.318130 0.524690 -0.533533
O2    O     O_R   0.806530 0.359650 0.491530 -0.612734
O3    O     O_R   0.083030 0.479240 0.637150 -0.584468
O4    O     O_R   0.917040 0.520750 0.603990 -0.585975
O5    O     O_R   0.193470 0.640350 0.508470 -0.581370
O6    O     O_R   0.027480 0.681870 0.475310 -0.606907
O7    O     O_R   0.082960 0.479250 0.396010 -0.563564
O8    O     O_R   0.916970 0.520760 0.362850 -0.590348
C43   C     C_2   0.059242 0.907012 0.403918 0.378388
H21   H     H_    0.992064 0.849729 0.447328 0.098612
O9    O     O_2   0.026787 0.958999 0.338049 -0.544176
H22   H     H_    0.458779 0.229539 0.341833 0.149517
C44   C     C_2   0.947349 0.094808 0.568641 0.371670
H23   H     H_    0.978667 0.058420 0.631270 0.030717
O10   O     O_2   0.017799 0.144545 0.513563 -0.508101
H24   H     H_    0.553552 0.839786 0.568878 0.139020
H25   H     H_    0.764783 0.894893 0.603969 0.140567
H26   H     H_    0.169563 0.308616 0.653258 0.115256
C45   C     C_2   0.759758 0.401339 0.895244 0.383661
H27   H     H_    0.741649 0.311510 0.919433 0.114862
O11   O     O_2   0.689072 0.423603 0.837519 -0.561752
C46   C     C_2   0.759181 0.414759 0.071553 0.350872
H28   H     H_    0.698513 0.445819 0.088199 0.075479
O12   O     O_2   0.732634 0.310996 0.084808 -0.559687

loop_
_geom_bond_atom_site_label_1
_geom_bond_atom_site_label_2
_ccdc_geom_bond_type
Cu1   O7    S    
C12   O3    A    
C43   H21   S    
Cu2   N2    S    
C19   C20   A    
C5    C42   S    
C3    C6    S    
C7    C8    T    
C28   H13   S    
C10   C22   A    
C26   C27   A    
C30   C35   A    
C16   C20   A    
C38   C42   S    
C9    C22   A    
C15   C16   A    
C11   C24   A    
C1    O2    A    
C5    H19   S    
C35   H15   S    
C18   C19   A    
C7    C42   S    
C25   C37   A    
C6    C41   T    
C37   N1    A    
C37   H26   S    
Cu2   O4    S    
Cu1   N1    S    
C25   C32   A    
C16   C24   A    
C13   C14   A    
C29   C31   A    
C34   C41   S    
C22   C43   S    
C21   H6    S    
C39   C42   S    
C45   O11   D    
C10   C21   A    
C33   H9    S    
C26   N2    A    
C23   O5    A    
C9    H5    S    
C25   H10   S    
C39   C40   S    
C44   O10   D    
C36   N1    A    
C38   H7    S    
C45   H27   S    
C17   C21   A    
C40   H17   S    
C19   H22   S    
Cu1   Cu2   S    
C29   C30   A    
C2    C38   S    
C31   C32   A    
C8    C12   S    
C17   C18   A    
Cu2   O8    S    
C43   O9    D    
C30   N2    A    
C11   C44   S    
C34   O8    A    
C46   O12   D    
C3    C40   S    
C2    H3    S    
Cu2   O2    S    
C39   C45   S    
C3    C4    S    
C4    H4    S    
C15   C17   A    
C12   O4    A    
C28   C29   A    
Cu1   O5    S    
C14   C15   A    
C23   O6    A    
C4    C5    S    
C27   H14   S    
C26   H12   S    
C1    O1    A    
C10   C23   S    
C4    H20   S    
C32   C33   A    
C40   C46   S    
C2    C3    S    
C20   H8    S    
C36   H11   S    
C11   C13   A    
C39   H16   S    
C33   C35   A    
C5    H18   S    
Cu2   O6    S    
C38   H2    S    
C2    H1    S    
C34   O7    A    
C44   H23   S    
C9    C18   A    
C46   H28   S    
C1    C24   S    
Cu1   O1    S    
C27   C28   A    
C14   H24   S    
C31   C36   A    
Cu1   O3    S    
C13   H25   S    
