data_mof_unit_58855.cif
_audit_creation_date              2012-12-10T18:09:54-0500
_audit_creation_method            fapswitch 2.2
_symmetry_space_group_name_H-M    P1
_symmetry_Int_Tables_number       1
_space_group_crystal_system       triclinic
_cell_length_a                    10.62949
_cell_length_b                    12.608691
_cell_length_c                    13.110786
_cell_angle_alpha                 82.342609
_cell_angle_beta                  90.49435
_cell_angle_gamma                 102.392237
_cell_volume                      1700.55377621

loop_
_atom_site_label
_atom_site_type_symbol
_atom_type_description
_atom_site_fract_x
_atom_site_fract_y
_atom_site_fract_z
_atom_type_partial_charge
C1    C     C_R   0.480502 0.438754 0.691123 0.842974
C2    C     C_R   0.469064 0.446617 0.973562 0.084726
C3    C     C_R   0.433966 0.465034 0.870029 0.094426
C4    C     C_R   0.741922 0.500115 0.500397 0.827934
C5    C     C_R   0.465011 0.528457 0.036463 0.076059
C6    C     C_R   0.406496 0.617475 0.001177 0.174160
C7    C     C_R   0.355108 0.625212 0.903055 -0.282846
C8    C     C_R   0.369032 0.550117 0.837882 -0.223329
C9    C     C_R   0.519579 0.524888 0.133271 -0.268101
C10   C     C_R   0.442937 0.684668 0.165874 -0.212119
C11   C     C_R   0.467422 0.399001 0.800712 -0.123980
C12   C     C_3   0.121223 0.498370 0.500151 0.198583
C13   C     C_R   0.319569 0.087864 0.347427 -0.313973
C14   C     C_R   0.656196 0.800830 0.628031 0.626292
C15   C     C_R   0.692883 0.908629 0.650318 -0.365281
C16   C     C_R   0.512597 0.561017 0.308763 0.851216
C17   C     C_R   0.632673 0.988500 0.602461 -0.271558
C18   C     C_R   0.537420 0.963140 0.528810 0.024202
C19   C     C_R   0.507136 0.854449 0.504563 0.147463
C20   C     C_R   0.473542 0.041901 0.476760 0.007888
C21   C     C_R   0.382769 0.011192 0.400066 0.198102
C22   C     C_R   0.356592 0.904550 0.376200 -0.300108
C23   C     C_3   0.093743 0.587124 0.414214 -0.410370
C24   C     C_R   0.418242 0.827597 0.427613 -0.198341
C25   C     C_R   0.495883 0.150721 0.497542 -0.061526
C26   C     C_R   0.346730 0.194170 0.371145 0.005480
C27   C     C_R   0.258062 0.499296 0.500086 0.805329
C28   C     C_3   0.899378 0.385077 0.481185 -0.386543
C29   C     C_3   0.042134 0.384742 0.480325 -0.390586
C30   C     C_3   0.949277 0.587227 0.413926 -0.401186
C31   C     C_3   0.935545 0.524732 0.605793 -0.392128
C32   C     C_3   0.878647 0.499507 0.500399 0.172166
C33   C     C_3   0.714750 0.708692 0.778779 0.094595
C34   C     C_3   0.079567 0.522953 0.606114 -0.417219
C35   C     C_3   0.769042 0.610050 0.822105 -0.817607
C36   C     C_R   0.398405 0.696358 0.065549 -0.209569
C37   C     C_R   0.500088 0.596471 0.200136 -0.046799
C38   C     C_R   0.507602 0.302210 0.837426 -0.203094
C39   C     C_R   0.522991 0.274886 0.942099 -0.150960
C40   C     C_R   0.507155 0.347305 0.009770 -0.197057
H1    H     H_    0.858578 0.364383 0.405959 0.180995
H2    H     H_    0.522217 0.322243 0.090047 0.135168
H3    H     H_    0.552863 0.199652 0.970456 0.140740
H4    H     H_    0.849521 0.320299 0.542559 0.171114
H5    H     H_    0.328081 0.559039 0.762181 0.162393
H6    H     H_    0.299174 0.254843 0.331115 0.133718
H7    H     H_    0.288304 0.880424 0.317205 0.145459
H8    H     H_    0.250306 0.065860 0.288540 0.143911
H9    H     H_    0.561525 0.181549 0.554982 0.122137
H10   H     H_    0.665336 0.069658 0.623045 0.153442
H11   H     H_    0.769870 0.932007 0.702717 0.153433
H12   H     H_    0.135913 0.603628 0.623116 0.182293
H13   H     H_    0.395599 0.747856 0.404549 0.206624
H14   H     H_    0.060920 0.319354 0.540761 0.178719
H15   H     H_    0.070015 0.365125 0.404419 0.174683
H16   H     H_    0.909005 0.569795 0.337754 0.154387
H17   H     H_    0.124399 0.570985 0.337794 0.155590
H18   H     H_    0.923451 0.606852 0.620698 0.216524
H19   H     H_    0.884134 0.463109 0.668815 0.155121
H20   H     H_    0.098282 0.459399 0.668396 0.155163
H21   H     H_    0.613661 0.695571 0.807462 0.161080
H22   H     H_    0.774074 0.781173 0.808879 0.122044
H23   H     H_    0.935743 0.669995 0.425478 0.186576
H24   H     H_    0.873905 0.626363 0.804256 0.234705
H25   H     H_    0.754102 0.593896 0.906973 0.212583
H26   H     H_    0.720512 0.536297 0.788212 0.259118
H27   H     H_    0.149093 0.669650 0.426937 0.180530
H28   H     H_    0.426546 0.740553 0.217711 0.146335
H29   H     H_    0.306771 0.690738 0.875787 0.150451
H30   H     H_    0.352847 0.764043 0.039830 0.134677
H31   H     H_    0.573195 0.463556 0.160868 0.144819
H32   H     H_    0.531555 0.249678 0.784939 0.151034
N1    N     N_R   0.433240 0.222190 0.444680 -0.101815
N2    N     N_R   0.566070 0.776970 0.554790 -0.164492
O1    O     O_R   0.468120 0.366740 0.627160 -0.615663
O2    O     O_R   0.510770 0.544830 0.662520 -0.578187
O3    O     O_R   0.663880 0.410950 0.482330 -0.635279
O4    O     O_R   0.706530 0.589040 0.517700 -0.564827
O5    O     O_R   0.489230 0.455170 0.337480 -0.612297
O6    O     O_R   0.531880 0.633260 0.372840 -0.635479
O7    O     O_R   0.293470 0.410960 0.482300 -0.624063
O8    O     O_R   0.336120 0.589050 0.517670 -0.653406
O9    O     O_3   0.720382 0.720864 0.669938 -0.590545
Zn1   Zn    Zn3+2 0.471520 0.381090 0.476390 0.926139
Zn2   Zn    Zn3+2 0.528480 0.618910 0.523610 0.957039

loop_
_geom_bond_atom_site_label_1
_geom_bond_atom_site_label_2
_ccdc_geom_bond_type
C12   C29   S    
C1    C11   S    
C7    C8    A    
C4    O4    A    
C12   C23   S    
C10   C37   A    
C14   N2    A    
C31   H18   S    
C28   C29   S    
O5    Zn1   S    
O1    Zn1   S    
C20   C25   A    
C35   H25   S    
C31   H19   S    
C28   H1    S    
C26   N1    A    
C15   C17   A    
C18   C19   A    
C23   H27   S    
C8    H5    S    
C33   H22   S    
C35   H24   S    
C15   H11   S    
N1    Zn1   S    
C18   C20   A    
C16   C37   S    
C40   H2    S    
C22   H7    S    
C21   C22   A    
C34   H20   S    
C14   O9    S    
C36   H30   S    
C27   O8    A    
C38   C39   A    
C38   H32   S    
C12   C27   S    
C1    O1    A    
C23   C30   S    
C28   C32   S    
C3    C8    A    
C39   C40   A    
C39   H3    S    
C29   H15   S    
C35   H26   S    
C24   H13   S    
C30   H16   S    
C28   H4    S    
C16   O6    A    
C11   C38   A    
C5    C9    A    
O6    Zn2   S    
C31   C32   S    
C27   O7    A    
C9    C37   A    
C17   C18   A    
C31   C34   S    
C13   C21   A    
C33   O9    S    
C4    C32   S    
O4    Zn2   S    
C22   C24   A    
C13   C26   A    
C2    C5    A    
C12   C34   S    
O7    Zn1   S    
C23   H17   S    
C1    O2    A    
C19   N2    A    
C9    H31   S    
C17   H10   S    
C7    H29   S    
C13   H8    S    
C6    C7    A    
C10   H28   S    
O8    Zn2   S    
C34   H12   S    
O3    Zn1   S    
C16   O5    A    
C19   C24   A    
C4    O3    A    
C30   C32   S    
C5    C6    A    
C33   C35   S    
C6    C36   A    
C2    C3    A    
C25   N1    A    
N2    Zn2   S    
C25   H9    S    
C3    C11   A    
C26   H6    S    
C2    C40   A    
C20   C21   A    
C33   H21   S    
C29   H14   S    
C14   C15   A    
C10   C36   A    
C30   H23   S    
O2    Zn2   S    
