data_mof_unit_24176.cif
_audit_creation_date              2012-10-26T21:02:35-0400
_audit_creation_method            fapswitch 2.2
_symmetry_space_group_name_H-M    P1
_symmetry_Int_Tables_number       1
_space_group_crystal_system       triclinic
_cell_length_a                    12.317581
_cell_length_b                    13.154633
_cell_length_c                    15.063983
_cell_angle_alpha                 77.452869
_cell_angle_beta                  101.328137
_cell_angle_gamma                 116.559788
_cell_volume                      2117.30998203

loop_
_atom_site_label
_atom_site_type_symbol
_atom_type_description
_atom_site_fract_x
_atom_site_fract_y
_atom_site_fract_z
_atom_type_partial_charge
C1    C     C_R   0.854971 0.286390 0.508449 0.529203
C2    C     C_R   0.903936 0.510592 0.797154 -0.142658
C3    C     C_R   0.998785 0.499014 0.768154 -0.013795
C4    C     C_R   0.999447 0.499608 0.671221 0.545159
C5    C     C_R   0.093329 0.486672 0.832056 -0.138775
C6    C     C_R   0.279822 0.022891 0.370342 -0.109555
C7    C     C_R   0.227660 0.835887 0.463557 0.025623
C8    C     C_R   0.814295 0.084825 0.571808 -0.133361
C9    C     C_R   0.734742 0.969897 0.590376 -0.141044
C10   C     C_R   0.612026 0.932272 0.555968 -0.119347
C11   C     C_R   0.566896 0.009074 0.498636 0.038511
C12   C     C_R   0.094636 0.486501 0.110650 0.011541
C13   C     C_R   0.651571 0.123193 0.471170 0.025419
C14   C     C_R   0.440823 0.976312 0.466939 0.020286
C15   C     C_R   0.403569 0.053514 0.401866 0.029191
C16   C     C_R   0.145046 0.713859 0.485047 0.568690
C17   C     C_R   0.490372 0.160021 0.367464 -0.138380
C18   C     C_R   0.612660 0.193842 0.400582 -0.118463
C19   C     C_R   0.350386 0.869611 0.498892 -0.165499
C20   C     C_R   0.190945 0.914144 0.400227 0.093998
C21   C     C_R   0.773383 0.163059 0.514376 -0.002726
C22   C     C_R   0.347884 0.329406 0.647031 -0.150426
C23   C     C_R   0.809153 0.521978 0.011675 -0.135231
C24   C     C_R   0.758506 0.644549 0.375089 0.042703
C25   C     C_R   0.661720 0.676124 0.348130 -0.164158
C26   C     C_R   0.558805 0.621840 0.395201 -0.138544
C27   C     C_R   0.551356 0.534622 0.470335 -0.005820
C28   C     C_R   0.000251 0.499960 0.328808 0.551060
C29   C     C_R   0.653277 0.505461 0.495663 0.179973
C30   C     C_R   0.447214 0.475397 0.521225 -0.013523
C31   C     C_R   0.447635 0.388854 0.595939 0.036451
C32   C     C_R   0.547563 0.361964 0.619496 -0.178195
C33   C     C_R   0.647852 0.418896 0.570647 -0.102540
C34   C     C_R   0.808845 0.521867 0.919099 -0.135339
C35   C     C_R   0.341806 0.497718 0.501701 0.038557
C36   C     C_R   0.247533 0.355579 0.624368 0.038916
C37   C     C_R   0.094426 0.486962 0.203011 -0.138077
C38   C     C_R   0.000023 0.499257 0.231981 -0.011400
C39   C     C_R   0.905032 0.510878 0.168182 -0.138703
C40   C     C_R   0.903841 0.510441 0.075652 0.011410
C41   C     C_R   0.999040 0.498341 0.046677 0.061591
C42   C     C_R   0.903246 0.510260 0.889605 0.011569
C43   C     C_R   0.998740 0.498256 0.953612 0.061781
C44   C     C_R   0.094046 0.486331 0.924639 0.010781
C45   C     C_R   0.188564 0.474490 0.988634 -0.135460
C46   C     C_R   0.188863 0.474583 0.081194 -0.135243
Cu1   Cu    Cu3+1 0.098270 0.475420 0.521130 0.925617
Cu2   Cu    Cu3+1 0.901730 0.524580 0.478870 0.925492
H1    H     H_    0.168053 0.478204 0.252135 0.124300
H2    H     H_    0.548475 0.295918 0.676662 0.110873
H3    H     H_    0.347608 0.263103 0.704215 0.092044
H4    H     H_    0.831682 0.520031 0.190370 0.124380
H5    H     H_    0.333495 0.561867 0.446153 0.118312
H6    H     H_    0.837701 0.686869 0.337911 0.152673
H7    H     H_    0.486668 0.649728 0.371330 0.100104
H8    H     H_    0.666437 0.742864 0.290448 0.105857
H9    H     H_    0.719278 0.391766 0.594550 0.183662
H10   H     H_    0.735504 0.531196 0.033239 0.105498
H11   H     H_    0.734977 0.530989 0.870590 0.108663
H12   H     H_    0.463621 0.217852 0.314826 0.105564
H13   H     H_    0.830501 0.519658 0.747980 0.126604
H14   H     H_    0.166853 0.477781 0.809889 0.126776
H15   H     H_    0.262223 0.465284 0.967073 0.105399
H16   H     H_    0.262728 0.465446 0.129696 0.106144
H17   H     H_    0.019738 0.883799 0.414963 0.236358
H18   H     H_    0.056591 0.942638 0.308543 0.215424
H19   H     H_    0.252575 0.083075 0.320993 0.101184
H20   H     H_    0.372974 0.809804 0.551303 0.120407
H21   H     H_    0.907506 0.113011 0.604395 0.126623
H22   H     H_    0.555769 0.842049 0.573871 0.105553
H23   H     H_    0.767573 0.910068 0.634178 0.119000
H24   H     H_    0.676222 0.275091 0.368322 0.148482
H25   H     H_    0.170234 0.310013 0.663523 0.118055
N1    N     N_R   0.246280 0.438190 0.553160 -0.233475
N2    N     N_R   0.754320 0.561190 0.447410 -0.238717
N3    N     N_3   0.065039 0.881974 0.363868 -0.622618
O1    O     O_R   0.972510 0.318130 0.526570 -0.501019
O2    O     O_R   0.806530 0.359650 0.490890 -0.528579
O3    O     O_R   0.082980 0.479210 0.647590 -0.506598
O4    O     O_R   0.917000 0.520730 0.611900 -0.524460
O5    O     O_R   0.193470 0.640350 0.509110 -0.516044
O6    O     O_R   0.027490 0.681870 0.473430 -0.472390
O7    O     O_R   0.083000 0.479270 0.388100 -0.507397
O8    O     O_R   0.917020 0.520790 0.352410 -0.513900

loop_
_geom_bond_atom_site_label_1
_geom_bond_atom_site_label_2
_ccdc_geom_bond_type
C23   H10   S    
C35   N1    A    
C1    C21   S    
C35   H5    S    
C1    O1    A    
C34   C42   A    
C25   H8    S    
Cu1   O3    S    
C26   H7    S    
C45   C46   A    
C28   O8    A    
C26   C27   A    
C37   C38   A    
H17   N3    S    
C30   C35   A    
C4    O4    A    
C30   C31   A    
C11   C14   A    
C27   C29   A    
C24   H6    S    
C23   C40   A    
C29   C33   A    
C20   N3    S    
Cu2   O2    S    
C12   C37   A    
C6    C15   A    
Cu1   Cu2   S    
C8    C9    A    
Cu1   O7    S    
C9    C10   A    
C2    H13   S    
C39   H4    S    
C28   O7    A    
C1    O2    A    
C41   C43   A    
Cu2   N2    S    
C8    C21   A    
C18   H24   S    
C22   C31   A    
C24   C25   A    
C4    O3    A    
C12   C46   A    
C10   C11   A    
C39   C40   A    
C25   C26   A    
C45   H15   S    
Cu2   O8    S    
C46   H16   S    
C43   C44   A    
C12   C41   A    
C37   H1    S    
C31   C32   A    
C28   C38   S    
C23   C34   A    
H18   N3    S    
C16   O6    A    
C17   C18   A    
C8    H21   S    
C13   C21   A    
C19   H20   S    
C32   H2    S    
C36   N1    A    
C13   C18   A    
C7    C16   S    
C5    C44   A    
C7    C19   A    
C34   H11   S    
C42   C43   A    
Cu1   O1    S    
C3    C4    S    
C10   H22   S    
C22   C36   A    
C44   C45   A    
C15   C17   A    
C40   C41   A    
C33   H9    S    
C14   C19   A    
C9    H23   S    
Cu1   N1    S    
C3    C5    A    
C24   N2    A    
C29   N2    A    
C6    C20   A    
C32   C33   A    
Cu2   O4    S    
C2    C3    A    
C6    H19   S    
C11   C13   A    
C38   C39   A    
C2    C42   A    
C16   O5    A    
Cu2   O6    S    
C5    H14   S    
Cu1   O5    S    
C36   H25   S    
C17   H12   S    
C7    C20   A    
C14   C15   A    
C22   H3    S    
C27   C30   A    
