data_mof_unit_27569.cif
_audit_creation_date              2012-12-10T20:40:54-0500
_audit_creation_method            fapswitch 2.2
_symmetry_space_group_name_H-M    P1
_symmetry_Int_Tables_number       1
_space_group_crystal_system       triclinic
_cell_length_a                    27.721816
_cell_length_b                    10.665862
_cell_length_c                    9.853184
_cell_angle_alpha                 90.0436
_cell_angle_beta                  89.750177
_cell_angle_gamma                 89.958545
_cell_volume                      2913.33120773

loop_
_atom_site_label
_atom_site_type_symbol
_atom_type_description
_atom_site_fract_x
_atom_site_fract_y
_atom_site_fract_z
_atom_type_partial_charge
C1    C     C_R   0.498594 0.259955 0.500057 0.880719
C2    C     C_R   0.974410 0.380559 0.460958 -0.028996
C3    C     C_R   0.975106 0.602944 0.526876 0.027397
C4    C     C_R   0.406026 0.499444 0.500386 0.871065
C5    C     C_R   0.949366 0.493226 0.491334 0.074848
C6    C     C_R   0.947530 0.270855 0.437003 -0.306117
C7    C     C_R   0.897334 0.272457 0.431763 0.579151
C8    C     C_R   0.872239 0.384804 0.458891 -0.142866
C9    C     C_R   0.898258 0.495943 0.487685 -0.109037
C10   C     C_R   0.873161 0.609495 0.513902 -0.080481
C11   C     C_R   0.822517 0.604877 0.524187 0.488409
C12   C     C_R   0.278746 0.452749 0.621299 -0.103109
C13   C     C_R   0.821607 0.389555 0.458452 0.541285
C14   C     C_R   0.721285 0.430391 0.589908 -0.080169
C15   C     C_R   0.671266 0.434802 0.592253 -0.258394
C16   C     C_R   0.498559 0.740043 0.500073 0.946061
C17   C     C_R   0.672130 0.583462 0.403412 -0.038737
C18   C     C_R   0.722332 0.574986 0.400126 -0.203054
C19   C     C_R   0.746790 0.499699 0.493267 0.315542
C20   C     C_R   0.025532 0.380448 0.457036 0.078804
C21   C     C_R   0.050894 0.487903 0.502229 0.078423
C22   C     C_R   0.025764 0.597462 0.542794 0.048259
C23   C     C_R   0.253038 0.486749 0.505512 0.327492
C24   C     C_R   0.052339 0.276981 0.407556 -0.216148
C25   C     C_R   0.102182 0.694449 0.605370 -0.133060
C26   C     C_R   0.949701 0.716543 0.540289 -0.203194
C27   C     C_R   0.899574 0.722063 0.531640 -0.021827
C28   C     C_R   0.593804 0.503716 0.499645 0.926184
C29   C     C_R   0.052245 0.697928 0.599269 -0.222965
C30   C     C_R   0.493389 0.064005 0.623623 0.135027
C31   C     C_R   0.491115 0.128594 0.501176 -0.109243
C32   C     C_R   0.479794 0.064760 0.380981 -0.210535
C33   C     C_R   0.479779 0.935102 0.381009 -0.202132
C34   C     C_R   0.101912 0.486251 0.505980 -0.058581
C35   C     C_R   0.491139 0.871443 0.501199 -0.108016
C36   C     C_R   0.493472 0.936264 0.623575 0.222350
C37   C     C_3   0.529960 0.929135 0.734634 -0.446085
C38   C     C_3   0.529853 0.071280 0.734769 -0.506008
C39   C     C_R   0.470403 0.577791 0.071785 0.205803
C40   C     C_R   0.177987 0.382569 0.459967 0.508274
C41   C     C_R   0.532110 0.427920 0.071545 -0.119180
C42   C     C_R   0.532088 0.427862 0.927459 -0.145858
C43   C     C_R   0.470381 0.577922 0.928931 0.270901
C44   C     C_3   0.416439 0.578045 0.924918 -0.260539
C45   C     C_R   0.127529 0.380858 0.458376 -0.023652
C46   C     C_3   0.416715 0.579386 0.079051 -0.615441
C47   C     C_R   0.177806 0.587710 0.557068 0.505541
C48   C     C_R   0.277166 0.524985 0.387881 -0.102606
C49   C     C_R   0.327249 0.529529 0.386018 -0.216708
C50   C     C_R   0.328813 0.456928 0.619552 -0.220202
C51   C     C_2   0.649197 0.675187 0.310544 0.413743
C52   C     C_2   0.876895 0.848472 0.530857 0.503972
C53   C     C_2   0.394542 0.694389 0.864383 0.454570
C54   C     C_3   0.877247 0.124260 0.275564 -0.222509
C55   C     C_R   0.102398 0.277386 0.408488 -0.137070
C56   C     C_R   0.127400 0.590400 0.556506 -0.021256
C57   C     C_R   0.353388 0.495635 0.501936 -0.027122
C58   C     C_R   0.646306 0.509374 0.498658 -0.056774
H1    H     H_    0.348193 0.428524 0.709417 0.146055
H2    H     H_    0.259871 0.423199 0.712245 0.137097
H3    H     H_    0.564804 0.887821 0.700387 0.207689
H4    H     H_    0.514500 0.112331 0.829305 0.214209
H5    H     H_    0.564650 0.112845 0.700741 0.205389
H6    H     H_    0.557373 0.369191 0.125640 0.151764
H7    H     H_    0.557315 0.369026 0.872618 0.150547
H8    H     H_    0.401438 0.489975 0.882355 0.147429
H9    H     H_    0.403011 0.667433 0.126043 0.200195
H10   H     H_    0.401838 0.491745 0.123517 0.221207
H11   H     H_    0.121339 0.196126 0.369175 0.192442
H12   H     H_    0.257028 0.552035 0.298626 0.135618
H13   H     H_    0.651947 0.378211 0.665847 0.155376
H14   H     H_    0.740298 0.372983 0.662848 0.151589
H15   H     H_    0.964415 0.180316 0.426606 0.168188
H16   H     H_    0.035712 0.195457 0.363203 0.143411
H17   H     H_    0.345356 0.560971 0.294911 0.152691
H18   H     H_    0.667900 0.703402 0.218486 0.062686
H19   H     H_    0.844826 0.866399 0.471346 0.117911
H20   H     H_    0.356175 0.711200 0.876707 0.076523
H21   H     H_    0.914839 0.095893 0.250430 0.132422
H22   H     H_    0.864908 0.199806 0.205799 0.161501
H23   H     H_    0.120955 0.774183 0.648180 0.192827
H24   H     H_    0.853820 0.041531 0.258408 0.187662
H25   H     H_    0.968623 0.804493 0.549190 0.171793
H26   H     H_    0.742910 0.629965 0.327725 0.131324
H27   H     H_    0.035222 0.779540 0.643008 0.153356
H28   H     H_    0.474211 0.113905 0.286145 0.175884
H29   H     H_    0.474149 0.885805 0.286204 0.175734
H30   H     H_    0.514706 0.887991 0.829147 0.230552
N1    N     N_R   0.201755 0.485257 0.508218 -0.359373
N2    N     N_R   0.798290 0.497689 0.492296 -0.349518
N3    N     N_R   0.499670 0.499140 0.142800 -0.104960
N4    N     N_R   0.499670 0.499180 0.857150 -0.127579
O1    O     O_R   0.500010 0.316790 0.614690 -0.623027
O2    O     O_R   0.571250 0.500000 0.614690 -0.631870
O3    O     O_R   0.571240 0.499960 0.385340 -0.589774
O4    O     O_2   0.203191 0.282911 0.413597 -0.551120
O5    O     O_2   0.610838 0.725365 0.338573 -0.565296
O6    O     O_2   0.894647 0.935214 0.594357 -0.539943
O7    O     O_2   0.418949 0.769401 0.800636 -0.575008
O8    O     O_3   0.872900 0.160673 0.412770 -0.534517
O9    O     O_2   0.795512 0.287548 0.424554 -0.505234
O10   O     O_2   0.202819 0.686827 0.604806 -0.553252
O11   O     O_2   0.797341 0.704420 0.570647 -0.571233
O12   O     O_R   0.500000 0.316760 0.385350 -0.628710
O13   O     O_R   0.428760 0.500040 0.614660 -0.619402
O14   O     O_R   0.428750 0.500000 0.385310 -0.628632
O15   O     O_R   0.500000 0.683240 0.614650 -0.592525
O16   O     O_R   0.499990 0.683210 0.385310 -0.598821
Zn1   Zn    Zn3+2 0.500000 0.500020 0.653130 0.973719
Zn2   Zn    Zn3+2 0.500000 0.499980 0.346870 0.978849

loop_
_geom_bond_atom_site_label_1
_geom_bond_atom_site_label_2
_ccdc_geom_bond_type
C10   C27   A    
C51   O5    D    
C34   C56   A    
C8    C13   A    
C22   C29   A    
C13   N2    A    
O15   Zn1   S    
C41   C42   A    
C37   H30   S    
C44   H8    S    
C35   C36   A    
C25   C56   A    
C17   C51   S    
C7    C8    A    
C53   O7    D    
C24   C55   A    
C5    C9    A    
C12   C23   A    
C26   C27   A    
C26   H25   S    
C28   O3    A    
C50   H1    S    
N3    Zn2   S    
C36   C37   S    
C38   H5    S    
C16   C35   S    
C30   C31   A    
N4    Zn1   S    
C1    C31   S    
C49   C57   A    
C30   C38   S    
C28   O2    A    
C18   C19   A    
C16   O15   A    
C44   C53   S    
C20   C24   A    
C8    C9    A    
C4    C57   S    
C42   H7    S    
C18   H26   S    
C23   N1    S    
C40   N1    A    
C9    C10   A    
C29   H27   S    
C17   C58   A    
C47   O10   S    
C21   C22   A    
C25   H23   S    
C47   N1    A    
C54   O8    S    
C2    C6    A    
C40   O4    S    
C39   N3    A    
C44   C46   S    
C54   H22   S    
C25   C29   A    
C40   C45   A    
C7    O8    S    
C2    C20   A    
C51   H18   S    
C39   C43   A    
C21   C34   A    
C4    O14   A    
C43   C44   S    
C46   H10   S    
C37   C38   S    
C37   H3    S    
C31   C32   A    
C32   H28   S    
C49   H17   S    
C17   C18   A    
C34   C45   A    
C1    O12   A    
C55   H11   S    
C39   C46   S    
C48   C49   A    
C41   N3    A    
C15   C58   A    
C2    C5    A    
C13   O9    S    
C52   H19   S    
C54   H24   S    
C27   C52   S    
C6    H15   S    
C54   H21   S    
O14   Zn2   S    
O13   Zn1   S    
C23   C48   A    
C50   C57   A    
C14   H14   S    
C14   C19   A    
C3    C26   A    
C48   H12   S    
C3    C5    A    
O3    Zn2   S    
C12   C50   A    
C6    C7    A    
C28   C58   S    
C15   H13   S    
C4    O13   A    
O2    Zn1   S    
C43   N4    A    
C30   C36   A    
C32   C33   A    
C53   H20   S    
C33   H29   S    
C46   H9    S    
C19   N2    S    
O12   Zn2   S    
C11   N2    A    
C24   H16   S    
C52   O6    D    
C33   C35   A    
O16   Zn2   S    
C42   N4    A    
C10   C11   A    
C16   O16   A    
C12   H2    S    
C20   C21   A    
C45   C55   A    
C1    O1    A    
C14   C15   A    
C3    C22   A    
C11   O11   S    
C41   H6    S    
O1    Zn1   S    
C47   C56   A    
C38   H4    S    
