data_mof_unit_65139.cif
_audit_creation_date              2012-12-10T18:19:11-0500
_audit_creation_method            fapswitch 2.2
_symmetry_space_group_name_H-M    P1
_symmetry_Int_Tables_number       1
_space_group_crystal_system       triclinic
_cell_length_a                    32.25261
_cell_length_b                    32.252743
_cell_length_c                    35.638863
_cell_angle_alpha                 89.999421
_cell_angle_beta                  90.000492
_cell_angle_gamma                 90.000059
_cell_volume                      37072.7976892

loop_
_atom_site_label
_atom_site_type_symbol
_atom_type_description
_atom_site_fract_x
_atom_site_fract_y
_atom_site_fract_z
_atom_type_partial_charge
C1    C     C_R   0.920459 0.500000 1.000000 0.832336
C2    C     C_R   0.500000 0.079542 1.000000 0.831556
C3    C     C_R   0.079541 0.500000 0.000000 0.832258
C4    C     C_R   0.500000 0.920459 0.000000 0.832435
C5    C     C_R   0.420458 1.000000 0.500000 0.831740
C6    C     C_R   0.000000 0.579542 0.500000 0.828949
C7    C     C_R   0.579541 0.000000 0.500000 0.832114
C8    C     C_R   1.000000 0.420459 0.500000 0.832120
C9    C     C_R   0.771582 0.509496 0.966943 0.145655
C10   C     C_R   0.515250 0.228419 0.968760 0.145647
C11   C     C_R   0.228418 0.489745 0.967135 0.145662
C12   C     C_R   0.491903 0.771583 0.966646 0.145667
C13   C     C_R   0.771582 0.490504 0.033057 0.145651
C14   C     C_R   0.508096 0.771583 0.033355 0.145666
C15   C     C_R   0.228418 0.510256 0.032864 0.145665
C16   C     C_R   0.484751 0.228420 0.031240 0.145650
C17   C     C_R   0.271581 0.013526 0.468108 0.145718
C18   C     C_R   0.026510 0.728423 0.475708 0.145674
C19   C     C_R   0.728418 0.989413 0.467220 0.145779
C20   C     C_R   0.990166 0.271582 0.467027 0.145718
C21   C     C_R   0.271581 0.986470 0.531891 0.145758
C22   C     C_R   0.009834 0.271582 0.532973 0.145712
C23   C     C_R   0.728418 0.010584 0.532780 0.145756
C24   C     C_R   0.973490 0.728423 0.524292 0.145665
C25   C     C_R   0.793602 0.500000 0.000000 0.034270
C26   C     C_R   0.500000 0.206398 0.000000 0.033929
C27   C     C_R   0.206397 0.500000 1.000000 0.034275
C28   C     C_R   0.500000 0.793604 1.000000 0.034336
C29   C     C_R   0.293600 0.999998 0.500000 0.034018
C30   C     C_R   0.000000 0.706400 0.500000 0.032856
C31   C     C_R   0.706397 0.999999 0.500000 0.034239
C32   C     C_R   1.000000 0.293602 0.500000 0.034235
C33   C     C_1   0.661608 0.500000 0.000000 -0.012977
C34   C     C_1   0.500000 0.338393 1.000000 -0.012972
C35   C     C_1   0.338392 0.500000 1.000000 -0.012983
C36   C     C_1   0.500000 0.661608 0.000000 -0.012982
C37   C     C_1   0.161608 0.999998 0.500000 -0.012967
C38   C     C_1   1.000000 0.838396 0.499999 -0.012992
C39   C     C_1   0.838392 0.999998 0.500000 -0.012976
C40   C     C_1   1.000000 0.161608 0.500000 -0.012973
C41   C     C_1   0.838433 0.500000 1.000000 0.049400
C42   C     C_1   0.500000 0.161567 1.000000 0.049174
C43   C     C_1   0.161566 0.500000 0.000000 0.049397
C44   C     C_1   0.500000 0.838434 0.000000 0.049478
C45   C     C_1   0.338432 0.999999 0.500000 0.049347
C46   C     C_1   0.000000 0.661569 0.500000 0.048465
C47   C     C_1   0.661566 1.000000 0.500000 0.049511
C48   C     C_1   1.000000 0.338433 0.500000 0.049531
C49   C     C_1   0.875884 0.500000 1.000000 -0.113449
C50   C     C_1   0.500000 0.124116 1.000000 -0.113460
C51   C     C_1   0.124116 0.500000 0.000000 -0.113438
C52   C     C_1   0.500000 0.875884 0.000000 -0.113361
C53   C     C_1   0.375884 1.000000 0.500000 -0.113309
C54   C     C_1   0.000000 0.624118 0.500000 -0.113506
C55   C     C_1   0.624116 1.000000 0.500000 -0.113236
C56   C     C_1   1.000000 0.375884 0.500000 -0.113182
C57   C     C_1   0.624157 0.500000 0.000000 -0.150360
C58   C     C_1   0.500000 0.375843 1.000000 -0.150359
C59   C     C_1   0.375843 0.500000 1.000000 -0.150353
C60   C     C_1   0.500000 0.624157 0.000000 -0.150338
C61   C     C_1   0.124157 0.999998 0.500000 -0.150501
C62   C     C_1   1.000000 0.875845 0.500000 -0.150488
C63   C     C_1   0.875843 0.999999 0.500000 -0.150471
C64   C     C_1   1.000000 0.124157 0.500000 -0.150407
C65   C     C_R   0.500000 0.420439 0.000000 0.818638
C66   C     C_R   0.420438 0.500000 1.000000 0.818689
C67   C     C_R   0.500000 0.579562 1.000000 0.818735
C68   C     C_R   0.579561 0.500000 0.000000 0.818702
C69   C     C_R   1.000000 0.920439 0.500000 0.818361
C70   C     C_R   0.920438 0.999999 0.500000 0.818612
C71   C     C_R   1.000000 0.079561 0.500000 0.818761
C72   C     C_R   0.079561 0.999999 0.500000 0.818568
C73   C     C_R   0.999999 0.499999 0.927493 0.798033
C74   C     C_R   0.500000 0.999997 0.927493 0.797747
C75   C     C_R   1.000000 0.499999 0.072507 0.798035
C76   C     C_R   0.500000 0.999997 0.072507 0.797750
C77   C     C_R   0.500001 0.000000 0.427493 0.797703
C78   C     C_R   1.000000 0.499991 0.427492 0.796232
C79   C     C_R   0.500001 1.000000 0.572507 0.797699
C80   C     C_R   1.000000 0.499991 0.572507 0.796236
C81   C     C_R   0.962446 0.499951 0.673184 -0.138874
C82   C     C_R   0.500031 0.037545 0.673187 -0.138533
C83   C     C_R   0.037548 0.499950 0.673186 -0.139577
C84   C     C_R   0.499985 0.962443 0.673182 -0.137882
C85   C     C_R   0.962451 0.499937 0.326815 -0.139562
C86   C     C_R   0.500009 0.962444 0.326817 -0.138171
C87   C     C_R   0.037553 0.499967 0.326816 -0.138893
C88   C     C_R   0.499997 0.037546 0.326814 -0.138235
C89   C     C_R   0.462448 0.999983 0.173184 -0.137912
C90   C     C_R   0.999982 0.537534 0.173190 -0.138674
C91   C     C_R   0.537551 0.999988 0.173184 -0.138587
C92   C     C_R   0.000020 0.462433 0.173178 -0.137789
C93   C     C_R   0.462453 0.999993 0.826814 -0.138702
C94   C     C_R   0.000016 0.462431 0.826822 -0.137731
C95   C     C_R   0.537555 0.999975 0.826817 -0.137797
C96   C     C_R   0.999976 0.537533 0.826810 -0.138738
C97   C     C_R   0.962401 0.499961 0.633983 -0.168799
C98   C     C_R   0.500028 0.037593 0.633986 -0.168971
C99   C     C_R   0.037595 0.499960 0.633985 -0.170684
C100  C     C_R   0.499983 0.962400 0.633982 -0.168211
C101  C     C_R   0.962404 0.499946 0.366015 -0.170701
C102  C     C_R   0.500009 0.962401 0.366018 -0.168860
C103  C     C_R   0.037598 0.499976 0.366016 -0.168787
C104  C     C_R   0.499997 0.037594 0.366015 -0.168315
C105  C     C_R   0.462403 0.999986 0.133984 -0.167849
C106  C     C_R   0.999981 0.537588 0.133989 -0.168412
C107  C     C_R   0.537596 0.999991 0.133984 -0.169540
C108  C     C_R   0.000019 0.462395 0.133978 -0.168622
C109  C     C_R   0.462406 0.999996 0.866015 -0.169531
C110  C     C_R   0.000017 0.462393 0.866022 -0.168421
C111  C     C_R   0.537599 0.999978 0.866017 -0.167859
C112  C     C_R   0.999978 0.537587 0.866010 -0.168616
C113  C     C_R   0.999999 0.499970 0.613969 -0.038999
C114  C     C_R   0.500004 0.999998 0.613969 -0.038253
C115  C     C_R   0.000001 0.499971 0.386031 -0.039000
C116  C     C_R   0.500002 0.999998 0.386031 -0.038254
C117  C     C_R   0.499999 0.999991 0.113969 -0.038184
C118  C     C_R   0.000000 0.499995 0.113969 -0.037912
C119  C     C_R   0.500002 0.999991 0.886031 -0.038185
C120  C     C_R   0.999998 0.499994 0.886031 -0.037911
C121  C     C_R   0.999996 0.499949 0.692819 0.135460
C122  C     C_R   0.500008 0.999992 0.692819 0.135649
C123  C     C_R   0.000002 0.499951 0.307181 0.135462
C124  C     C_R   0.500002 0.999994 0.307181 0.135647
C125  C     C_R   0.500000 0.999985 0.192819 0.135725
C126  C     C_R   0.000002 0.499979 0.192819 0.136028
C127  C     C_R   0.500005 0.999983 0.807181 0.135725
C128  C     C_R   0.999995 0.499978 0.807181 0.136031
C129  C     C_1   0.999996 0.499957 0.733112 -0.042149
C130  C     C_1   0.500008 0.999989 0.733112 -0.041509
C131  C     C_1   0.000003 0.499959 0.266888 -0.042148
C132  C     C_1   0.500001 0.999991 0.266888 -0.041508
C133  C     C_1   0.500000 0.999987 0.233112 -0.041530
C134  C     C_1   0.000002 0.499969 0.233112 -0.041817
C135  C     C_1   0.500007 0.999986 0.766888 -0.041533
C136  C     C_1   0.999995 0.499967 0.766888 -0.041815
C137  C     C_R   0.728150 0.490552 0.032871 -0.181431
C138  C     C_R   0.484829 0.271851 0.031062 -0.181603
C139  C     C_R   0.271850 0.510202 0.032679 -0.181364
C140  C     C_R   0.508054 0.728151 0.033167 -0.181384
C141  C     C_R   0.728150 0.509447 0.967129 -0.181327
C142  C     C_R   0.491945 0.728150 0.966833 -0.181374
C143  C     C_R   0.271850 0.489798 0.967321 -0.181466
C144  C     C_R   0.515171 0.271851 0.968938 -0.181616
C145  C     C_R   0.228150 0.986539 0.531712 -0.181467
C146  C     C_R   0.973634 0.771856 0.524150 -0.182327
C147  C     C_R   0.771850 0.010528 0.532595 -0.181312
C148  C     C_R   0.009783 0.228150 0.532787 -0.181418
C149  C     C_R   0.228150 0.013456 0.468288 -0.181406
C150  C     C_R   0.990216 0.228150 0.467213 -0.181396
C151  C     C_R   0.771850 0.989467 0.467405 -0.181390
C152  C     C_R   0.026367 0.771856 0.475850 -0.182328
C153  C     C_R   0.706357 0.500000 0.000000 0.067216
C154  C     C_R   0.500000 0.293645 1.000000 0.067417
C155  C     C_R   0.293645 0.500000 1.000000 0.067187
C156  C     C_R   0.500000 0.706356 0.000000 0.067112
C157  C     C_R   0.206357 0.999997 0.499999 0.067472
C158  C     C_R   0.000000 0.793651 0.500000 0.068101
C159  C     C_R   0.793645 0.999998 0.500000 0.067259
C160  C     C_R   1.000000 0.206356 0.500000 0.067240
Cu1   Cu    Cu3+1 0.000000 0.540940 0.000000 0.995445
Cu2   Cu    Cu3+1 0.540940 0.000000 0.000000 0.996305
Cu3   Cu    Cu3+1 0.000000 0.459060 0.000000 0.996108
Cu4   Cu    Cu3+1 0.459060 0.000000 0.000000 0.996252
Cu5   Cu    Cu3+1 0.500000 0.040940 0.500000 0.996358
Cu6   Cu    Cu3+1 0.040940 0.500000 0.500000 0.998406
Cu7   Cu    Cu3+1 0.500000 0.959060 0.500000 0.997065
Cu8   Cu    Cu3+1 0.959060 0.500000 0.500000 0.998358
Cu9   Cu    Cu3+1 0.500000 0.500000 0.962670 0.997981
Cu10  Cu    Cu3+1 0.500000 0.500000 0.037330 0.997983
Cu11  Cu    Cu3+1 0.000000 0.000000 0.462670 0.997791
Cu12  Cu    Cu3+1 0.000000 0.000000 0.537330 0.997789
H1    H     H_    0.933214 0.499949 0.688167 0.144697
H2    H     H_    0.500049 0.066776 0.688172 0.144075
H3    H     H_    0.066780 0.499947 0.688170 0.144204
H4    H     H_    0.499968 0.933209 0.688163 0.144531
H5    H     H_    0.933219 0.499922 0.311831 0.144222
H6    H     H_    0.500014 0.933211 0.311835 0.144416
H7    H     H_    0.066786 0.499976 0.311833 0.144681
H8    H     H_    0.499992 0.066777 0.311829 0.144191
H9    H     H_    0.433216 0.999981 0.188168 0.144357
H10   H     H_    0.999967 0.566763 0.188179 0.143448
H11   H     H_    0.566783 0.999989 0.188168 0.144122
H12   H     H_    0.000035 0.433198 0.188157 0.144332
H13   H     H_    0.433222 0.999999 0.811829 0.144009
H14   H     H_    0.000031 0.433195 0.811843 0.144351
H15   H     H_    0.566788 0.999967 0.811834 0.144468
H16   H     H_    0.999960 0.566762 0.811822 0.143431
H17   H     H_    0.932955 0.499966 0.619387 0.163231
H18   H     H_    0.500047 0.067041 0.619393 0.162280
H19   H     H_    0.067042 0.499962 0.619390 0.162456
H20   H     H_    0.499963 0.932955 0.619385 0.162634
H21   H     H_    0.932958 0.499937 0.380610 0.162453
H22   H     H_    0.500015 0.932955 0.380614 0.162453
H23   H     H_    0.067045 0.499993 0.380612 0.163236
H24   H     H_    0.499990 0.067040 0.380609 0.162461
H25   H     H_    0.432956 0.999986 0.119389 0.162580
H26   H     H_    0.999967 0.567036 0.119398 0.162062
H27   H     H_    0.567043 0.999993 0.119389 0.162140
H28   H     H_    0.000033 0.432951 0.119378 0.162294
H29   H     H_    0.432959 0.000004 0.880609 0.162110
H30   H     H_    0.000034 0.432949 0.880621 0.162337
H31   H     H_    0.567045 0.999974 0.880614 0.162608
H32   H     H_    0.999961 0.567036 0.880601 0.162022
H33   H     H_    0.711429 0.483219 0.058402 0.172603
H34   H     H_    0.473049 0.288575 0.055184 0.172466
H35   H     H_    0.288573 0.518123 0.058054 0.172674
H36   H     H_    0.514307 0.711428 0.058920 0.172685
H37   H     H_    0.711428 0.516781 0.941598 0.172679
H38   H     H_    0.485692 0.711427 0.941080 0.172692
H39   H     H_    0.288573 0.481878 0.941945 0.172598
H40   H     H_    0.526951 0.288574 0.944815 0.172460
H41   H     H_    0.211430 0.976089 0.556348 0.172414
H42   H     H_    0.953165 0.788580 0.542896 0.171859
H43   H     H_    0.788574 0.018704 0.557906 0.172613
H44   H     H_    0.017378 0.211429 0.558250 0.172590
H45   H     H_    0.211429 0.023905 0.443651 0.172492
H46   H     H_    0.982621 0.211428 0.441751 0.172600
H47   H     H_    0.788573 0.981291 0.442094 0.172535
H48   H     H_    0.046836 0.788580 0.457103 0.171850
O1    O     O_R   0.940210 0.534560 0.999910 -0.572640
O2    O     O_R   0.534560 0.059790 0.999910 -0.572051
O3    O     O_R   0.059790 0.465440 0.999910 -0.572396
O4    O     O_R   0.465440 0.940210 0.999910 -0.572597
O5    O     O_R   0.940210 0.465440 0.000090 -0.572435
O6    O     O_R   0.534560 0.940210 0.000090 -0.572584
O7    O     O_R   0.059790 0.534560 0.000090 -0.572584
O8    O     O_R   0.465440 0.059790 0.000090 -0.572068
O9    O     O_R   0.440210 0.034560 0.499910 -0.572273
O10   O     O_R   0.034560 0.559790 0.499910 -0.570467
O11   O     O_R   0.559790 0.965440 0.499910 -0.572261
O12   O     O_R   0.965440 0.440210 0.499910 -0.572373
O13   O     O_R   0.440210 0.965440 0.500090 -0.572045
O14   O     O_R   0.034560 0.440210 0.500090 -0.572351
O15   O     O_R   0.559790 0.034560 0.500090 -0.572497
O16   O     O_R   0.965440 0.559790 0.500090 -0.570480
O17   O     O_R   0.000060 0.534560 0.945550 -0.585294
O18   O     O_R   0.534560 0.999940 0.945550 -0.584709
O19   O     O_R   0.999940 0.465440 0.945550 -0.585071
O20   O     O_R   0.465440 0.000060 0.945550 -0.585540
O21   O     O_R   0.000060 0.465440 0.054450 -0.585161
O22   O     O_R   0.534560 0.000060 0.054450 -0.585529
O23   O     O_R   0.999940 0.534560 0.054450 -0.585207
O24   O     O_R   0.465440 0.999940 0.054450 -0.584721
O25   O     O_R   0.500060 0.034560 0.445550 -0.584985
O26   O     O_R   0.034560 0.499940 0.445550 -0.584285
O27   O     O_R   0.499940 0.965440 0.445550 -0.585178
O28   O     O_R   0.965440 0.500060 0.445550 -0.585550
O29   O     O_R   0.500060 0.965440 0.554450 -0.584854
O30   O     O_R   0.034560 0.500060 0.554450 -0.585542
O31   O     O_R   0.499940 0.034560 0.554450 -0.585312
O32   O     O_R   0.965440 0.499940 0.554450 -0.584295
O33   O     O_R   0.500080 0.440090 0.968430 -0.575315
O34   O     O_R   0.440090 0.499920 0.968430 -0.575369
O35   O     O_R   0.499920 0.559910 0.968430 -0.575368
O36   O     O_R   0.559910 0.500080 0.968430 -0.575362
O37   O     O_R   0.500080 0.559910 0.031570 -0.575380
O38   O     O_R   0.440090 0.500080 0.031570 -0.575355
O39   O     O_R   0.499920 0.440090 0.031570 -0.575302
O40   O     O_R   0.559910 0.499920 0.031570 -0.575376
O41   O     O_R   0.000080 0.940090 0.468430 -0.575143
O42   O     O_R   0.940090 0.999920 0.468430 -0.575383
O43   O     O_R   0.999920 0.059910 0.468430 -0.575394
O44   O     O_R   0.059910 0.000080 0.468430 -0.575377
O45   O     O_R   0.000080 0.059910 0.531570 -0.575376
O46   O     O_R   0.940090 0.000080 0.531570 -0.575407
O47   O     O_R   0.999920 0.940090 0.531570 -0.575160
O48   O     O_R   0.059910 0.999920 0.531570 -0.575358
I1    I     I_    0.802201 0.475875 0.084093 -0.341538
I2    I     I_    0.461243 0.197802 0.079471 -0.339666
I3    I     I_    0.197797 0.526061 0.083594 -0.340719
I4    I     I_    0.520574 0.802206 0.084837 -0.341280
I5    I     I_    0.802200 0.524124 0.915907 -0.340803
I6    I     I_    0.479425 0.802204 0.915163 -0.341141
I7    I     I_    0.197796 0.473939 0.916406 -0.341438
I8    I     I_    0.538758 0.197800 0.920528 -0.339783
I9    I     I_    0.302196 0.965623 0.581140 -0.340135
I10   I     I_    0.932600 0.697808 0.561796 -0.335312
I11   I     I_    0.697797 0.026898 0.583382 -0.340176
I12   I     I_    0.024986 0.302203 0.583874 -0.340583
I13   I     I_    0.302195 0.034374 0.418859 -0.339586
I14   I     I_    0.975013 0.302201 0.416126 -0.340519
I15   I     I_    0.697797 0.973100 0.416619 -0.340846
I16   I     I_    0.067401 0.697807 0.438204 -0.335313

loop_
_geom_bond_atom_site_label_1
_geom_bond_atom_site_label_2
_ccdc_geom_bond_type
Cu7   O13   S    
Cu6   O14   S    
Cu5   O9    S    
Cu11  Cu12  S    
Cu5   O31   S    
C12   I6    S    
C91   H11   S    
C139  H35   S    
C93   H13   S    
C17   C29   A    
Cu9   Cu10  S    
Cu9   O35   S    
C30   C46   S    
C76   O22   A    
C130  C135  T    
C66   O38   A    
C2    O2    A    
C88   C124  A    
C131  C134  T    
C19   C31   A    
C8    C56   S    
C138  H34   S    
C9    C25   A    
C95   C127  A    
C7    O11   A    
C74   C119  S    
C96   C112  A    
C96   C128  A    
Cu6   O30   S    
C22   C32   A    
C12   C28   A    
C86   C102  A    
C9    I5    S    
C74   O20   A    
C65   O39   A    
C35   C155  S    
C73   O19   A    
Cu12  O47   S    
C147  H43   S    
C17   C149  A    
C128  C136  S    
C59   C66   S    
C24   C146  A    
Cu2   O18   S    
C33   C153  S    
C98   C114  A    
Cu1   O17   S    
C141  C153  A    
C84   C122  A    
C103  H23   S    
C148  H44   S    
C86   H6    S    
C151  C159  A    
C124  C132  S    
C111  C119  A    
C148  C160  A    
C64   C71   S    
C37   C157  S    
C90   H10   S    
Cu11  O41   S    
C96   H16   S    
C85   C123  A    
C1    O1    A    
Cu12  O46   S    
C2    C50   S    
Cu2   O6    S    
C45   C53   T    
C104  C116  A    
C143  C155  A    
C92   C108  A    
C89   C125  A    
Cu2   O2    S    
C60   C67   S    
C12   C142  A    
C132  C133  T    
Cu9   O33   S    
C65   O33   A    
Cu4   O20   S    
C19   C151  A    
C63   C70   S    
Cu1   Cu3   S    
C88   H8    S    
Cu10  O39   S    
C18   C30   A    
C139  C155  A    
Cu2   O22   S    
C77   C116  S    
C93   C109  A    
Cu2   Cu4   S    
C79   O31   A    
C98   H18   S    
C106  H26   S    
C17   I13   S    
C138  C154  A    
C97   H17   S    
C47   C55   T    
C147  C159  A    
C71   O45   A    
C73   C120  S    
C5    O13   A    
C23   C31   A    
C106  C118  A    
Cu6   Cu8   S    
C87   C123  A    
C79   O29   A    
Cu9   O36   S    
C105  C117  A    
C100  H20   S    
C75   C118  S    
C20   I14   S    
C78   O28   A    
C6    C54   S    
C18   C152  A    
C102  H22   S    
C41   C49   T    
C68   O36   A    
C88   C104  A    
C44   C52   T    
C101  H21   S    
C70   O46   A    
C15   C139  A    
C34   C154  S    
C72   O48   A    
C16   C26   A    
Cu8   O32   S    
C35   C59   T    
C7    O15   A    
Cu3   O3    S    
C72   O44   A    
C123  C131  S    
C82   C98   A    
C2    O8    A    
Cu7   O11   S    
Cu6   O26   S    
C80   O30   A    
C82   H2    S    
C151  H47   S    
C100  C114  A    
C11   C143  A    
C90   C106  A    
C78   C115  S    
Cu10  O38   S    
C1    C49   S    
C92   H12   S    
C3    O7    A    
C111  H31   S    
C112  C120  A    
C3    C51   S    
C13   I1    S    
C143  H39   S    
C74   O18   A    
C36   C60   T    
C4    O4    A    
C38   C62   T    
C23   C147  A    
C28   C44   S    
Cu6   O10   S    
C62   C69   S    
Cu1   O1    S    
C77   O27   A    
C81   H1    S    
C108  H28   S    
Cu11  O42   S    
C103  C115  A    
C93   C127  A    
C73   O17   A    
Cu12  O45   S    
C75   O21   A    
C21   I9    S    
Cu8   O12   S    
C129  C136  T    
C145  C157  A    
Cu4   O4    S    
C58   C65   S    
C15   C27   A    
C36   C156  S    
C11   C27   A    
C11   I7    S    
C46   C54   T    
C14   C28   A    
C14   I4    S    
C104  H24   S    
C137  C153  A    
C33   C57   T    
Cu4   O8    S    
Cu3   O5    S    
C149  H45   S    
C83   C121  A    
Cu11  O43   S    
C15   I3    S    
C108  C118  A    
C38   C158  S    
C95   H15   S    
C146  H42   S    
C150  C160  A    
C42   C50   T    
C152  C158  A    
C145  H41   S    
C7    C55   S    
C61   C72   S    
C85   H5    S    
Cu8   O28   S    
C22   C148  A    
C14   C140  A    
C67   O35   A    
C6    O10   A    
C75   O23   A    
C86   C124  A    
C101  C115  A    
C5    O9    A    
C24   C30   A    
C21   C145  A    
C112  H32   S    
C57   C68   S    
C110  C120  A    
Cu4   O24   S    
C141  H37   S    
C140  H36   S    
C85   C101  A    
C37   C61   T    
C109  C119  A    
C68   O40   A    
C20   C32   A    
C1    O5    A    
C48   C56   T    
C137  H33   S    
C6    O16   A    
C121  C129  S    
C70   O42   A    
C23   I11   S    
C91   C125  A    
C76   O24   A    
C10   C144  A    
C107  H27   S    
C39   C159  S    
Cu9   O34   S    
C40   C160  S    
C16   C138  A    
C89   H9    S    
C94   H14   S    
Cu3   O19   S    
C10   I8    S    
C13   C25   A    
C71   O43   A    
C92   C126  A    
C21   C29   A    
C99   C113  A    
C84   C100  A    
C69   O41   A    
Cu5   O15   S    
C31   C47   S    
C146  C158  A    
C94   C128  A    
C122  C130  S    
C39   C63   T    
C125  C133  S    
C76   C117  S    
Cu7   O29   S    
Cu8   O16   S    
C110  H30   S    
C66   O34   A    
C142  C156  A    
C89   C105  A    
C77   O25   A    
C109  H29   S    
C5    C53   S    
C87   C103  A    
C94   C110  A    
Cu12  O48   S    
Cu5   O25   S    
C95   C111  A    
C99   H19   S    
C8    O12   A    
C10   C26   A    
C69   O47   A    
C32   C48   S    
C24   I10   S    
C43   C51   T    
Cu7   O27   S    
C40   C64   T    
C152  H48   S    
C105  H25   S    
C16   I2    S    
C81   C97   A    
C20   C150  A    
C83   H3    S    
Cu3   O21   S    
Cu10  O37   S    
C22   I12   S    
C4    C52   S    
C140  C156  A    
C26   C42   S    
C144  C154  A    
Cu11  O44   S    
C127  C135  S    
C82   C122  A    
Cu1   O23   S    
C9    C141  A    
C87   H7    S    
C19   I15   S    
C27   C43   S    
C90   C126  A    
C18   I16   S    
C80   C113  S    
C126  C134  S    
Cu5   Cu7   S    
C150  H46   S    
C80   O32   A    
C79   C114  S    
C81   C121  A    
C34   C58   T    
C3    O3    A    
C142  H38   S    
C102  C116  A    
C25   C41   S    
C144  H40   S    
Cu10  O40   S    
C67   O37   A    
C78   O26   A    
C149  C157  A    
C84   H4    S    
C97   C113  A    
C4    O6    A    
C107  C117  A    
C29   C45   S    
C13   C137  A    
C83   C99   A    
Cu1   O7    S    
C91   C107  A    
C8    O14   A    
