data_mof_unit_42658.cif
_audit_creation_date              2012-12-10T18:05:14-0500
_audit_creation_method            fapswitch 2.2
_symmetry_space_group_name_H-M    P1
_symmetry_Int_Tables_number       1
_space_group_crystal_system       triclinic
_cell_length_a                    9.585141
_cell_length_b                    10.810285
_cell_length_c                    17.111796
_cell_angle_alpha                 88.133382
_cell_angle_beta                  93.166743
_cell_angle_gamma                 90.981229
_cell_volume                      1769.23628035

loop_
_atom_site_label
_atom_site_type_symbol
_atom_type_description
_atom_site_fract_x
_atom_site_fract_y
_atom_site_fract_z
_atom_type_partial_charge
C1    C     C_R   0.499244 0.262290 0.500262 0.788228
C2    C     C_R   0.500756 0.737709 0.499738 0.788228
C3    C     C_R   0.378456 0.935107 0.476391 -0.173872
C4    C     C_R   0.621544 0.064893 0.523608 -0.173872
C5    C     C_R   0.501085 0.871665 0.499495 -0.017064
C6    C     C_R   0.498915 0.128335 0.500505 -0.017064
C7    C     C_R   0.074061 0.412579 0.543573 0.272007
C8    C     C_R   0.925939 0.587421 0.456427 0.272006
C9    C     C_R   0.926060 0.414176 0.543152 -0.064139
C10   C     C_R   0.073940 0.585824 0.456848 -0.064138
C11   C     C_R   0.516706 0.498164 0.650753 0.793716
C12   C     C_R   0.483294 0.501836 0.349247 0.793717
C13   C     C_R   0.525258 0.497255 0.736578 -0.029159
C14   C     C_R   0.474742 0.502745 0.263422 -0.029159
C15   C     C_R   0.402730 0.497282 0.777745 -0.241208
C16   C     C_R   0.597270 0.502718 0.222254 -0.241208
C17   C     C_R   0.410457 0.497396 0.859089 -0.155430
C18   C     C_R   0.589544 0.502603 0.140911 -0.155430
C19   C     C_R   0.541724 0.497478 0.900772 0.386223
C20   C     C_R   0.458276 0.502522 0.099228 0.386223
C21   C     C_R   0.663501 0.496786 0.859567 -0.197948
C22   C     C_R   0.336499 0.503214 0.140433 -0.197948
C23   C     C_R   0.655789 0.496717 0.778098 -0.218151
C24   C     C_R   0.344211 0.503283 0.221902 -0.218150
C25   C     C_R   0.377468 0.063092 0.476772 -0.190103
C26   C     C_R   0.622532 0.936908 0.523228 -0.190103
Cu1   Cu    Cu3+1 0.640660 0.500020 0.500000 0.939753
Cu2   Cu    Cu3+1 0.359340 0.499980 0.500000 0.939753
H1    H     H_    0.699322 0.502528 0.252781 0.161783
H2    H     H_    0.300678 0.497472 0.747219 0.161783
H3    H     H_    0.686248 0.502436 0.111088 0.151011
H4    H     H_    0.313752 0.497564 0.888912 0.151011
H5    H     H_    0.764871 0.496629 0.890862 0.138317
H6    H     H_    0.235129 0.503371 0.109138 0.138317
H7    H     H_    0.752011 0.496467 0.747769 0.160501
H8    H     H_    0.247989 0.503533 0.252231 0.160501
H9    H     H_    0.282699 0.110754 0.457390 0.142952
H10   H     H_    0.717301 0.889246 0.542610 0.142952
H11   H     H_    0.283767 0.885991 0.457342 0.142547
H12   H     H_    0.716233 0.114009 0.542658 0.142547
H13   H     H_    0.869512 0.345467 0.576906 0.133937
H14   H     H_    0.130487 0.654533 0.423094 0.133937
N1    N     N_2   0.556379 0.498321 0.983625 -0.268312
N2    N     N_2   0.443621 0.501679 0.016375 -0.268312
N3    N     N_R   0.852070 0.500030 0.499980 -0.174157
N4    N     N_R   0.147930 0.499970 0.500020 -0.174158
O1    O     O_R   0.618740 0.319660 0.500000 -0.587394
O2    O     O_R   0.381260 0.680340 0.500000 -0.587394
O3    O     O_R   0.381170 0.319630 0.500010 -0.582168
O4    O     O_R   0.618830 0.680370 0.499990 -0.582168
O5    O     O_R   0.631780 0.498870 0.613920 -0.583816
O6    O     O_R   0.368220 0.501130 0.386080 -0.583816
O7    O     O_R   0.394210 0.498840 0.613930 -0.587558
O8    O     O_R   0.605790 0.501160 0.386070 -0.587557
C27   C     C_3   0.143295 0.307674 0.590059 -0.806568
H15   H     H_    0.071615 0.264125 0.632180 0.175353
H16   H     H_    0.169810 0.234025 0.550261 0.231205
H17   H     H_    0.235524 0.337915 0.625843 0.259514
C28   C     C_3   0.856705 0.692326 0.409941 -0.806568
H18   H     H_    0.928385 0.735875 0.367819 0.175353
H19   H     H_    0.764476 0.662085 0.374156 0.259514
H20   H     H_    0.830190 0.765975 0.449739 0.231205

loop_
_geom_bond_atom_site_label_1
_geom_bond_atom_site_label_2
_ccdc_geom_bond_type
C10   N4    A    
C4    C26   A    
C27   H15   S    
C9    N3    A    
C13   C15   A    
C14   C16   A    
C10   H14   S    
Cu2   O6    S    
Cu2   O3    S    
C9    H13   S    
C11   O7    A    
Cu1   O4    S    
C7    C27   S    
Cu2   O7    S    
C25   H9    S    
Cu1   N3    S    
C21   C23   A    
Cu1   O8    S    
C3    H11   S    
C28   H18   S    
C8    C28   S    
C12   O8    A    
C11   C13   S    
Cu2   N4    S    
C24   H8    S    
C15   H2    S    
C8    C10   A    
C12   O6    A    
C12   C14   S    
C20   N2    S    
C23   H7    S    
C27   H16   S    
N1    N2    D    
C1    O1    A    
C3    C5    A    
C22   H6    S    
C22   C24   A    
C28   H19   S    
C6    C25   A    
C11   O5    A    
C20   C22   A    
C14   C24   A    
C1    C6    S    
C2    C5    S    
C7    N4    A    
C4    H12   S    
C3    C25   A    
C21   H5    S    
C13   C23   A    
C18   C20   A    
C16   C18   A    
C4    C6    A    
C27   H17   S    
Cu1   O1    S    
Cu1   Cu2   S    
C7    C9    A    
C17   H4    S    
C8    N3    A    
C26   H10   S    
C28   H20   S    
C17   C19   A    
C18   H3    S    
C2    O4    A    
C2    O2    A    
C16   H1    S    
C15   C17   A    
C1    O3    A    
Cu2   O2    S    
C5    C26   A    
Cu1   O5    S    
C19   C21   A    
C19   N1    S    
