data_mof_unit_29262.cif
_audit_creation_date              2012-12-11T14:36:05-0500
_audit_creation_method            fapswitch 2.2
_symmetry_space_group_name_H-M    P1
_symmetry_Int_Tables_number       1
_space_group_crystal_system       triclinic
_cell_length_a                    13.519525
_cell_length_b                    13.551376
_cell_length_c                    27.454449
_cell_angle_alpha                 91.287951
_cell_angle_beta                  89.929176
_cell_angle_gamma                 60.106979
_cell_volume                      4359.14073337

loop_
_atom_site_label
_atom_site_type_symbol
_atom_type_description
_atom_site_fract_x
_atom_site_fract_y
_atom_site_fract_z
_atom_type_partial_charge
C1    C     C_R   0.619311 0.100824 0.570705 0.540556
C2    C     C_1   0.632132 0.737247 0.616552 -0.019430
C3    C     C_3   0.715160 0.562133 0.761501 0.178206
C4    C     C_3   0.694292 0.645005 0.804248 0.052931
C5    C     C_3   0.604214 0.649545 0.737846 -0.090725
C6    C     C_3   0.673660 0.693096 0.710645 0.026459
C7    C     C_3   0.583501 0.735014 0.780463 -0.122906
C8    C     C_3   0.652208 0.779931 0.752487 -0.118897
C9    C     C_1   0.699286 0.621754 0.856359 -0.051799
C10   C     C_1   0.655100 0.713652 0.658546 -0.068101
C11   C     C_3   0.057629 0.155820 0.735932 -0.157003
C12   C     C_R   0.599470 0.780639 0.568740 0.540266
C13   C     C_3   0.147410 0.070920 0.771960 -0.115578
C14   C     C_1   0.092038 0.202638 0.900366 -0.009691
C15   C     C_1   0.211731 0.147045 0.613774 -0.020664
C16   C     C_3   0.041802 0.257205 0.769477 -0.116479
C17   C     C_3   0.132561 0.172178 0.804281 -0.017278
C18   C     C_3   0.138634 0.259856 0.741245 0.244908
C19   C     C_3   0.153452 0.161519 0.707611 0.092898
C20   C     C_3   0.229111 0.177599 0.776617 -0.051503
C21   C     C_3   0.241673 0.078563 0.743397 0.154518
C22   C     C_1   0.115447 0.184283 0.857438 -0.056196
C23   C     C_R   0.273747 0.124017 0.568459 0.534817
C24   C     C_1   0.175308 0.158043 0.654915 -0.015570
C25   C     C_3   0.620858 0.264946 0.745050 -0.112970
C26   C     C_3   0.553414 0.237321 0.782167 0.189970
C27   C     C_1   0.688555 0.200989 0.905539 -0.006329
C28   C     C_1   0.632006 0.130031 0.620031 -0.008107
C29   C     C_3   0.730364 0.193998 0.775400 -0.149138
C30   C     C_3   0.660098 0.168537 0.812171 0.024238
C31   C     C_3   0.757231 0.084260 0.745726 -0.145933
C32   C     C_3   0.647763 0.154998 0.716097 0.060580
C33   C     C_3   0.687821 0.058239 0.783519 -0.129545
C34   C     C_R   0.622595 0.098544 0.431657 0.538335
C35   C     C_3   0.579835 0.129340 0.753433 0.264597
C36   C     C_1   0.671089 0.183943 0.864199 -0.044162
C37   C     C_1   0.639923 0.144679 0.663052 -0.027635
C38   C     C_R   0.737701 0.698970 0.360068 -0.179321
C39   C     C_R   0.748239 0.682787 0.309439 -0.003663
C40   C     C_R   0.759616 0.666183 0.207353 -0.001010
C41   C     C_R   0.850898 0.660406 0.233909 -0.115255
C42   C     C_R   0.844138 0.671295 0.284620 -0.111911
C43   C     C_R   0.770160 0.645412 0.157203 -0.180715
C44   C     C_R   0.680743 0.646088 0.131313 0.039977
C45   C     C_R   0.603302 0.773114 0.430938 0.528569
C46   C     C_R   0.564134 0.686668 0.358294 0.272725
C47   C     C_R   0.564052 0.690409 0.307646 0.045712
C48   C     C_R   0.657154 0.686186 0.282919 0.003453
C49   C     C_R   0.469542 0.704014 0.281729 -0.053493
C50   C     C_R   0.465154 0.714490 0.231346 0.103008
C51   C     C_R   0.563304 0.698614 0.205216 0.015775
C52   C     C_R   0.659641 0.684264 0.231766 -0.007549
C53   C     C_R   0.572950 0.687703 0.153891 0.241220
C54   C     C_R   0.641412 0.709098 0.384282 -0.023771
C55   C     C_R   0.194996 0.066166 0.361073 -0.141327
C56   C     C_R   0.277333 0.120803 0.431295 0.543269
C57   C     C_R   0.156399 0.084410 0.312743 -0.042175
C58   C     C_R   0.117687 0.107245 0.211350 -0.032294
C59   C     C_R   0.121059 0.014025 0.235741 0.298146
C60   C     C_R   0.139040 0.003636 0.286111 0.299047
C61   C     C_R   0.098016 0.122847 0.161024 -0.123421
C62   C     C_R   0.092319 0.217333 0.138235 0.007181
C63   C     C_R   0.178421 0.252625 0.365092 -0.123654
C64   C     C_R   0.147075 0.270412 0.316448 0.019131
C65   C     C_R   0.142243 0.182668 0.289389 -0.017610
C66   C     C_R   0.130412 0.369669 0.293083 0.244345
C67   C     C_3   0.785125 0.604697 0.734025 -0.070046
C68   C     C_R   0.122837 0.374141 0.242720 -0.060373
C69   C     C_R   0.121344 0.286641 0.215529 -0.020630
C70   C     C_R   0.127010 0.191939 0.238768 0.002582
C71   C     C_R   0.108279 0.296335 0.165458 -0.124491
C72   C     C_R   0.210971 0.147871 0.386325 -0.013760
C73   C     C_R   0.628176 0.225946 0.370175 -0.134675
C74   C     C_R   0.638438 0.247813 0.321254 0.018365
C75   C     C_R   0.644743 0.292176 0.221861 -0.047723
C76   C     C_R   0.636260 0.370996 0.258265 -0.066218
C77   C     C_R   0.635669 0.349025 0.307466 0.243000
C78   C     C_3   0.763234 0.690119 0.777104 -0.129403
C79   C     C_R   0.651464 0.312254 0.172365 0.193369
C80   C     C_R   0.679846 0.223988 0.137459 0.050675
C81   C     C_R   0.652457 0.041371 0.346518 -0.112103
C82   C     C_R   0.656075 0.063561 0.297835 0.020701
C83   C     C_R   0.649551 0.166667 0.284768 0.035652
C84   C     C_R   0.664698 0.984441 0.262189 -0.133395
C85   C     C_R   0.671889 0.004269 0.213365 -0.099553
C86   C     C_R   0.670256 0.104175 0.199308 0.044318
C87   C     C_R   0.654363 0.187992 0.235237 -0.012550
C88   C     C_R   0.686953 0.120745 0.150319 0.084999
C89   C     C_1   0.702930 0.599392 0.898812 -0.009562
C90   C     C_R   0.638004 0.122347 0.382315 0.009241
C91   C     C_R   0.048355 0.236420 0.949350 0.546183
C92   C     C_R   0.712965 0.560420 0.947676 0.544450
C93   C     C_R   0.721634 0.224104 0.951782 0.535200
C94   C     C_R   0.044992 0.247196 0.089261 0.553987
C95   C     C_R   0.706551 0.577476 0.085874 0.594706
C96   C     C_R   0.718596 0.235823 0.089569 0.579924
Cr1   Cr    Cr6+3 0.417550 0.169090 0.500530 1.042313
Cr2   Cr    Cr6+3 0.669180 0.913420 0.499920 1.028613
Cr3   Cr    Cr6+3 0.413260 0.917540 0.499520 1.037124
Cr4   Cr    Cr6+3 0.909170 0.177380 0.020380 1.023823
Cr5   Cr    Cr6+3 0.912710 0.429210 0.018220 1.023215
Cr6   Cr    Cr6+3 0.657170 0.432570 0.019030 1.063771
H1    H     H_    0.828254 0.707262 0.793625 0.107459
H2    H     H_    0.296950 0.189077 0.793769 0.116054
H3    H     H_    0.961686 0.333479 0.781806 0.160288
H4    H     H_    0.590848 0.349720 0.729350 0.104255
H5    H     H_    0.713511 0.974377 0.799427 0.098699
H6    H     H_    0.842235 0.022033 0.730108 0.115440
H7    H     H_    0.795251 0.216731 0.786984 0.132181
H8    H     H_    0.851445 0.618674 0.139230 0.122212
H9    H     H_    0.868527 0.552296 0.714999 0.130695
H10   H     H_    0.800136 0.711168 0.380006 0.134465
H11   H     H_    0.927436 0.647575 0.215417 0.113430
H12   H     H_    0.914220 0.669544 0.304427 0.154753
H13   H     H_    0.394898 0.713622 0.300849 0.218455
H14   H     H_    0.080592 0.066174 0.139245 0.130747
H15   H     H_    0.220895 0.985754 0.378068 0.151416
H16   H     H_    0.629382 0.869937 0.748692 0.144187
H17   H     H_    0.101589 0.370748 0.148325 0.124673
H18   H     H_    0.114548 0.448476 0.224906 0.124311
H19   H     H_    0.189925 0.315599 0.385185 0.156131
H20   H     H_    0.611560 0.288028 0.399115 0.117021
H21   H     H_    0.636065 0.448415 0.249267 0.156347
H22   H     H_    0.501006 0.788702 0.799957 0.118178
H23   H     H_    0.679436 0.940421 0.186876 0.154491
H24   H     H_    0.666365 0.906822 0.272118 0.125952
H25   H     H_    0.656605 0.962406 0.356692 0.125073
H26   H     H_    0.539198 0.631803 0.721719 0.101000
H27   H     H_    0.152879 0.991472 0.785073 0.110542
H28   H     H_    0.989150 0.144581 0.719241 0.104598
O1    O     O_R   0.301710 0.195650 0.554160 -0.494263
O2    O     O_R   0.658900 0.818120 0.449760 -0.507332
O3    O     O_R   0.503220 0.801620 0.445520 -0.484915
O4    O     O_R   0.319370 0.022040 0.450020 -0.493878
O5    O     O_3   0.499990 0.000010 0.499990 -0.253759
O6    O     O_R   0.818720 0.150820 0.967160 -0.514975
O7    O     O_R   0.006410 0.181720 0.970200 -0.492762
O8    O     O_R   0.027890 0.334070 0.964920 -0.507565
O9    O     O_R   0.809600 0.521790 0.967960 -0.501054
O10   O     O_R   0.635520 0.542770 0.964420 -0.505288
O11   O     O_R   0.665950 0.325030 0.970100 -0.500534
O12   O     O_R   0.522390 0.158990 0.550460 -0.492523
O13   O     O_R   0.816620 0.158530 0.074540 -0.521202
O14   O     O_R   0.004460 0.188870 0.069750 -0.500487
O15   O     O_R   0.025800 0.341780 0.072300 -0.520234
O16   O     O_R   0.807650 0.528950 0.067500 -0.518189
O17   O     O_R   0.633420 0.550490 0.071810 -0.445401
O18   O     O_R   0.664000 0.332180 0.069640 -0.457942
O19   O     O_3   0.826350 0.346390 0.019210 -0.253040
O20   O     O_R   0.694390 0.003530 0.554040 -0.505761
O21   O     O_R   0.657700 0.819660 0.549320 -0.492567
O22   O     O_R   0.501930 0.803280 0.552920 -0.514417
O23   O     O_R   0.318170 0.023580 0.549580 -0.504292
O24   O     O_R   0.303010 0.193990 0.446760 -0.516847
O25   O     O_R   0.523600 0.157450 0.450900 -0.490878
O26   O     O_R   0.695690 0.001860 0.446640 -0.514248
O27   O     O_3   0.131961 0.359562 0.724425 -0.713992
H29   H     H_    0.111312 0.411284 0.753424 0.307478
N1    N     N_2   0.443068 0.317322 0.803212 -0.517234
H30   H     H_    0.415520 0.281124 0.828620 0.244358
C97   C     C_3   0.356800 0.384703 0.768416 -0.285215
H31   H     H_    0.275405 0.442435 0.787963 0.136499
H32   H     H_    0.342806 0.328646 0.742642 0.214443
H33   H     H_    0.382963 0.437678 0.747774 0.148477
O28   O     O_3   0.498920 0.097965 0.742030 -0.731006
H34   H     H_    0.487925 0.065881 0.772287 0.319540
O29   O     O_3   0.481837 0.707090 0.125314 -0.696355
H35   H     H_    0.465791 0.644754 0.131749 0.343023
N2    N     N_2   0.359810 0.743814 0.208715 -0.499634
H36   H     H_    0.329861 0.803530 0.181964 0.295221
C98   C     C_3   0.319352 0.662964 0.210207 -0.281451
H37   H     H_    0.309409 0.637938 0.172553 0.124533
H38   H     H_    0.235169 0.703151 0.229152 0.226330
H39   H     H_    0.379357 0.584728 0.229686 0.144845
O30   O     O_3   0.483010 0.669953 0.381422 -0.664613
H40   H     H_    0.516013 0.631059 0.412337 0.343187
O31   O     O_3   0.102238 0.933308 0.212656 -0.666779
H41   H     H_    0.131033 0.920739 0.178769 0.300173
O32   O     O_3   0.140067 0.912058 0.307725 -0.650339
H42   H     H_    0.111334 0.934118 0.341664 0.314249
O33   O     O_3   0.124799 0.462192 0.317710 -0.708982
H43   H     H_    0.084450 0.472482 0.349162 0.314787
O34   O     O_3   0.640715 0.413753 0.157623 -0.688522
H44   H     H_    0.574905 0.475978 0.175619 0.303402
O35   O     O_3   0.634147 0.428012 0.340469 -0.691934
H45   H     H_    0.678680 0.387808 0.369268 0.316101
N3    N     N_2   0.710016 0.034350 0.114048 -0.526680
H46   H     H_    0.678519 0.062283 0.079823 0.252180
C99   C     C_3   0.823505 0.935188 0.113834 -0.285600
H47   H     H_    0.873897 0.937029 0.082245 0.157876
H48   H     H_    0.816487 0.857134 0.110514 0.136261
H49   H     H_    0.870253 0.930811 0.147774 0.173786
N4    N     N_2   0.749034 0.443009 0.762461 -0.540199
H50   H     H_    0.693612 0.428285 0.782635 0.255698
C100  C     C_3   0.775101 0.388651 0.714313 -0.323686
H51   H     H_    0.802964 0.297441 0.716580 0.137162
H52   H     H_    0.846356 0.393853 0.696852 0.167055
H53   H     H_    0.698932 0.429208 0.690753 0.139327
N5    N     N_2   0.350309 0.977691 0.731731 -0.527377
H54   H     H_    0.352637 0.902253 0.738925 0.240046
C101  C     C_3   0.404539 0.974935 0.685937 -0.258788
H55   H     H_    0.496785 0.916690 0.688096 0.167924
H56   H     H_    0.393092 0.059664 0.677618 0.212950
H57   H     H_    0.370850 0.943764 0.656134 0.139011

loop_
_geom_bond_atom_site_label_1
_geom_bond_atom_site_label_2
_ccdc_geom_bond_type
C66   C68   A    
C98   H37   S    
C1    O20   A    
O28   H34   S    
C101  H56   S    
C41   C42   A    
C12   O22   A    
C85   H23   S    
C33   H5    S    
C7    H22   S    
C43   C44   A    
C93   O6    A    
C2    C12   S    
C20   C21   S    
C49   C50   A    
C34   C90   S    
C81   C82   A    
Cr5   O9    S    
C8    H16   S    
C7    C8    S    
C47   C49   A    
C34   O25   A    
C60   O32   S    
C98   H38   S    
Cr5   O15   S    
C3    N4    S    
C43   H8    S    
N5    H54   S    
C29   H7    S    
C19   C21   S    
C73   C90   A    
Cr2   O20   S    
C5    C6    S    
C86   C88   A    
C65   C70   A    
O33   H43   S    
C17   C20   S    
C77   O35   S    
C15   C24   T    
Cr3   O3    S    
C69   C71   A    
C18   C19   S    
C73   C74   A    
C99   H48   S    
C23   O23   A    
C44   C95   S    
C1    O12   A    
Cr6   O18   S    
C91   O7    A    
C44   C53   A    
C53   O29   S    
C40   C43   A    
C47   C48   A    
C16   C17   S    
C56   C72   S    
C74   C77   A    
C30   C36   S    
C1    C28   S    
C68   C69   A    
C31   C33   S    
Cr6   O11   S    
C80   C96   S    
C58   C61   A    
C74   C83   A    
C55   C72   A    
C100  H53   S    
C61   C62   A    
C94   O15   A    
C15   C23   S    
C59   C60   A    
C81   H25   S    
C8    C78   S    
N2    C98   S    
C12   O21   A    
C99   H47   S    
C67   C78   S    
C21   N5    S    
C4    C7    S    
C97   H32   S    
C42   H12   S    
C25   H4    S    
C97   H31   S    
C39   C42   A    
Cr2   O21   S    
C88   N3    S    
C25   C29   S    
C96   O18   A    
C98   H39   S    
Cr2   O26   S    
Cr5   O16   S    
C23   O1    A    
C51   C52   A    
N2    H36   S    
C59   O31   S    
C95   O17   A    
C76   C77   A    
Cr1   O1    S    
C56   O24   A    
Cr4   O14   S    
C9    C89   T    
O29   H35   S    
C5    C7    S    
C86   C87   A    
C58   C70   A    
C57   C60   A    
C6    C8    S    
N4    C100  S    
C58   C59   A    
C85   C86   A    
Cr2   O5    S    
C79   C80   A    
Cr3   O4    S    
Cr1   O12   S    
C51   C53   A    
C64   C66   A    
C99   H49   S    
C75   C76   A    
C32   C35   S    
O34   H44   S    
C4    C78   S    
C29   C30   S    
Cr6   O17   S    
C91   O8    A    
C11   C16   S    
N1    H30   S    
C38   C54   A    
C11   C19   S    
C46   C54   A    
C61   H14   S    
N1    C97   S    
C50   C51   A    
C63   H19   S    
Cr3   O5    S    
C26   N1    S    
C16   C18   S    
Cr6   O10   S    
C32   C37   S    
C84   C85   A    
C89   C92   S    
O32   H42   S    
C16   H3    S    
O31   H41   S    
C81   C90   A    
C31   H6    S    
C67   H9    S    
C40   C41   A    
C49   H13   S    
C66   O33   S    
C45   C54   S    
C82   C83   A    
C82   C84   A    
C71   H17   S    
C55   C57   A    
C18   O27   S    
C27   C36   T    
C101  H57   S    
C27   C93   S    
Cr1   O5    S    
C38   H10   S    
C3    C4    S    
C92   O10   A    
C11   H28   S    
C97   H33   S    
C93   O11   A    
C55   H15   S    
C75   C87   A    
O27   H29   S    
C46   C47   A    
C6    C67   S    
C13   H27   S    
C30   C33   S    
C78   H1    S    
C76   H21   S    
C73   H20   S    
C31   C32   S    
C3    C67   S    
C41   H11   S    
C63   C64   A    
C3    C5    S    
Cr4   O13   S    
Cr1   O24   S    
C83   C87   A    
C6    C10   S    
C56   O4    A    
Cr5   O8    S    
C26   C30   S    
C20   H2    S    
C34   O26   A    
Cr4   O19   S    
Cr3   O22   S    
C45   O3    A    
C17   C22   S    
C101  H55   S    
C13   C17   S    
C94   O14   A    
C64   C65   A    
C14   C22   T    
C84   H24   S    
C62   C94   S    
C19   C24   S    
C25   C26   S    
N3    H46   S    
C80   C88   A    
O30   H40   S    
C40   C52   A    
C13   C21   S    
C96   O13   A    
C11   C13   S    
O35   H45   S    
C38   C39   A    
C28   C37   T    
C25   C32   S    
Cr3   O23   S    
C5    H26   S    
Cr5   O19   S    
C33   C35   S    
C79   O34   S    
C62   C71   A    
C50   N2    S    
C18   C20   S    
Cr1   O25   S    
C69   C70   A    
C14   C91   S    
N3    C99   S    
Cr4   O7    S    
Cr6   O19   S    
C100  H51   S    
C26   C35   S    
C48   C52   A    
C63   C72   A    
C45   O2    A    
C29   C31   S    
N4    H50   S    
Cr2   O2    S    
N5    C101  S    
C95   O16   A    
C46   O30   S    
C35   O28   S    
C100  H52   S    
C4    C9    S    
C92   O9    A    
C75   C79   A    
C68   H18   S    
Cr4   O6    S    
C39   C48   A    
C57   C65   A    
C2    C10   T    
