data_mof_unit_31295.cif
_audit_creation_date              2012-12-10T17:28:32-0500
_audit_creation_method            fapswitch 2.2
_symmetry_space_group_name_H-M    P1
_symmetry_Int_Tables_number       1
_space_group_crystal_system       triclinic
_cell_length_a                    10.654999
_cell_length_b                    11.978101
_cell_length_c                    12.923266
_cell_angle_alpha                 94.122551
_cell_angle_beta                  89.973431
_cell_angle_gamma                 86.617445
_cell_volume                      1642.2012638

loop_
_atom_site_label
_atom_site_type_symbol
_atom_type_description
_atom_site_fract_x
_atom_site_fract_y
_atom_site_fract_z
_atom_type_partial_charge
C1    C     C_R   0.494115 0.523015 0.700574 0.871903
C2    C     C_R   0.467726 0.552118 0.134075 -0.235149
C3    C     C_R   0.515154 0.447650 0.972324 0.083729
C4    C     C_R   0.471346 0.548792 0.027288 0.079589
C5    C     C_R   0.396765 0.951430 0.392934 -0.283674
C6    C     C_R   0.603109 0.048597 0.607152 -0.293241
C7    C     C_R   0.404971 0.835719 0.404411 0.049227
C8    C     C_R   0.594953 0.164297 0.595640 0.049540
C9    C     C_R   0.542096 0.860068 0.547861 -0.010738
C10   C     C_R   0.457837 0.139945 0.452183 -0.008852
C11   C     C_R   0.536768 0.976971 0.539389 0.081760
C12   C     C_R   0.505414 0.476833 0.299370 0.866436
C13   C     C_R   0.463142 0.023047 0.460672 0.082344
C14   C     C_R   0.739126 0.500589 0.499419 0.881427
C15   C     C_R   0.260837 0.499397 0.500038 0.881700
C16   C     C_R   0.868564 0.504822 0.691178 -0.196283
C17   C     C_R   0.130793 0.500026 0.308243 -0.184654
C18   C     C_R   0.933187 0.503885 0.785359 0.229889
C19   C     C_R   0.065700 0.503881 0.214327 0.230332
C20   C     C_R   0.064467 0.498674 0.784655 -0.122106
C21   C     C_R   0.934479 0.509583 0.215513 -0.142985
C22   C     C_R   0.129914 0.495620 0.691096 -0.127886
C23   C     C_R   0.511552 0.460936 0.187313 -0.162452
C24   C     C_R   0.869462 0.508704 0.308836 -0.127926
C25   C     C_R   0.065260 0.497951 0.595434 0.061410
C26   C     C_R   0.934463 0.504034 0.404139 0.061997
C27   C     C_R   0.934135 0.501357 0.595459 0.030968
C28   C     C_R   0.065600 0.500871 0.404003 0.025932
C29   C     C_R   0.128549 0.498026 0.499718 -0.151004
C30   C     C_R   0.871341 0.502483 0.499694 -0.150577
C31   C     C_3   0.862066 0.507128 0.886264 -0.470870
C32   C     C_3   0.867662 0.391373 0.928542 -0.796694
C33   C     C_3   0.136592 0.502830 0.113424 -0.452115
C34   C     C_R   0.483295 0.537863 0.812422 -0.174071
C35   C     C_3   0.200559 0.387444 0.084428 -0.791182
C36   C     C_2   0.604749 0.262295 0.190102 0.998880
C37   C     C_2   0.381669 0.733806 0.808974 0.987297
C38   C     C_2   0.380022 0.749440 0.032442 0.907685
C39   C     C_2   0.585359 0.241156 0.965983 0.913269
C40   C     C_R   0.429244 0.643955 0.974629 -0.094692
C41   C     C_R   0.552191 0.350846 0.024594 -0.112486
C42   C     C_R   0.432098 0.637325 0.865657 -0.120304
C43   C     C_R   0.555506 0.359166 0.133590 -0.133765
C44   C     C_R   0.525077 0.446144 0.865931 -0.236140
H1    H     H_    0.881982 0.514343 0.144208 0.145873
H2    H     H_    0.569456 0.373263 0.823457 0.185488
H3    H     H_    0.401292 0.177152 0.392600 0.143171
H4    H     H_    0.598609 0.822868 0.607465 0.141560
H5    H     H_    0.645686 0.219650 0.648169 0.137445
H6    H     H_    0.354201 0.780373 0.351907 0.137955
H7    H     H_    0.825570 0.330276 0.871926 0.271533
H8    H     H_    0.966400 0.362351 0.943444 0.265831
H9    H     H_    0.814017 0.394798 0.002335 0.260591
H10   H     H_    0.901796 0.568983 0.943392 0.214178
H11   H     H_    0.762076 0.535259 0.875495 0.222398
H12   H     H_    0.116391 0.497386 0.856625 0.148626
H13   H     H_    0.270691 0.364543 0.143920 0.262054
H14   H     H_    0.129705 0.322967 0.077800 0.270357
H15   H     H_    0.249328 0.388285 0.008584 0.262788
H16   H     H_    0.072366 0.525200 0.049773 0.211605
H17   H     H_    0.207433 0.567132 0.119989 0.217526
H18   H     H_    0.734274 0.202010 0.288746 0.349946
H19   H     H_    0.257484 0.790977 0.704544 0.349805
H20   H     H_    0.414355 0.878454 0.135562 0.356722
H21   H     H_    0.534459 0.122820 0.857566 0.360851
H22   H     H_    0.339409 0.984427 0.331662 0.161891
H23   H     H_    0.660394 0.015621 0.668476 0.164108
H24   H     H_    0.766929 0.508355 0.693638 0.123039
H25   H     H_    0.232424 0.496500 0.305359 0.128013
H26   H     H_    0.231365 0.491786 0.694689 0.158194
H27   H     H_    0.767988 0.512247 0.305368 0.154940
H28   H     H_    0.428329 0.626505 0.177372 0.181479
N1    N     N_R   0.523130 0.207800 0.519340 -0.109532
N2    N     N_R   0.476870 0.792200 0.480660 -0.109642
O1    O     O_R   0.506170 0.421700 0.658830 -0.627847
O2    O     O_R   0.710369 0.273023 0.253383 -0.791723
O3    O     O_2   0.426016 0.825397 0.824156 -0.608046
O4    O     O_R   0.282943 0.719690 0.738943 -0.794067
O5    O     O_2   0.271539 0.784743 0.019525 -0.613665
O6    O     O_R   0.458465 0.808352 0.100690 -0.772886
O7    O     O_2   0.684824 0.189272 0.982384 -0.605239
O8    O     O_R   0.501606 0.197281 0.892605 -0.783544
O9    O     O_R   0.493830 0.578300 0.341170 -0.629335
O10   O     O_R   0.491330 0.609310 0.646410 -0.607103
O11   O     O_R   0.508670 0.390690 0.353590 -0.610052
O12   O     O_R   0.690650 0.406190 0.506220 -0.603671
O13   O     O_R   0.309350 0.593810 0.493780 -0.603093
O14   O     O_R   0.675800 0.593810 0.493800 -0.622094
O15   O     O_R   0.324200 0.406190 0.506200 -0.621774
O16   O     O_2   0.552942 0.173698 0.181291 -0.609793
Zn1   Zn    Zn3+2 0.509910 0.374730 0.508290 0.970024
Zn2   Zn    Zn3+2 0.490090 0.625270 0.491710 0.969646

loop_
_geom_bond_atom_site_label_1
_geom_bond_atom_site_label_2
_ccdc_geom_bond_type
C17   H25   S    
C41   C43   A    
C34   C42   A    
C20   H12   S    
O11   Zn1   S    
C39   C41   S    
C1    O10   A    
O9    Zn2   S    
C12   C23   S    
C12   O11   A    
C35   H14   S    
C28   C29   A    
C19   C21   A    
C24   C26   A    
O12   Zn1   S    
C10   N1    A    
C38   O5    D    
C23   C43   A    
C35   H15   S    
N2    Zn2   S    
C37   C42   S    
C32   H8    S    
C36   O2    S    
C17   C19   A    
C4    C40   A    
C22   C25   A    
C16   H24   S    
O15   Zn1   S    
C5    C13   A    
O1    Zn1   S    
C16   C27   A    
C40   C42   A    
O13   Zn2   S    
C27   C30   A    
H20   O6    S    
H18   O2    S    
C14   C30   S    
C2    H28   S    
C44   H2    S    
C1    C34   S    
C15   C29   S    
C7    N2    A    
C21   H1    S    
C25   C29   A    
C3    C44   A    
C1    O1    A    
O14   Zn2   S    
C34   C44   A    
N1    Zn1   S    
C19   C33   S    
C39   O7    D    
C6    C11   A    
C5    C7    A    
C6    C8    A    
C37   O3    D    
C12   O9    A    
C2    C4    A    
C32   H7    S    
C15   O15   A    
C31   C32   S    
C9    C11   A    
C14   O12   A    
C33   H17   S    
C6    H23   S    
C20   C22   A    
C26   C30   A    
C33   H16   S    
C9    N2    A    
C3    C4    A    
C32   H9    S    
C10   H3    S    
C15   O13   A    
C36   O16   D    
C3    C41   A    
C17   C28   A    
C39   O8    S    
C5    H22   S    
C10   C13   A    
C25   C27   A    
C37   O4    S    
C26   C28   A    
C35   H13   S    
C14   O14   A    
C38   C40   S    
C11   C13   A    
H21   O8    S    
C38   O6    S    
C7    H6    S    
C8    N1    A    
C33   C35   S    
C18   C20   A    
C31   H10   S    
C9    H4    S    
C16   C18   A    
C21   C24   A    
C2    C23   A    
C36   C43   S    
C18   C31   S    
O10   Zn2   S    
C31   H11   S    
C8    H5    S    
C22   H26   S    
C24   H27   S    
H19   O4    S    
