data_mof_unit_5575.cif
_audit_creation_date              2012-12-11T17:12:48-0500
_audit_creation_method            fapswitch 2.2
_symmetry_space_group_name_H-M    P1
_symmetry_Int_Tables_number       1
_space_group_crystal_system       triclinic
_cell_length_a                    17.2892
_cell_length_b                    6.879327
_cell_length_c                    14.406523
_cell_angle_alpha                 89.999981
_cell_angle_beta                  110.28718
_cell_angle_gamma                 90.000029
_cell_volume                      1607.19056443

loop_
_atom_site_label
_atom_site_type_symbol
_atom_type_description
_atom_site_fract_x
_atom_site_fract_y
_atom_site_fract_z
_atom_type_partial_charge
O1    O     O_R   0.314130 0.635770 0.168990 -0.536003
O2    O     O_R   0.685870 0.364230 0.831010 -0.536003
O3    O     O_R   0.185870 0.135770 0.331010 -0.536005
O4    O     O_R   0.814130 0.864230 0.668990 -0.536004
O5    O     O_R   0.146800 0.302460 0.139760 -0.538195
O6    O     O_R   0.853200 0.697540 0.860240 -0.538195
O7    O     O_R   0.353200 0.802460 0.360240 -0.538194
O8    O     O_R   0.646800 0.197540 0.639760 -0.538194
C1    C     C_R   0.113977 0.475844 0.112791 0.735804
C2    C     C_R   0.886023 0.524156 0.887208 0.735804
C3    C     C_R   0.386023 0.975844 0.387209 0.735807
C4    C     C_R   0.613977 0.024156 0.612791 0.735806
O9    O     O_R   0.311100 0.305780 0.157130 -0.528695
O10   O     O_R   0.688900 0.694220 0.842870 -0.528696
O11   O     O_R   0.188900 0.805780 0.342870 -0.528693
O12   O     O_R   0.811100 0.194220 0.657130 -0.528693
O13   O     O_R   0.351340 0.139640 0.348510 -0.536767
O14   O     O_R   0.648660 0.860360 0.651490 -0.536766
O15   O     O_R   0.148660 0.639640 0.151490 -0.536767
O16   O     O_R   0.851340 0.360360 0.848510 -0.536767
C5    C     C_R   0.334058 0.475393 0.137264 0.707056
C6    C     C_R   0.665942 0.524607 0.862736 0.707057
C7    C     C_R   0.165942 0.975393 0.362736 0.707056
C8    C     C_R   0.834058 0.024607 0.637264 0.707056
C9    C     C_1   0.533561 0.008899 0.533049 -0.175632
C10   C     C_1   0.466439 0.991101 0.466951 -0.175631
C11   C     C_1   0.966438 0.508899 0.966951 -0.175632
C12   C     C_1   0.033561 0.491101 0.033049 -0.175632
O17   O     O_3   0.263010 0.470920 0.312770 -0.366349
O18   O     O_3   0.736990 0.529080 0.687230 -0.366350
O19   O     O_3   0.236990 0.970920 0.187230 -0.366352
O20   O     O_3   0.763010 0.029080 0.812770 -0.366352
V1    V     V_3+5 0.247590 0.194450 0.238360 1.516908
V2    V     V_3+5 0.752410 0.805550 0.761640 1.516908
V3    V     V_3+5 0.252410 0.694450 0.261640 1.516911
V4    V     V_3+5 0.747590 0.305550 0.738360 1.516911
C13   C     C_R   0.114981 0.992974 0.426550 -0.128803
C14   C     C_R   0.885019 0.007025 0.573449 -0.128804
C15   C     C_R   0.385019 0.492975 0.073450 -0.128801
C16   C     C_R   0.614981 0.507025 0.926551 -0.128802
C17   C     C_R   0.921136 0.805915 0.455703 -0.120128
C18   C     C_R   0.078864 0.194085 0.544297 -0.120129
C19   C     C_R   0.578866 0.305921 0.044301 -0.120126
C20   C     C_R   0.421134 0.694079 0.955699 -0.120127
C21   C     C_R   0.869151 0.849424 0.507823 -0.120003
C22   C     C_R   0.130849 0.150576 0.492177 -0.120003
C23   C     C_R   0.630851 0.349428 0.992180 -0.120005
C24   C     C_R   0.369149 0.650572 0.007820 -0.120005
C25   C     C_R   0.954504 0.126386 0.585321 -0.051831
C26   C     C_R   0.045496 0.873614 0.414679 -0.051832
C27   C     C_R   0.545495 0.626382 0.914677 -0.051828
C28   C     C_R   0.454505 0.373618 0.085323 -0.051828
C29   C     C_R   0.008402 0.081021 0.532775 0.065764
C30   C     C_R   0.991598 0.918979 0.467225 0.065764
C31   C     C_R   0.491597 0.581018 0.967223 0.065765
C32   C     C_R   0.508403 0.418982 0.032777 0.065765
H1    H     H_    0.906021 0.680402 0.407462 0.143748
H2    H     H_    0.093979 0.319598 0.592538 0.143747
H3    H     H_    0.593983 0.180412 0.092545 0.143744
H4    H     H_    0.406017 0.819587 0.907455 0.143743
C33   C     C_2   0.026516 0.710264 0.343260 0.724758
O21   O     O_2   0.067672 0.561535 0.363477 -0.554407
O22   O     O_R   0.960821 0.726389 0.253640 -0.668839
H5    H     H_    0.953867 0.605762 0.211070 0.287946
C34   C     C_2   0.973484 0.289735 0.656740 0.724758
O23   O     O_2   0.932328 0.438466 0.636523 -0.554407
O24   O     O_R   0.039178 0.273609 0.746360 -0.668839
H6    H     H_    0.046132 0.394236 0.788931 0.287947
C35   C     C_2   0.473487 0.210274 0.156746 0.724760
O25   O     O_2   0.432336 0.061537 0.136528 -0.554405
O26   O     O_R   0.539178 0.226414 0.246368 -0.668838
H7    H     H_    0.546133 0.105790 0.288941 0.287947
C36   C     C_2   0.526513 0.789726 0.843254 0.724761
O27   O     O_2   0.567663 0.938464 0.863472 -0.554406
O28   O     O_R   0.460823 0.773583 0.753631 -0.668838
H8    H     H_    0.453867 0.894207 0.711058 0.287947
H9    H     H_    0.183440 0.244334 0.501737 0.143667
H10   H     H_    0.816560 0.755665 0.498262 0.143667
H11   H     H_    0.316557 0.744327 0.998258 0.143660
H12   H     H_    0.683443 0.255673 0.001742 0.143660

loop_
_geom_bond_atom_site_label_1
_geom_bond_atom_site_label_2
_ccdc_geom_bond_type
C2    C11   S    
C16   C23   A    
C31   C32   A    
O1    C5    A    
C36   O27   D    
O3    C7    A    
C18   H2    S    
C14   C25   A    
C29   C30   A    
O7    C3    A    
C26   C30   A    
C25   C34   S    
O20   V4    S    
C24   H11   S    
C18   C29   A    
O8    V4    S    
O4    C8    A    
O3    V1    S    
O17   V1    S    
C35   O26   S    
C18   C22   A    
C33   O22   S    
C14   C21   A    
C28   C35   S    
C1    O15   A    
C2    O16   A    
C34   O24   S    
O5    V1    S    
O2    C6    A    
C8    C14   S    
O19   V1    S    
C21   H10   S    
C19   H3    S    
O11   C7    A    
C15   C28   A    
O12   C8    A    
O9    V1    S    
C36   O28   S    
C35   O25   D    
O13   V1    S    
C23   H12   S    
O11   V3    S    
O4    V2    S    
O18   V2    S    
O24   H6    S    
C3    C10   S    
C9    C10   T    
C7    C13   S    
O6    V2    S    
O20   V2    S    
O28   H8    S    
O5    C1    A    
C5    C15   S    
O8    C4    A    
C6    C16   S    
O9    C5    A    
O14   V2    S    
O19   V3    S    
O1    V3    S    
O2    V4    S    
C3    O13   A    
O7    V3    S    
C27   C36   S    
O10   V2    S    
C22   H9    S    
C16   C27   A    
O17   V3    S    
O18   V4    S    
C4    C9    S    
O10   C6    A    
C17   H1    S    
O26   H7    S    
O15   V3    S    
O12   V4    S    
C13   C26   A    
C20   C31   A    
C20   H4    S    
C25   C29   A    
C27   C31   A    
C33   O21   D    
C17   C30   A    
O6    C2    A    
O22   H5    S    
O16   V4    S    
C28   C32   A    
C19   C32   A    
C34   O23   D    
C4    O14   A    
C11   C12   T    
C26   C33   S    
C17   C21   A    
C13   C22   A    
C19   C23   A    
C20   C24   A    
C1    C12   S    
C15   C24   A    
