data_mof_unit_6635.cif
_audit_creation_date              2012-12-10T17:49:40-0500
_audit_creation_method            fapswitch 2.2
_symmetry_space_group_name_H-M    P1
_symmetry_Int_Tables_number       1
_space_group_crystal_system       triclinic
_cell_length_a                    10.547462
_cell_length_b                    10.594346
_cell_length_c                    9.947832
_cell_angle_alpha                 90.993469
_cell_angle_beta                  89.467072
_cell_angle_gamma                 93.787365
_cell_volume                      1108.9737128

loop_
_atom_site_label
_atom_site_type_symbol
_atom_type_description
_atom_site_fract_x
_atom_site_fract_y
_atom_site_fract_z
_atom_type_partial_charge
C1    C     C_R   0.521400 0.263308 0.499105 0.849397
C2    C     C_R   0.600154 0.075385 0.617066 0.023454
C3    C     C_R   0.565445 0.135589 0.497038 -0.134308
C4    C     C_R   0.257448 0.495975 0.499534 0.867555
C5    C     C_R   0.567567 0.067034 0.373922 -0.015879
C6    C     C_R   0.547599 0.937583 0.377884 -0.318567
C7    C     C_R   0.554243 0.875396 0.499816 -0.086364
C8    C     C_R   0.370919 0.302964 0.140808 -0.082452
C9    C     C_R   0.337869 0.188793 0.076032 -0.200641
C10   C     C_R   0.350230 0.179696 0.937712 -0.236028
C11   C     C_R   0.376297 0.290466 0.865078 0.007026
C12   C     C_3   0.965534 0.598839 0.439437 -0.183885
C13   C     C_R   0.440385 0.398104 0.928350 0.141592
C14   C     C_R   0.438818 0.400858 0.072433 0.177656
C15   C     C_R   0.556320 0.596739 0.072614 -0.094547
C16   C     C_R   0.515117 0.740852 0.500709 0.918892
C17   C     C_R   0.554458 0.597468 0.930104 -0.102924
C18   C     C_R   0.742097 0.496669 0.499576 0.946062
C19   C     C_3   0.033584 0.384916 0.554326 -0.164034
C20   C     C_3   0.949137 0.390318 0.428053 -0.181471
C21   C     C_3   0.876770 0.493314 0.499057 -0.042487
C22   C     C_3   0.959119 0.487850 0.624019 0.047780
C23   C     C_3   0.040083 0.495926 0.370690 0.010591
C24   C     C_3   0.049045 0.594021 0.566446 -0.225889
C25   C     C_2   0.751967 0.779298 0.688449 0.410446
C26   C     C_2   0.274431 0.306250 0.770661 0.538528
C27   C     C_2   0.917349 0.483252 0.768280 0.554658
C28   C     C_2   0.085511 0.502111 0.227589 0.431576
C29   C     C_2   0.596887 0.123311 0.240789 0.431495
C30   C     C_3   0.122191 0.491398 0.496410 -0.066699
C31   C     C_R   0.639289 0.142386 0.736102 -0.131324
C32   C     C_R   0.677319 0.078833 0.848524 -0.103252
C33   C     C_R   0.695368 0.950567 0.839063 -0.281146
C34   C     C_R   0.671995 0.885302 0.717587 0.022714
C35   C     C_R   0.605808 0.942808 0.613523 0.105218
H1    H     H_    0.904617 0.307869 0.371570 0.205004
H2    H     H_    0.294060 0.110356 0.131796 0.149771
H3    H     H_    0.309327 0.094753 0.888061 0.144241
H4    H     H_    0.267682 0.250206 0.678300 0.000350
H5    H     H_    0.060262 0.294895 0.597713 0.168192
H6    H     H_    0.937095 0.564671 0.834159 0.034333
H7    H     H_    0.147360 0.581834 0.195172 0.058046
H8    H     H_    0.561917 0.075035 0.150041 0.042412
H9    H     H_    0.649735 0.243929 0.743587 0.214986
H10   H     H_    0.705307 0.131614 0.938800 0.194979
H11   H     H_    0.530319 0.885331 0.284416 0.158681
H12   H     H_    0.596558 0.678324 0.878895 0.117538
H13   H     H_    0.092530 0.676660 0.623476 0.152170
H14   H     H_    0.936394 0.684704 0.388742 0.185599
H15   H     H_    0.741904 0.906314 0.920914 0.133746
H16   H     H_    0.785747 0.722865 0.768879 0.026076
H17   H     H_    0.602674 0.676039 0.126778 0.135611
H18   H     H_    0.339522 0.313718 0.242608 0.187830
N1    N     N_R   0.498800 0.498800 0.142780 -0.115173
N2    N     N_R   0.498760 0.498720 0.857170 -0.121236
O1    O     O_R   0.500000 0.316780 0.614690 -0.678439
O2    O     O_2   0.189235 0.373627 0.802976 -0.567184
O3    O     O_2   0.860389 0.388508 0.812004 -0.563224
O4    O     O_2   0.053171 0.418139 0.147147 -0.522132
O5    O     O_2   0.668316 0.218198 0.230207 -0.546312
O6    O     O_R   0.499990 0.316750 0.385360 -0.604953
O7    O     O_R   0.313960 0.499980 0.614650 -0.585749
O8    O     O_R   0.313940 0.499960 0.385310 -0.663106
O9    O     O_R   0.500010 0.683250 0.614640 -0.631185
O10   O     O_R   0.500000 0.683220 0.385310 -0.627641
O11   O     O_R   0.686060 0.500040 0.614690 -0.630368
O12   O     O_R   0.686040 0.500020 0.385350 -0.582951
O13   O     O_2   0.790426 0.761610 0.574378 -0.632200
Zn1   Zn    Zn3+2 0.500010 0.500020 0.653130 0.958058
Zn2   Zn    Zn3+2 0.499990 0.499980 0.346870 0.971485

loop_
_geom_bond_atom_site_label_1
_geom_bond_atom_site_label_2
_ccdc_geom_bond_type
C2    C35   A    
C8    H18   S    
O8    Zn2   S    
C6    C7    A    
C23   C30   S    
C16   O9    A    
C2    C3    A    
C18   O11   A    
C18   C21   S    
C25   H16   S    
C9    C10   A    
C27   H6    S    
C31   C32   A    
N1    Zn2   S    
C20   C23   S    
C25   C34   S    
C10   H3    S    
O12   Zn2   S    
C10   C11   A    
C32   C33   A    
C19   C20   S    
C9    H2    S    
C33   C34   A    
C33   H15   S    
C15   H17   S    
O6    Zn2   S    
C13   C14   A    
C29   H8    S    
C11   C13   A    
C12   C23   S    
N2    Zn1   S    
C25   O13   D    
C4    O8    A    
C17   N2    A    
C21   C22   S    
C7    C16   S    
C14   N1    A    
C1    O1    A    
C12   H14   S    
C5    C29   S    
C22   C27   S    
C5    C6    A    
C32   H10   S    
C26   O2    D    
C22   C24   S    
C26   H4    S    
C24   C30   S    
C23   C28   S    
C19   H5    S    
C1    O6    A    
O10   Zn2   S    
O11   Zn1   S    
C15   N1    A    
C4    O7    A    
C19   C22   S    
C20   C21   S    
C8    C9    A    
C15   C17   A    
C34   C35   A    
C31   H9    S    
C28   O4    D    
C28   H7    S    
O1    Zn1   S    
C12   C24   S    
C29   O5    D    
C20   H1    S    
C8    C14   A    
C16   O10   A    
C6    H11   S    
C11   C26   S    
C3    C5    A    
C18   O12   A    
O9    Zn1   S    
C19   C30   S    
C7    C35   A    
C12   C21   S    
C4    C30   S    
C17   H12   S    
O7    Zn1   S    
C13   N2    A    
C2    C31   A    
C1    C3    S    
C27   O3    D    
C24   H13   S    
