data_mof_unit_60527.cif
_audit_creation_date              2012-12-10T17:20:39-0500
_audit_creation_method            fapswitch 2.2
_symmetry_space_group_name_H-M    P1
_symmetry_Int_Tables_number       1
_space_group_crystal_system       triclinic
_cell_length_a                    10.177602
_cell_length_b                    10.48913
_cell_length_c                    13.643933
_cell_angle_alpha                 91.665321
_cell_angle_beta                  75.543578
_cell_angle_gamma                 94.328196
_cell_volume                      1406.32835444

loop_
_atom_site_label
_atom_site_type_symbol
_atom_type_description
_atom_site_fract_x
_atom_site_fract_y
_atom_site_fract_z
_atom_type_partial_charge
Br1   Br    Br    0.663365 0.147658 0.313399 -0.470139
Br2   Br    Br    0.380962 0.842799 0.346045 -0.458137
C1    C     C_R   0.555694 0.734315 0.487634 0.950167
C2    C     C_2   0.074228 0.488575 0.491147 -0.093282
C3    C     C_1   0.449275 0.508403 0.882044 0.019703
C4    C     C_1   0.550839 0.492088 0.117995 0.046892
C5    C     C_2   0.584092 0.869347 0.464510 -0.420174
C6    C     C_2   0.422760 0.129190 0.483028 -0.427655
C7    C     C_2   0.506802 0.928591 0.415271 0.272822
C8    C     C_2   0.515483 0.066600 0.414251 0.270840
C9    C     C_R   0.445907 0.265363 0.500142 0.953400
C10   C     C_R   0.477468 0.503456 0.688143 0.886078
C11   C     C_R   0.522531 0.496535 0.311857 0.930147
C12   C     C_1   0.538574 0.494015 0.206798 -0.110399
C13   C     C_1   0.461481 0.506224 0.793232 -0.167125
C14   C     C_2   0.556607 0.491181 0.013723 -0.150283
C15   C     C_2   0.443566 0.509556 0.986322 -0.141251
C16   C     C_2   0.925889 0.511668 0.508628 -0.121542
H1    H     H_    0.108412 0.619310 0.591509 0.171569
H2    H     H_    0.891519 0.380577 0.408565 0.194846
H3    H     H_    0.348246 0.525120 0.041211 0.172147
H4    H     H_    0.651922 0.475589 0.958841 0.164229
H5    H     H_    0.334717 0.077670 0.531300 0.150754
H6    H     H_    0.662043 0.923072 0.493629 0.151160
H7    H     H_    0.117170 0.416701 0.436024 0.168341
H8    H     H_    0.883018 0.583690 0.563632 0.164790
N1    N     N_2   0.847200 0.448220 0.460120 -0.176994
N2    N     N_2   0.152800 0.551780 0.539880 -0.176408
O1    O     O_R   0.430150 0.692610 0.508030 -0.567898
O2    O     O_R   0.569850 0.307390 0.491970 -0.566243
O3    O     O_R   0.653100 0.659360 0.482430 -0.603398
O4    O     O_R   0.346900 0.340640 0.517570 -0.608470
O5    O     O_R   0.372470 0.518990 0.654990 -0.605204
O6    O     O_R   0.627530 0.481010 0.345010 -0.583618
O7    O     O_R   0.595430 0.485740 0.629390 -0.609891
O8    O     O_R   0.404570 0.514260 0.370610 -0.589217
Zn1   Zn    Zn3+2 0.351130 0.522200 0.517090 0.986824
Zn2   Zn    Zn3+2 0.648870 0.477800 0.482910 0.992621

loop_
_geom_bond_atom_site_label_1
_geom_bond_atom_site_label_2
_ccdc_geom_bond_type
C10   C13   S    
H2    N1    S    
C4    C12   T    
C7    C8    S    
C16   H8    S    
O3    Zn2   S    
C2    C16   S    
O7    Zn2   S    
C2    H7    S    
C11   O6    A    
O6    Zn2   S    
C11   C12   S    
C10   O7    A    
C1    O3    A    
H1    N2    S    
N2    Zn1   S    
C6    C9    S    
O8    Zn1   S    
C2    N2    D    
C9    O4    A    
C1    C5    S    
C15   H3    S    
C3    C13   T    
C3    C15   S    
C16   N1    D    
N1    Zn2   S    
C4    C14   S    
C5    H6    S    
C5    C7    D    
C6    H5    S    
O2    Zn2   S    
C11   O8    A    
C6    C8    D    
O1    Zn1   S    
C1    O1    A    
C14   H4    S    
C10   O5    A    
O4    Zn1   S    
Br2   C7    S    
O5    Zn1   S    
Br1   C8    S    
C9    O2    A    
C14   C15   D    
