data_mof_unit_27649.cif
_audit_creation_date              2012-12-10T17:19:56-0500
_audit_creation_method            fapswitch 2.2
_symmetry_space_group_name_H-M    P1
_symmetry_Int_Tables_number       1
_space_group_crystal_system       triclinic
_cell_length_a                    9.622094
_cell_length_b                    10.858236
_cell_length_c                    15.482478
_cell_angle_alpha                 85.359181
_cell_angle_beta                  73.939554
_cell_angle_gamma                 88.906434
_cell_volume                      1549.35374701

loop_
_atom_site_label
_atom_site_type_symbol
_atom_type_description
_atom_site_fract_x
_atom_site_fract_y
_atom_site_fract_z
_atom_type_partial_charge
C1    C     C_R   0.003578 0.262054 0.497898 0.782194
C2    C     C_R   0.665319 0.541350 0.900678 0.094760
C3    C     C_R   0.757715 0.600150 0.941932 0.048144
C4    C     C_R   0.515410 0.527999 0.945919 -0.089762
C5    C     C_R   0.464212 0.557704 0.036922 0.001231
C6    C     C_R   0.556909 0.624523 0.073537 0.732552
C7    C     C_R   0.701628 0.643418 0.026904 -0.215700
C8    C     C_R   0.413957 0.491570 0.901968 -0.226114
C9    C     C_R   0.267980 0.479071 0.947066 0.715488
C10   C     C_R   0.219026 0.494443 0.039477 -0.293018
C11   C     C_R   0.319445 0.525928 0.086182 -0.162892
C12   C     C_R   0.917835 0.502520 0.671810 0.769689
C13   C     C_R   0.072580 0.475284 0.086849 0.584459
C14   C     C_R   0.026626 0.482598 0.179828 0.491695
C15   C     C_R   0.274836 0.514855 0.181092 0.658113
C16   C     C_R   0.264659 0.104506 0.514271 -0.295732
C17   C     C_R   0.362499 0.035529 0.549949 0.596420
C18   C     C_R   0.326234 0.916883 0.589297 0.541077
C19   C     C_R   0.198337 0.863201 0.585235 -0.367316
C20   C     C_R   0.104820 0.927948 0.541113 0.032666
C21   C     C_R   0.127035 0.055695 0.517471 0.044506
C22   C     C_R   0.010898 0.126718 0.497791 -0.087088
C23   C     C_R   0.995810 0.736074 0.507704 0.868728
C24   C     C_R   0.890131 0.066075 0.487103 -0.080769
C25   C     C_R   0.883126 0.938703 0.493928 -0.074063
C26   C     C_R   0.991451 0.868644 0.518318 -0.093426
C27   C     C_R   0.685616 0.691290 0.394803 0.498056
C28   C     C_R   0.627551 0.796329 0.361868 0.403382
C29   C     C_R   0.485581 0.797337 0.362286 0.436041
C30   C     C_R   0.401511 0.692832 0.394725 0.542705
C31   C     C_R   0.446257 0.593487 0.448326 -0.062709
C32   C     C_R   0.596198 0.593168 0.448363 -0.128597
C33   C     C_R   0.552984 0.414057 0.550302 0.750581
C34   C     C_R   0.082299 0.498804 0.327665 1.015645
C35   C     C_R   0.405603 0.414200 0.550148 -0.089585
C36   C     C_R   0.870532 0.522939 0.768006 -0.072882
C37   C     C_R   0.127810 0.499360 0.228267 -0.422413
C38   C     C_R   0.904407 0.619441 0.896112 0.007832
C39   C     C_R   0.960256 0.582072 0.809223 -0.102522
C40   C     C_R   0.726191 0.498582 0.815125 -0.153953
Cu1   Cu    Cu3+1 0.140660 0.499990 0.500010 1.050855
Cu2   Cu    Cu3+1 0.859340 0.500010 0.499990 1.117178
H1    H     H_    0.769689 0.694372 0.056959 0.199472
H2    H     H_    0.173184 0.771096 0.617453 0.190931
H3    H     H_    0.333460 0.344122 0.591801 0.164678
H4    H     H_    0.071843 0.603202 0.773273 0.169724
H5    H     H_    0.663208 0.446471 0.782944 0.174887
N1    N     N_R   0.648320 0.501210 0.499140 -0.203110
N2    N     N_R   0.352470 0.501290 0.499110 -0.191239
O1    O     O_R   0.118810 0.319640 0.500010 -0.615022
O2    O     O_R   0.881240 0.319660 0.500000 -0.527906
O3    O     O_R   0.055570 0.499980 0.629840 -0.597618
O4    O     O_R   0.818000 0.500010 0.629830 -0.560625
O5    O     O_R   0.118760 0.680340 0.500000 -0.553761
O6    O     O_R   0.881190 0.680360 0.499990 -0.551517
O7    O     O_R   0.182000 0.499990 0.370170 -0.463423
O8    O     O_R   0.944430 0.500020 0.370160 -0.468619
F1    F     F_    0.973254 0.447212 0.043958 -0.566082
H6    H     H_    0.801629 0.117230 0.470933 0.232823
H7    H     H_    0.304392 0.192226 0.480081 0.221392
F2    F     F_    0.492279 0.084893 0.547083 -0.614519
F3    F     F_    0.417825 0.851511 0.628029 -0.646394
H8    H     H_    0.793021 0.895145 0.479129 0.203820
F4    F     F_    0.599166 0.326263 0.603195 -0.621778
F5    F     F_    0.829123 0.686333 0.360908 -0.567087
F6    F     F_    0.715092 0.891319 0.317434 -0.539293
F7    F     F_    0.376137 0.503179 0.227362 -0.558839
F8    F     F_    0.434232 0.893624 0.318639 -0.522437
F9    F     F_    0.289000 0.690218 0.359859 -0.539878
F10   F     F_    0.883958 0.465435 0.222597 -0.556893
F11   F     F_    0.176393 0.445673 0.900228 -0.619633
H9    H     H_    0.975116 0.666163 0.926704 0.154866
F12   F     F_    0.505607 0.684724 0.149441 -0.563741
H10   H     H_    0.442961 0.477782 0.831045 0.171369

loop_
_geom_bond_atom_site_label_1
_geom_bond_atom_site_label_2
_ccdc_geom_bond_type
C8    C9    A    
C40   H5    S    
C34   O7    A    
C16   C21   A    
C34   C37   S    
C14   F10   S    
Cu1   Cu2   S    
C2    C4    A    
C19   C20   A    
C4    C8    A    
C6    F12   S    
C28   C29   A    
C5    C11   A    
C3    C7    A    
C33   F4    S    
Cu2   O4    S    
C25   H8    S    
C5    C6    A    
C18   C19   A    
C16   H7    S    
C23   C26   S    
C15   C37   A    
C17   F2    S    
C11   C15   A    
C3    C38   A    
C16   C17   A    
C35   N2    A    
C34   O8    A    
C7    H1    S    
C12   C36   S    
C1    O1    A    
Cu1   O3    S    
C12   O4    A    
Cu2   O2    S    
C1    C22   S    
C21   C22   A    
C32   N1    A    
C31   N2    A    
Cu2   O8    S    
Cu1   N2    S    
C12   O3    A    
C38   C39   A    
C38   H9    S    
C36   C40   A    
C24   C25   A    
C18   F3    S    
C13   F1    S    
C25   C26   A    
C28   F6    S    
Cu1   O7    S    
C29   C30   A    
C27   F5    S    
Cu2   O6    S    
C29   F8    S    
C31   C32   A    
C15   F7    S    
C8    H10   S    
C17   C18   A    
Cu2   N1    S    
C1    O2    A    
C39   H4    S    
C22   C24   A    
C35   H3    S    
Cu1   O1    S    
C30   F9    S    
C19   H2    S    
C23   O5    A    
C9    C10   A    
C27   C32   A    
C36   C39   A    
C9    F11   S    
C4    C5    A    
C10   C13   A    
C23   O6    A    
C6    C7    A    
C2    C3    A    
C14   C37   A    
C30   C31   A    
C20   C26   A    
C24   H6    S    
C33   C35   A    
Cu1   O5    S    
C10   C11   A    
C2    C40   A    
C20   C21   A    
C27   C28   A    
C33   N1    A    
C13   C14   A    
