data_mof_unit_63476.cif
_audit_creation_date              2012-12-10T18:07:47-0500
_audit_creation_method            fapswitch 2.2
_symmetry_space_group_name_H-M    P1
_symmetry_Int_Tables_number       1
_space_group_crystal_system       triclinic
_cell_length_a                    10.701163
_cell_length_b                    12.755639
_cell_length_c                    13.921422
_cell_angle_alpha                 97.994902
_cell_angle_beta                  90.289182
_cell_angle_gamma                 92.667688
_cell_volume                      1879.63982801

loop_
_atom_site_label
_atom_site_type_symbol
_atom_type_description
_atom_site_fract_x
_atom_site_fract_y
_atom_site_fract_z
_atom_type_partial_charge
C1    C     C_R   0.498073 0.483535 0.315988 0.879484
C2    C     C_R   0.501927 0.516465 0.684012 0.879484
C3    C     C_2   0.463866 0.028428 0.473949 -0.257229
C4    C     C_2   0.536134 0.971572 0.526051 -0.257229
C5    C     C_1   0.525811 0.854533 0.518991 0.228353
C6    C     C_1   0.474189 0.145467 0.481009 0.228353
C7    C     C_R   0.259434 0.500870 0.499953 0.911232
C8    C     C_R   0.740565 0.499130 0.500047 0.911232
C9    C     C_3   0.038732 0.443608 0.418174 -0.067422
C10   C     C_3   0.961268 0.556392 0.581826 -0.067422
C11   C     C_3   0.959277 0.542022 0.423371 -0.065010
C12   C     C_3   0.040723 0.457978 0.576629 -0.065010
C13   C     C_3   0.876201 0.497923 0.499963 -0.067335
C14   C     C_3   0.123799 0.502077 0.500036 -0.067335
C15   C     C_3   0.955252 0.399430 0.494764 0.076736
C16   C     C_3   0.044748 0.600570 0.505236 0.076736
C17   C     C_1   0.506664 0.525872 0.787008 -0.122344
C18   C     C_1   0.493336 0.474128 0.212992 -0.122344
C19   C     C_2   0.517479 0.542223 0.977823 0.159989
C20   C     C_2   0.482521 0.457777 0.022177 0.159989
C21   C     C_1   0.488381 0.465937 0.126198 0.023380
C22   C     C_1   0.511619 0.534063 0.873802 0.023380
Cu1   Cu    Cu3+1 0.491940 0.395330 0.493960 1.033195
Cu2   Cu    Cu3+1 0.508060 0.604670 0.506040 1.033195
H1    H     H_    0.605888 0.013369 0.575959 0.164620
H2    H     H_    0.394112 0.986630 0.424041 0.164620
N1    N     N_1   0.479830 0.238040 0.484880 -0.153956
N2    N     N_1   0.520170 0.761960 0.515120 -0.153956
O1    O     O_R   0.492210 0.399110 0.356330 -0.565095
O2    O     O_R   0.507790 0.600890 0.643670 -0.565095
O3    O     O_R   0.505820 0.575890 0.366540 -0.567359
O4    O     O_R   0.494180 0.424110 0.633460 -0.567359
O5    O     O_R   0.310050 0.411620 0.494870 -0.524270
O6    O     O_R   0.689950 0.588380 0.505130 -0.524270
O7    O     O_R   0.323660 0.588400 0.505080 -0.609834
O8    O     O_R   0.676340 0.411600 0.494920 -0.609834
C23   C     C_2   0.919022 0.589033 0.335867 0.340705
H3    H     H_    0.989303 0.619749 0.289895 0.081299
O9    O     O_2   0.808440 0.592634 0.315576 -0.552790
C24   C     C_2   0.080978 0.410967 0.664132 0.340705
H4    H     H_    0.010697 0.380251 0.710105 0.081299
O10   O     O_2   0.191560 0.407365 0.684424 -0.552790
C25   C     C_2   0.076688 0.380211 0.324844 0.342142
H5    H     H_    0.005202 0.340697 0.275365 0.082629
O11   O     O_2   0.186738 0.373031 0.303758 -0.549710
C26   C     C_2   0.923311 0.619789 0.675156 0.342142
H6    H     H_    0.994798 0.659303 0.724635 0.082629
O12   O     O_2   0.813262 0.626969 0.696242 -0.549710
C27   C     C_3   0.906940 0.284482 0.488823 -0.824155
H7    H     H_    0.987207 0.232156 0.486144 0.240314
H8    H     H_    0.850036 0.274283 0.553590 0.234018
H9    H     H_    0.848564 0.262273 0.422357 0.236883
C28   C     C_3   0.093060 0.715518 0.511177 -0.824155
H10   H     H_    0.012793 0.767844 0.513856 0.240314
H11   H     H_    0.151436 0.737727 0.577642 0.236883
H12   H     H_    0.149964 0.725717 0.446410 0.234018
C29   C     C_3   0.436131 0.353321 0.965911 -0.827832
H13   H     H_    0.412197 0.294226 0.015315 0.240041
H14   H     H_    0.350888 0.364651 0.923409 0.247062
H15   H     H_    0.509734 0.321000 0.915763 0.232260
C30   C     C_3   0.563868 0.646679 0.034089 -0.827832
H16   H     H_    0.587803 0.705774 0.984685 0.240041
H17   H     H_    0.490266 0.678999 0.084237 0.232260
H18   H     H_    0.649111 0.635349 0.076591 0.247062

loop_
_geom_bond_atom_site_label_1
_geom_bond_atom_site_label_2
_ccdc_geom_bond_type
C12   C24   S    
C30   H18   S    
C9    C14   S    
C10   C26   S    
C8    C13   S    
Cu1   N1    S    
C5    N2    T    
C25   O11   D    
C11   C16   S    
C3    H2    S    
C17   C22   T    
C12   C15   S    
C2    O2    A    
C25   H5    S    
C27   H9    S    
Cu1   O4    S    
C3    C6    S    
C19   C20   D    
C24   O10   D    
C4    H1    S    
C1    C18   S    
Cu2   O3    S    
C23   O9    D    
C10   C16   S    
C28   H10   S    
C2    C17   S    
C11   C13   S    
C9    C11   S    
C29   H13   S    
C23   H3    S    
C10   C12   S    
C19   C30   S    
Cu1   O1    S    
C1    O1    A    
C24   H4    S    
C12   C14   S    
Cu1   O8    S    
C26   O12   D    
C28   H11   S    
C13   C15   S    
C9    C15   S    
C30   H16   S    
C14   C16   S    
C29   H14   S    
Cu2   O7    S    
C9    C25   S    
C7    O5    A    
Cu1   Cu2   S    
C3    C4    D    
C18   C21   T    
Cu2   N2    S    
C1    O3    A    
C19   C22   S    
C20   C21   S    
Cu1   O5    S    
C2    O4    A    
C27   H7    S    
C8    O8    A    
C28   H12   S    
C11   C23   S    
C16   C28   S    
C29   H15   S    
C8    O6    A    
C27   H8    S    
C20   C29   S    
C26   H6    S    
C7    O7    A    
Cu2   O2    S    
C7    C14   S    
Cu2   O6    S    
C6    N1    T    
C15   C27   S    
C4    C5    S    
C30   H17   S    
C10   C13   S    
