data_mof_unit_63503.cif
_audit_creation_date              2012-12-10T17:48:23-0500
_audit_creation_method            fapswitch 2.2
_symmetry_space_group_name_H-M    P1
_symmetry_Int_Tables_number       1
_space_group_crystal_system       triclinic
_cell_length_a                    26.114573
_cell_length_b                    27.650669
_cell_length_c                    27.649496
_cell_angle_alpha                 89.873415
_cell_angle_beta                  89.920151
_cell_angle_gamma                 90.000963
_cell_volume                      19965.2296502

loop_
_atom_site_label
_atom_site_type_symbol
_atom_type_description
_atom_site_fract_x
_atom_site_fract_y
_atom_site_fract_z
_atom_type_partial_charge
C1    C     C_R   0.391416 0.002806 0.247331 0.528022
C2    C     C_R   0.891594 0.000982 0.250698 0.520486
C3    C     C_R   0.750015 0.000012 0.620820 0.498289
C4    C     C_R   0.749937 0.499981 0.379180 0.495558
C5    C     C_R   0.750053 0.500012 0.620821 0.493762
C6    C     C_R   0.250031 0.500002 0.379179 0.495198
C7    C     C_R   0.250015 0.500012 0.620820 0.498294
C8    C     C_R   0.749937 0.999981 0.879180 0.495557
C9    C     C_R   0.750053 0.000012 0.120821 0.493760
C10   C     C_R   0.250031 0.000002 0.879180 0.495198
C11   C     C_R   0.250015 0.000012 0.120820 0.498289
C12   C     C_R   0.249936 0.499980 0.879180 0.495557
C13   C     C_R   0.108380 0.000788 0.749463 0.530945
C14   C     C_R   0.250053 0.500012 0.120821 0.493760
C15   C     C_R   0.750031 0.500002 0.879180 0.495194
C16   C     C_R   0.750015 0.500012 0.120820 0.498289
C17   C     C_R   0.249970 0.129172 0.249988 0.494131
C18   C     C_R   0.250035 0.129187 0.749990 0.497186
C19   C     C_R   0.750035 0.129187 0.249991 0.497186
C20   C     C_R   0.749970 0.129172 0.749988 0.494131
C21   C     C_R   0.749970 0.629172 0.249988 0.494131
C22   C     C_R   0.750035 0.629187 0.749990 0.497185
C23   C     C_R   0.250035 0.629187 0.249991 0.497185
C24   C     C_R   0.108389 0.000963 0.251115 0.550308
C25   C     C_R   0.249970 0.629172 0.749988 0.494131
C26   C     C_R   0.249978 0.870781 0.250021 0.501534
C27   C     C_R   0.250017 0.870801 0.750024 0.487274
C28   C     C_R   0.750017 0.870801 0.250024 0.487274
C29   C     C_R   0.749978 0.870781 0.750021 0.501535
C30   C     C_R   0.749978 0.370781 0.250021 0.501534
C31   C     C_R   0.750017 0.370801 0.750024 0.487276
C32   C     C_R   0.250017 0.370801 0.250024 0.487274
C33   C     C_R   0.249978 0.370781 0.750021 0.501538
C34   C     C_1   0.249958 0.818996 0.250060 -0.002519
C35   C     C_R   0.391416 0.502805 0.747332 0.528024
C36   C     C_1   0.250027 0.819011 0.750067 -0.005659
C37   C     C_1   0.750027 0.819011 0.250067 -0.005660
C38   C     C_1   0.749958 0.818996 0.750060 -0.002519
C39   C     C_1   0.749958 0.318996 0.250060 -0.002519
C40   C     C_1   0.750027 0.319011 0.750067 -0.005656
C41   C     C_1   0.250027 0.319011 0.250067 -0.005660
C42   C     C_1   0.249958 0.318996 0.750060 -0.002517
C43   C     C_1   0.249995 0.775461 0.250043 -0.049894
C44   C     C_1   0.249991 0.775472 0.750050 -0.050078
C45   C     C_1   0.749991 0.775472 0.250050 -0.050078
C46   C     C_R   0.391594 0.500981 0.250698 0.520484
C47   C     C_1   0.749995 0.775461 0.750043 -0.049894
C48   C     C_1   0.749995 0.275461 0.250043 -0.049894
C49   C     C_1   0.749991 0.275472 0.750050 -0.050076
C50   C     C_1   0.249991 0.275472 0.250050 -0.050078
C51   C     C_1   0.249995 0.275461 0.750043 -0.049893
C52   C     C_1   0.250052 0.724505 0.249997 -0.051112
C53   C     C_1   0.249942 0.724506 0.750002 -0.050351
C54   C     C_1   0.749942 0.724506 0.250002 -0.050350
C55   C     C_1   0.750052 0.724505 0.749997 -0.051114
C56   C     C_1   0.750052 0.224505 0.249997 -0.051113
C57   C     C_R   0.608380 0.500789 0.749462 0.530944
C58   C     C_1   0.749942 0.224506 0.750002 -0.050350
C59   C     C_1   0.249942 0.224506 0.250002 -0.050351
C60   C     C_1   0.250053 0.224505 0.749997 -0.051112
C61   C     C_1   0.250076 0.680971 0.249970 -0.004991
C62   C     C_1   0.249926 0.680966 0.749972 -0.003302
C63   C     C_1   0.749926 0.680966 0.249971 -0.003301
C64   C     C_1   0.750076 0.680971 0.749970 -0.004994
C65   C     C_1   0.750076 0.180971 0.249970 -0.004994
C66   C     C_1   0.749926 0.180966 0.749972 -0.003301
C67   C     C_1   0.249926 0.180966 0.249971 -0.003301
C68   C     C_R   0.608390 0.500963 0.251115 0.550310
C69   C     C_1   0.250076 0.180971 0.749970 -0.004993
C70   C     C_3   0.030796 0.951346 0.227984 0.265327
C71   C     C_3   0.031169 0.992816 0.693072 0.266087
C72   C     C_3   0.969242 0.948345 0.233701 0.262060
C73   C     C_3   0.969824 0.001299 0.690790 0.255271
C74   C     C_3   0.530796 0.451344 0.227986 0.265327
C75   C     C_3   0.531169 0.492796 0.693074 0.266086
C76   C     C_3   0.469242 0.448343 0.233703 0.262062
C77   C     C_3   0.469823 0.501276 0.690791 0.255282
C78   C     C_3   0.530796 0.951347 0.727983 0.265328
C79   C     C_3   0.030262 0.009411 0.308078 0.229457
C80   C     C_3   0.531170 0.992820 0.193071 0.266087
C81   C     C_3   0.469242 0.948345 0.733700 0.262061
C82   C     C_3   0.469824 0.001303 0.190790 0.255269
C83   C     C_3   0.030796 0.451346 0.727984 0.265327
C84   C     C_3   0.031169 0.492819 0.193071 0.266085
C85   C     C_3   0.969242 0.448345 0.733701 0.262061
C86   C     C_3   0.969824 0.501302 0.190790 0.255271
C87   C     C_3   0.061123 0.905511 0.247598 -0.367589
C88   C     C_3   0.064460 0.022424 0.654917 -0.381039
C89   C     C_3   0.954319 0.903964 0.266818 -0.401393
C90   C     C_3   0.031247 0.054518 0.770329 0.236985
C91   C     C_3   0.954978 0.047081 0.659946 -0.421654
C92   C     C_3   0.561123 0.405510 0.247602 -0.367588
C93   C     C_3   0.564457 0.522391 0.654907 -0.381030
C94   C     C_3   0.454320 0.403965 0.266823 -0.401391
C95   C     C_3   0.454974 0.547046 0.659930 -0.421646
C96   C     C_3   0.561123 0.905511 0.747596 -0.367590
C97   C     C_3   0.564461 0.022431 0.154919 -0.381040
C98   C     C_3   0.454319 0.903964 0.766817 -0.401394
C99   C     C_3   0.454978 0.047087 0.159948 -0.421654
C100  C     C_3   0.061123 0.405511 0.747598 -0.367588
C101  C     C_3   0.968516 0.015709 0.305515 0.232399
C102  C     C_3   0.064460 0.522429 0.154918 -0.381042
C103  C     C_3   0.954319 0.403965 0.766819 -0.401392
C104  C     C_3   0.954978 0.547086 0.159949 -0.421656
C105  C     C_3   0.044172 0.912022 0.149441 -0.032488
C106  C     C_3   0.039379 0.926534 0.634949 -0.027935
C107  C     C_3   0.898406 0.923208 0.179861 -0.084535
C108  C     C_3   0.912851 0.961697 0.630195 -0.063607
C109  C     C_3   0.544172 0.412016 0.149445 -0.032488
C110  C     C_3   0.539381 0.426491 0.634977 -0.027940
C111  C     C_3   0.398406 0.423204 0.179865 -0.084535
C112  C     C_R   0.391594 0.000982 0.750698 0.520487
C113  C     C_3   0.969895 0.053104 0.774393 0.232573
C114  C     C_3   0.412861 0.461647 0.630204 -0.063611
C115  C     C_3   0.544172 0.912024 0.649440 -0.032488
C116  C     C_3   0.539379 0.926543 0.134942 -0.027932
C117  C     C_3   0.398407 0.923209 0.679860 -0.084535
C118  C     C_3   0.412849 0.961705 0.130193 -0.063606
C119  C     C_3   0.044172 0.412022 0.649442 -0.032488
C120  C     C_3   0.039379 0.426541 0.134945 -0.027936
C121  C     C_3   0.898407 0.423208 0.679861 -0.084535
C122  C     C_3   0.912850 0.461704 0.130194 -0.063610
C123  C     C_3   0.046287 0.968858 0.345730 -0.370403
C124  C     C_3   0.530262 0.509414 0.308077 0.229456
C125  C     C_3   0.053201 0.098745 0.740307 -0.374920
C126  C     C_3   0.941385 0.986932 0.348315 -0.336616
C127  C     C_3   0.944954 0.102036 0.755158 -0.369731
C128  C     C_3   0.546287 0.468864 0.345731 -0.370404
C129  C     C_3   0.553199 0.598740 0.740268 -0.374939
C130  C     C_3   0.441385 0.486938 0.348314 -0.336616
C131  C     C_3   0.444951 0.602036 0.755123 -0.369734
C132  C     C_3   0.546287 0.968857 0.845729 -0.370402
C133  C     C_3   0.553199 0.098745 0.240313 -0.374931
C134  C     C_3   0.441385 0.986931 0.848314 -0.336615
C135  C     C_3   0.531247 0.554526 0.770309 0.236980
C136  C     C_3   0.444953 0.102035 0.255165 -0.369723
C137  C     C_3   0.046287 0.468859 0.845730 -0.370403
C138  C     C_3   0.053201 0.598745 0.240312 -0.374909
C139  C     C_3   0.941385 0.486933 0.848314 -0.336615
C140  C     C_3   0.944954 0.602036 0.255162 -0.369732
C141  C     C_3   0.048887 0.097799 0.240355 -0.331699
C142  C     C_3   0.042416 0.964497 0.838566 -0.346090
C143  C     C_3   0.944658 0.094920 0.213892 -0.351270
C144  C     C_3   0.936234 0.945742 0.823495 -0.348271
C145  C     C_3   0.548887 0.597798 0.240349 -0.331696
C146  C     C_3   0.468515 0.515712 0.305513 0.232399
C147  C     C_3   0.542417 0.464530 0.838579 -0.346086
C148  C     C_3   0.444658 0.594917 0.213885 -0.351265
C149  C     C_3   0.436234 0.445769 0.823516 -0.348261
C150  C     C_3   0.548887 0.097800 0.740357 -0.331701
C151  C     C_3   0.542415 0.964490 0.338563 -0.346091
C152  C     C_3   0.444658 0.094921 0.713895 -0.351270
C153  C     C_3   0.436233 0.945736 0.323489 -0.348272
C154  C     C_3   0.048887 0.597799 0.740355 -0.331699
C155  C     C_3   0.042416 0.464494 0.338564 -0.346093
C156  C     C_3   0.944658 0.594920 0.713892 -0.351269
C157  C     C_3   0.469895 0.553113 0.774375 0.232571
C158  C     C_3   0.936233 0.445739 0.323491 -0.348274
C159  C     C_3   0.060602 0.081038 0.140871 -0.051901
C160  C     C_3   0.094973 0.894387 0.788835 -0.080572
C161  C     C_3   0.931746 0.044102 0.129549 -0.077077
C162  C     C_3   0.955523 0.868063 0.763736 -0.038452
C163  C     C_3   0.560601 0.581031 0.140865 -0.051900
C164  C     C_3   0.594977 0.394405 0.788872 -0.080584
C165  C     C_3   0.431745 0.544091 0.129546 -0.077082
C166  C     C_3   0.455525 0.368067 0.763787 -0.038459
C167  C     C_3   0.560602 0.081041 0.640872 -0.051902
C168  C     C_3   0.530262 0.009410 0.808079 0.229457
C169  C     C_3   0.594972 0.894383 0.288828 -0.080569
C170  C     C_3   0.431746 0.044105 0.629550 -0.077077
C171  C     C_3   0.455523 0.868061 0.263725 -0.038449
C172  C     C_3   0.060602 0.581038 0.640870 -0.051902
C173  C     C_3   0.094972 0.394385 0.288832 -0.080573
C174  C     C_3   0.931746 0.544101 0.629549 -0.077077
C175  C     C_3   0.955523 0.368062 0.263729 -0.038453
C176  C     C_3   0.096277 0.056260 0.352292 -0.122950
C177  C     C_3   0.056506 0.103550 0.840144 -0.064107
C178  C     C_3   0.911995 0.081398 0.333147 -0.125057
C179  C     C_3   0.531246 0.054516 0.270332 0.236987
C180  C     C_3   0.927195 0.079818 0.850559 -0.087499
C181  C     C_3   0.596277 0.556265 0.352287 -0.122948
C182  C     C_3   0.556510 0.603586 0.840103 -0.064101
C183  C     C_3   0.411995 0.581402 0.333142 -0.125056
C184  C     C_3   0.427204 0.579858 0.850534 -0.087504
C185  C     C_3   0.596277 0.056258 0.852293 -0.122948
C186  C     C_3   0.556519 0.103543 0.340149 -0.064113
C187  C     C_3   0.411995 0.081397 0.833148 -0.125059
C188  C     C_3   0.427203 0.079815 0.350566 -0.087498
C189  C     C_3   0.096277 0.556260 0.852291 -0.122950
C190  C     C_3   0.468516 0.015709 0.805515 0.232399
C191  C     C_3   0.056496 0.603545 0.340152 -0.064106
C192  C     C_3   0.911995 0.581398 0.833146 -0.125057
C193  C     C_3   0.927190 0.579811 0.350561 -0.087499
C194  C     C_3   0.469895 0.053102 0.274397 0.232582
C195  C     C_3   0.030262 0.509411 0.808078 0.229457
C196  C     C_R   0.608380 0.000788 0.249464 0.530947
C197  C     C_3   0.031246 0.554517 0.270331 0.236983
C198  C     C_3   0.968516 0.515710 0.805515 0.232399
C199  C     C_3   0.969894 0.553104 0.274395 0.232570
C200  C     C_3   0.031276 0.047190 0.218486 0.312148
C201  C     C_3   0.029525 0.958534 0.783050 0.292874
C202  C     C_3   0.970438 0.042337 0.211401 0.310632
C203  C     C_3   0.968345 0.955115 0.775314 0.310519
C204  C     C_3   0.531277 0.547188 0.218482 0.312150
C205  C     C_3   0.529525 0.458546 0.783066 0.292876
C206  C     C_3   0.470438 0.542334 0.211398 0.310630
C207  C     C_R   0.608390 0.000963 0.751115 0.550307
C208  C     C_3   0.468345 0.455124 0.775332 0.310516
C209  C     C_3   0.531276 0.047191 0.718487 0.312147
C210  C     C_3   0.529524 0.958531 0.283046 0.292873
C211  C     C_3   0.470438 0.042338 0.711403 0.310633
C212  C     C_3   0.468344 0.955113 0.275310 0.310519
C213  C     C_3   0.031276 0.547190 0.718485 0.312149
C214  C     C_3   0.029524 0.458533 0.283048 0.292872
C215  C     C_3   0.970438 0.542337 0.711401 0.310632
C216  C     C_3   0.968345 0.455114 0.275312 0.310518
C217  C     C_3   0.050548 0.001826 0.252470 0.034416
C218  C     C_R   0.891416 0.502806 0.247331 0.528022
C219  C     C_3   0.050454 0.002554 0.748648 0.047643
C220  C     C_3   0.949138 0.001856 0.251055 0.033784
C221  C     C_3   0.949370 0.004139 0.746813 0.044843
C222  C     C_3   0.550547 0.501826 0.252469 0.034415
C223  C     C_3   0.550454 0.502554 0.748647 0.047643
C224  C     C_3   0.449138 0.501855 0.251054 0.033783
C225  C     C_3   0.449370 0.504138 0.746813 0.044838
C226  C     C_3   0.550547 0.001827 0.752470 0.034415
C227  C     C_3   0.550454 0.002554 0.248648 0.047642
C228  C     C_3   0.449138 0.001856 0.751055 0.033783
C229  C     C_R   0.891594 0.500982 0.750698 0.520486
C230  C     C_3   0.449370 0.004139 0.246813 0.044841
C231  C     C_3   0.050547 0.501826 0.752470 0.034416
C232  C     C_3   0.050454 0.502554 0.248648 0.047645
C233  C     C_3   0.949138 0.501856 0.751055 0.033784
C234  C     C_3   0.949370 0.504140 0.246813 0.044846
C235  C     C_1   0.250052 0.000045 0.069026 -0.003935
C236  C     C_1   0.250082 0.000016 0.930975 -0.002248
C237  C     C_1   0.750097 0.000075 0.069026 -0.006449
C238  C     C_1   0.749870 0.999947 0.930975 -0.005597
C239  C     C_1   0.750052 0.500045 0.069026 -0.003935
C240  C     C_R   0.108380 0.500788 0.249463 0.530945
C241  C     C_1   0.750082 0.500016 0.930975 -0.002248
C242  C     C_1   0.250097 0.500075 0.069026 -0.006449
C243  C     C_1   0.249871 0.499947 0.930975 -0.005593
C244  C     C_1   0.750052 0.000045 0.569026 -0.003934
C245  C     C_1   0.750082 0.000016 0.430975 -0.002249
C246  C     C_1   0.250097 0.000075 0.569026 -0.006449
C247  C     C_1   0.249870 0.999947 0.430975 -0.005595
C248  C     C_1   0.250052 0.500045 0.569026 -0.003932
C249  C     C_1   0.250082 0.500016 0.430975 -0.002247
C250  C     C_1   0.750097 0.500075 0.569026 -0.006449
C251  C     C_R   0.108390 0.500963 0.751115 0.550307
C252  C     C_1   0.749871 0.499947 0.430975 -0.005597
C253  C     C_1   0.250087 0.000047 0.025485 -0.050089
C254  C     C_1   0.250100 0.000033 0.974517 -0.049116
C255  C     C_1   0.750035 0.000053 0.025484 -0.052246
C256  C     C_1   0.749922 0.999987 0.974516 -0.052047
C257  C     C_1   0.750087 0.500047 0.025485 -0.050088
C258  C     C_1   0.750100 0.500033 0.974517 -0.049116
C259  C     C_1   0.250035 0.500053 0.025484 -0.052246
C260  C     C_1   0.249922 0.499987 0.974516 -0.052045
C261  C     C_1   0.750087 0.000047 0.525485 -0.050089
C262  C     C_R   0.891416 0.002806 0.747332 0.528023
C263  C     C_1   0.750100 0.000033 0.474517 -0.049117
C264  C     C_1   0.250035 0.000053 0.525484 -0.052246
C265  C     C_1   0.249922 0.999987 0.474516 -0.052046
C266  C     C_1   0.250087 0.500047 0.525485 -0.050088
C267  C     C_1   0.250100 0.500033 0.474517 -0.049116
C268  C     C_1   0.750035 0.500052 0.525484 -0.052246
C269  C     C_1   0.749922 0.499987 0.474516 -0.052047
C270  C     C_R   0.249936 0.999981 0.379180 0.495558
C271  C     C_R   0.250053 0.000012 0.620821 0.493761
C272  C     C_R   0.750031 0.000002 0.379179 0.495199
H1    H     H_    0.100070 0.904082 0.231527 0.160482
H2    H     H_    0.956381 0.040135 0.620580 0.116813
H3    H     H_    0.039310 0.102169 0.703546 0.074318
H4    H     H_    0.042507 0.134293 0.755533 0.105569
H5    H     H_    0.095592 0.098493 0.739118 0.153708
H6    H     H_    0.899775 0.993117 0.351557 0.152689
H7    H     H_    0.945522 0.947556 0.347570 0.093116
H8    H     H_    0.956348 0.999745 0.383555 0.127343
H9    H     H_    0.958603 0.116048 0.720611 0.084020
H10   H     H_    0.902906 0.100451 0.751417 0.143947
H11   H     H_    0.953750 0.132538 0.779651 0.110221
H12   H     H_    0.526127 0.434592 0.343156 0.071769
H13   H     H_    0.915832 0.060002 0.668714 0.102195
H14   H     H_    0.587452 0.460438 0.346686 0.160268
H15   H     H_    0.537979 0.481176 0.383045 0.128481
H16   H     H_    0.539306 0.602151 0.703507 0.074329
H17   H     H_    0.542507 0.634295 0.755480 0.105571
H18   H     H_    0.595591 0.598486 0.739079 0.153677
H19   H     H_    0.399775 0.493122 0.351556 0.152686
H20   H     H_    0.445523 0.447561 0.347572 0.093115
H21   H     H_    0.456348 0.499753 0.383554 0.127344
H22   H     H_    0.458595 0.616033 0.720568 0.084019
H23   H     H_    0.402903 0.600449 0.751394 0.143942
H24   H     H_    0.981837 0.076890 0.661854 0.095302
H25   H     H_    0.453753 0.632549 0.779601 0.110219
H26   H     H_    0.526126 0.934586 0.843152 0.071768
H27   H     H_    0.587452 0.960431 0.846684 0.160270
H28   H     H_    0.537978 0.981166 0.883045 0.128479
H29   H     H_    0.539309 0.102172 0.203553 0.074323
H30   H     H_    0.542504 0.134293 0.255541 0.105567
H31   H     H_    0.595591 0.098495 0.239125 0.153703
H32   H     H_    0.399775 0.993115 0.851558 0.152690
H33   H     H_    0.445522 0.947554 0.847569 0.093115
H34   H     H_    0.456348 0.999743 0.883555 0.127343
H35   H     H_    0.600070 0.404080 0.231531 0.160484
H36   H     H_    0.458600 0.116047 0.220617 0.084015
H37   H     H_    0.402905 0.100453 0.251429 0.143962
H38   H     H_    0.453754 0.132537 0.279657 0.110217
H39   H     H_    0.026126 0.434588 0.843154 0.071769
H40   H     H_    0.087452 0.460434 0.846684 0.160269
H41   H     H_    0.037979 0.481169 0.883045 0.128479
H42   H     H_    0.039311 0.602172 0.203551 0.074313
H43   H     H_    0.042508 0.634293 0.255540 0.105569
H44   H     H_    0.095593 0.598493 0.239123 0.153717
H45   H     H_    0.899775 0.493117 0.851557 0.152689
H46   H     H_    0.567084 0.403383 0.286571 0.116902
H47   H     H_    0.945523 0.447556 0.847570 0.093115
H48   H     H_    0.956348 0.499746 0.883555 0.127343
H49   H     H_    0.958607 0.616052 0.220617 0.084021
H50   H     H_    0.902907 0.600450 0.251416 0.143943
H51   H     H_    0.953746 0.632536 0.279658 0.110221
H52   H     H_    0.026001 0.110276 0.271264 0.200666
H53   H     H_    0.089526 0.097769 0.251599 0.158887
H54   H     H_    0.044946 0.128582 0.215085 0.064051
H55   H     H_    0.018019 0.990516 0.857939 0.198136
H56   H     H_    0.036639 0.929960 0.858278 0.080714
H57   H     H_    0.542922 0.370917 0.237134 0.089576
H58   H     H_    0.082666 0.975731 0.844494 0.156261
H59   H     H_    0.946390 0.113728 0.248557 0.147879
H60   H     H_    0.963739 0.120099 0.188654 0.071525
H61   H     H_    0.904287 0.097468 0.202779 0.157975
H62   H     H_    0.933458 0.974981 0.849978 0.166312
H63   H     H_    0.896127 0.936001 0.814484 0.132921
H64   H     H_    0.951675 0.915003 0.844657 0.072197
H65   H     H_    0.525999 0.610277 0.271256 0.200665
H66   H     H_    0.589525 0.597769 0.251594 0.158892
H67   H     H_    0.544946 0.628579 0.215077 0.064051
H68   H     H_    0.543318 0.532571 0.621785 0.094115
H69   H     H_    0.518021 0.490556 0.857943 0.198137
H70   H     H_    0.536640 0.430000 0.858303 0.080714
H71   H     H_    0.582667 0.475765 0.844503 0.156277
H72   H     H_    0.446387 0.613727 0.248549 0.147881
H73   H     H_    0.463740 0.620095 0.188646 0.071522
H74   H     H_    0.404288 0.597464 0.202768 0.157975
H75   H     H_    0.433459 0.475018 0.849989 0.166326
H76   H     H_    0.396128 0.436024 0.814508 0.132921
H77   H     H_    0.451676 0.415038 0.844690 0.072193
H78   H     H_    0.526002 0.110275 0.771266 0.200667
H79   H     H_    0.585517 0.553651 0.668552 0.081287
H80   H     H_    0.589526 0.097769 0.751600 0.158886
H81   H     H_    0.544946 0.128582 0.715088 0.064052
H82   H     H_    0.518018 0.990506 0.357938 0.198140
H83   H     H_    0.536638 0.929952 0.358272 0.080713
H84   H     H_    0.582665 0.975723 0.344492 0.156256
H85   H     H_    0.446391 0.113729 0.748560 0.147878
H86   H     H_    0.463739 0.120100 0.688656 0.071526
H87   H     H_    0.404287 0.097469 0.702782 0.157974
H88   H     H_    0.433458 0.974972 0.349975 0.166315
H89   H     H_    0.396127 0.935995 0.314477 0.132922
H90   H     H_    0.597027 0.500241 0.641793 0.164544
H91   H     H_    0.451675 0.914995 0.344649 0.072197
H92   H     H_    0.026001 0.610276 0.771263 0.200666
H93   H     H_    0.089526 0.597769 0.751598 0.158887
H94   H     H_    0.044946 0.628581 0.715085 0.064051
H95   H     H_    0.018019 0.490512 0.357938 0.198138
H96   H     H_    0.036638 0.429957 0.358275 0.080713
H97   H     H_    0.082665 0.475727 0.344493 0.156259
H98   H     H_    0.946390 0.613728 0.748557 0.147879
H99   H     H_    0.963739 0.620098 0.688653 0.071525
H100  H     H_    0.904287 0.597468 0.702778 0.157975
H101  H     H_    0.415692 0.404790 0.282546 0.159970
H102  H     H_    0.933459 0.474976 0.349976 0.166307
H103  H     H_    0.896127 0.435998 0.314479 0.132922
H104  H     H_    0.951675 0.414998 0.344652 0.072199
H105  H     H_    0.094492 0.102997 0.151105 0.120235
H106  H     H_    0.025825 0.103505 0.139168 0.084629
H107  H     H_    0.067658 0.067493 0.103735 0.137801
H108  H     H_    0.123646 0.921900 0.799318 0.106658
H109  H     H_    0.114284 0.869604 0.763135 0.160054
H110  H     H_    0.083607 0.872303 0.820636 0.080688
H111  H     H_    0.944993 0.080807 0.119529 0.078650
H112  H     H_    0.067084 0.903381 0.286566 0.116901
H113  H     H_    0.455569 0.370285 0.244997 0.130008
H114  H     H_    0.891221 0.044330 0.141029 0.153645
H115  H     H_    0.933177 0.022398 0.095899 0.132331
H116  H     H_    0.916160 0.860275 0.776814 0.091579
H117  H     H_    0.983579 0.861794 0.793165 0.125007
H118  H     H_    0.964187 0.841608 0.734766 0.142949
H119  H     H_    0.594490 0.602992 0.151097 0.120233
H120  H     H_    0.525823 0.603496 0.139160 0.084633
H121  H     H_    0.567658 0.567483 0.103730 0.137803
H122  H     H_    0.583616 0.372334 0.820682 0.080695
H123  H     H_    0.623650 0.421924 0.799341 0.106657
H124  H     H_    0.480034 0.396751 0.296996 0.079231
H125  H     H_    0.614288 0.369613 0.763180 0.160041
H126  H     H_    0.444989 0.580797 0.119525 0.078651
H127  H     H_    0.391220 0.544317 0.141025 0.153644
H128  H     H_    0.433179 0.522387 0.095896 0.132332
H129  H     H_    0.416163 0.360283 0.776868 0.091570
H130  H     H_    0.483582 0.361810 0.793218 0.125014
H131  H     H_    0.464189 0.341602 0.734827 0.142953
H132  H     H_    0.594492 0.102999 0.651107 0.120236
H133  H     H_    0.525825 0.103508 0.639170 0.084627
H134  H     H_    0.567657 0.067496 0.603736 0.137800
H135  H     H_    0.456379 0.540086 0.620566 0.116805
H136  H     H_    0.583605 0.872297 0.320627 0.080685
H137  H     H_    0.623645 0.921895 0.299314 0.106660
H138  H     H_    0.614284 0.869602 0.263127 0.160054
H139  H     H_    0.444994 0.080810 0.619531 0.078649
H140  H     H_    0.391221 0.044334 0.641030 0.153645
H141  H     H_    0.433177 0.022402 0.595899 0.132330
H142  H     H_    0.416161 0.860272 0.276802 0.091580
H143  H     H_    0.483580 0.861789 0.293153 0.125005
H144  H     H_    0.464187 0.841609 0.234753 0.142947
H145  H     H_    0.094492 0.602997 0.651104 0.120235
H146  H     H_    0.415827 0.559967 0.668693 0.102206
H147  H     H_    0.025824 0.603504 0.639167 0.084629
H148  H     H_    0.067657 0.567492 0.603734 0.137801
H149  H     H_    0.083605 0.372301 0.320632 0.080687
H150  H     H_    0.123646 0.421897 0.299315 0.106661
H151  H     H_    0.114283 0.369602 0.263132 0.160052
H152  H     H_    0.944992 0.580806 0.619529 0.078649
H153  H     H_    0.891221 0.544329 0.641029 0.153645
H154  H     H_    0.933178 0.522397 0.595898 0.132330
H155  H     H_    0.916160 0.360275 0.276806 0.091581
H156  H     H_    0.983580 0.361792 0.293156 0.125008
H157  H     H_    0.481832 0.576857 0.661827 0.095295
H158  H     H_    0.964186 0.341610 0.234757 0.142949
H159  H     H_    0.127240 0.034979 0.335770 0.132441
H160  H     H_    0.090599 0.045604 0.390628 0.120936
H161  H     H_    0.109736 0.094295 0.352637 0.121470
H162  H     H_    0.024173 0.127813 0.831703 0.099795
H163  H     H_    0.093225 0.120891 0.829588 0.130570
H164  H     H_    0.057154 0.098555 0.879944 0.126406
H165  H     H_    0.910935 0.074848 0.372762 0.122760
H166  H     H_    0.878548 0.065076 0.314956 0.116200
H167  H     H_    0.908518 0.121080 0.328268 0.122379
H168  H     H_    0.600070 0.904083 0.731525 0.160481
H169  H     H_    0.890864 0.088800 0.832185 0.166689
H170  H     H_    0.947981 0.113348 0.859775 0.089660
H171  H     H_    0.916386 0.062796 0.885461 0.122771
H172  H     H_    0.627240 0.534984 0.335766 0.132436
H173  H     H_    0.590600 0.545612 0.390624 0.120936
H174  H     H_    0.609736 0.594301 0.352631 0.121470
H175  H     H_    0.524180 0.627848 0.831652 0.099781
H176  H     H_    0.593230 0.620921 0.829538 0.130574
H177  H     H_    0.557160 0.598608 0.879905 0.126406
H178  H     H_    0.410936 0.574855 0.372758 0.122760
H179  H     H_    0.567084 0.903381 0.786565 0.116901
H180  H     H_    0.378547 0.565079 0.314952 0.116201
H181  H     H_    0.408518 0.621084 0.328261 0.122380
H182  H     H_    0.390860 0.588815 0.832170 0.166708
H183  H     H_    0.447984 0.613401 0.859712 0.089653
H184  H     H_    0.416420 0.562862 0.885455 0.122753
H185  H     H_    0.627240 0.034978 0.835771 0.132442
H186  H     H_    0.590599 0.045601 0.890629 0.120935
H187  H     H_    0.609735 0.094293 0.852640 0.121470
H188  H     H_    0.524188 0.127811 0.331716 0.099781
H189  H     H_    0.593239 0.120878 0.329584 0.130583
H190  H     H_    0.542922 0.870919 0.737125 0.089575
H191  H     H_    0.557179 0.098547 0.379948 0.126404
H192  H     H_    0.410935 0.074846 0.872764 0.122761
H193  H     H_    0.378548 0.065075 0.814957 0.116199
H194  H     H_    0.408519 0.121079 0.828271 0.122379
H195  H     H_    0.390862 0.088787 0.332203 0.166698
H196  H     H_    0.447988 0.113350 0.359765 0.089665
H197  H     H_    0.416412 0.062802 0.385476 0.122758
H198  H     H_    0.127240 0.534980 0.835769 0.132440
H199  H     H_    0.090599 0.545604 0.890627 0.120935
H200  H     H_    0.109735 0.594295 0.852637 0.121470
H201  H     H_    0.543325 0.032626 0.121799 0.094121
H202  H     H_    0.024164 0.627807 0.331706 0.099801
H203  H     H_    0.093216 0.620891 0.329605 0.130564
H204  H     H_    0.057135 0.598546 0.379951 0.126408
H205  H     H_    0.910935 0.574848 0.872762 0.122760
H206  H     H_    0.878548 0.565076 0.814956 0.116200
H207  H     H_    0.908518 0.621081 0.828268 0.122379
H208  H     H_    0.890863 0.588799 0.332183 0.166688
H209  H     H_    0.947976 0.613338 0.359787 0.089655
H210  H     H_    0.916373 0.562783 0.385458 0.122777
H211  H     H_    0.585520 0.053686 0.168578 0.081285
H212  H     H_    0.042922 0.870918 0.237127 0.089576
H213  H     H_    0.597032 0.000286 0.141797 0.164528
H214  H     H_    0.415691 0.904789 0.782540 0.159969
H215  H     H_    0.455569 0.870287 0.744988 0.130006
H216  H     H_    0.480034 0.896748 0.796989 0.079232
H217  H     H_    0.456380 0.040143 0.120581 0.116815
H218  H     H_    0.415833 0.060008 0.168718 0.102193
H219  H     H_    0.481838 0.076896 0.161856 0.095302
H220  H     H_    0.100070 0.404082 0.731527 0.160481
H221  H     H_    0.067084 0.403381 0.786567 0.116901
H222  H     H_    0.042922 0.370918 0.737128 0.089576
H223  H     H_    0.043323 0.032616 0.621797 0.094120
H224  H     H_    0.043324 0.532622 0.121799 0.094121
H225  H     H_    0.085519 0.553685 0.168577 0.081283
H226  H     H_    0.097032 0.500284 0.141798 0.164529
H227  H     H_    0.915692 0.404789 0.782542 0.159969
H228  H     H_    0.955569 0.370286 0.744991 0.130007
H229  H     H_    0.980034 0.396749 0.796991 0.079232
H230  H     H_    0.956382 0.540142 0.120582 0.116815
H231  H     H_    0.915833 0.560007 0.168717 0.102192
H232  H     H_    0.981838 0.576895 0.161858 0.095305
H233  H     H_    0.033846 0.921311 0.111650 0.149877
H234  H     H_    0.085519 0.053680 0.668574 0.081284
H235  H     H_    0.016783 0.883922 0.161837 0.128499
H236  H     H_    0.083533 0.896909 0.148723 0.079550
H237  H     H_    0.017855 0.891976 0.633559 0.152442
H238  H     H_    0.078864 0.919134 0.622053 0.102334
H239  H     H_    0.020668 0.952217 0.609696 0.099122
H240  H     H_    0.876386 0.953150 0.163149 0.146895
H241  H     H_    0.878134 0.910709 0.212587 0.115671
H242  H     H_    0.897669 0.892718 0.153887 0.100951
H243  H     H_    0.933350 0.967423 0.595486 0.064284
H244  H     H_    0.882903 0.989578 0.635679 0.138883
H245  H     H_    0.097031 0.000279 0.641797 0.164531
H246  H     H_    0.892642 0.926568 0.627077 0.153364
H247  H     H_    0.533846 0.421303 0.111654 0.149876
H248  H     H_    0.516783 0.383916 0.161843 0.128499
H249  H     H_    0.583534 0.396903 0.148728 0.079550
H250  H     H_    0.517854 0.391934 0.633601 0.152443
H251  H     H_    0.578866 0.419083 0.622086 0.102342
H252  H     H_    0.520673 0.452165 0.609714 0.099106
H253  H     H_    0.376386 0.453147 0.163155 0.146890
H254  H     H_    0.378134 0.410704 0.212592 0.115674
H255  H     H_    0.397667 0.392715 0.153890 0.100953
H256  H     H_    0.915691 0.904789 0.282541 0.159969
H257  H     H_    0.433366 0.467361 0.595496 0.064276
H258  H     H_    0.382908 0.489528 0.635671 0.138914
H259  H     H_    0.392655 0.426516 0.627095 0.153340
H260  H     H_    0.533846 0.921314 0.611649 0.149877
H261  H     H_    0.516783 0.883924 0.661835 0.128498
H262  H     H_    0.583533 0.896911 0.648722 0.079550
H263  H     H_    0.517856 0.891985 0.133550 0.152441
H264  H     H_    0.578864 0.919144 0.122046 0.102332
H265  H     H_    0.520667 0.952228 0.109692 0.099124
H266  H     H_    0.376387 0.953151 0.663148 0.146897
H267  H     H_    0.955569 0.870286 0.244990 0.130007
H268  H     H_    0.378133 0.910711 0.712586 0.115671
H269  H     H_    0.397669 0.892719 0.653886 0.100949
H270  H     H_    0.433346 0.967432 0.095483 0.064286
H271  H     H_    0.382902 0.989587 0.135680 0.138877
H272  H     H_    0.392639 0.926577 0.127075 0.153369
H273  H     H_    0.033846 0.421311 0.611651 0.149876
H274  H     H_    0.016783 0.383922 0.661837 0.128498
H275  H     H_    0.083533 0.396908 0.648724 0.079550
H276  H     H_    0.017856 0.391982 0.133554 0.152442
H277  H     H_    0.078864 0.419142 0.122049 0.102334
H278  H     H_    0.980034 0.896749 0.296991 0.079232
H279  H     H_    0.020667 0.452224 0.109694 0.099125
H280  H     H_    0.876386 0.453149 0.663150 0.146895
H281  H     H_    0.878134 0.410709 0.712588 0.115672
H282  H     H_    0.897669 0.392718 0.653887 0.100950
H283  H     H_    0.933347 0.467432 0.095484 0.064286
H284  H     H_    0.882902 0.489585 0.135681 0.138881
H285  H     H_    0.892640 0.426575 0.127074 0.153368
H286  H     H_    0.026126 0.934587 0.343153 0.071769
H287  H     H_    0.087452 0.960433 0.346684 0.160269
H288  H     H_    0.037979 0.981168 0.383045 0.128480
O1    O     O_3   0.250000 0.999990 0.250000 -0.430451
O2    O     O_R   0.366860 0.972110 0.777870 -0.586628
O3    O     O_R   0.133150 0.027840 0.222150 -0.494036
O4    O     O_R   0.366850 0.527840 0.777850 -0.564354
O5    O     O_R   0.366850 0.527840 0.222150 -0.567120
O6    O     O_R   0.633150 0.527840 0.777850 -0.526446
O7    O     O_R   0.633150 0.527840 0.222150 -0.494039
O8    O     O_3   0.043258 0.955189 0.177299 -0.437426
O9    O     O_3   0.041201 0.942437 0.683798 -0.428378
O10   O     O_3   0.950152 0.937728 0.185971 -0.500450
O11   O     O_3   0.947922 0.958266 0.669295 -0.466271
O12   O     O_3   0.543258 0.455184 0.177301 -0.437426
O13   O     O_R   0.633140 0.972110 0.222130 -0.510080
O14   O     O_3   0.541202 0.442413 0.683820 -0.428380
O15   O     O_3   0.450153 0.437723 0.185974 -0.500453
O16   O     O_3   0.447922 0.458234 0.669313 -0.466253
O17   O     O_3   0.543258 0.955191 0.677299 -0.437425
O18   O     O_3   0.541202 0.942442 0.183793 -0.428376
O19   O     O_3   0.450152 0.937729 0.685970 -0.500450
O20   O     O_3   0.447922 0.958272 0.169291 -0.466274
O21   O     O_3   0.043258 0.455189 0.677300 -0.437426
O22   O     O_3   0.041201 0.442441 0.183795 -0.428377
O23   O     O_3   0.950152 0.437728 0.685971 -0.500451
O24   O     O_R   0.633140 0.972110 0.777870 -0.595320
O25   O     O_3   0.947922 0.458271 0.169292 -0.466275
O26   O     O_3   0.055788 0.040689 0.172026 -0.444209
O27   O     O_3   0.050963 0.913654 0.765689 -0.492427
O28   O     O_3   0.964154 0.021535 0.163909 -0.449522
O29   O     O_3   0.957726 0.915242 0.743424 -0.439361
O30   O     O_3   0.555789 0.540684 0.172024 -0.444211
O31   O     O_3   0.550964 0.413660 0.765721 -0.492434
O32   O     O_3   0.464155 0.521529 0.163907 -0.449525
O33   O     O_3   0.457726 0.415239 0.743457 -0.439369
O34   O     O_3   0.555787 0.040690 0.672027 -0.444208
O35   O     O_R   0.866860 0.472110 0.222130 -0.495470
O36   O     O_3   0.550963 0.913653 0.265682 -0.492424
O37   O     O_3   0.464154 0.021537 0.663910 -0.449522
O38   O     O_3   0.457726 0.915242 0.243416 -0.439358
O39   O     O_3   0.055788 0.540688 0.672026 -0.444209
O40   O     O_3   0.050963 0.413654 0.265685 -0.492426
O41   O     O_3   0.964154 0.521534 0.663909 -0.449523
O42   O     O_3   0.957726 0.415243 0.243418 -0.439359
O43   O     O_3   0.049292 0.054741 0.326638 -0.540467
O44   O     O_3   0.052531 0.057452 0.818268 -0.525603
O45   O     O_3   0.959544 0.066460 0.313214 -0.551602
O46   O     O_R   0.866860 0.472110 0.777870 -0.586627
O47   O     O_3   0.958813 0.046629 0.825005 -0.565686
O48   O     O_3   0.549292 0.554745 0.326634 -0.540466
O49   O     O_3   0.552531 0.557478 0.818247 -0.525594
O50   O     O_3   0.459543 0.566463 0.313209 -0.551603
O51   O     O_3   0.458815 0.546655 0.824990 -0.565679
O52   O     O_3   0.549292 0.054740 0.826639 -0.540467
O53   O     O_3   0.552529 0.057445 0.318273 -0.525606
O54   O     O_3   0.459544 0.066459 0.813215 -0.551602
O55   O     O_3   0.458812 0.046622 0.325008 -0.565677
O56   O     O_3   0.049292 0.554741 0.826638 -0.540467
O57   O     O_R   0.133140 0.472110 0.222130 -0.510083
O58   O     O_3   0.052531 0.557449 0.318270 -0.525606
O59   O     O_3   0.959544 0.566460 0.813214 -0.551602
O60   O     O_3   0.958813 0.546626 0.325007 -0.565692
O61   O     O_R   0.133140 0.472110 0.777870 -0.595320
O62   O     O_R   0.866860 0.972110 0.722130 -0.495469
O63   O     O_R   0.866860 0.972110 0.277870 -0.586628
O64   O     O_R   0.133140 0.972110 0.722130 -0.510085
O65   O     O_3   0.250000 0.999990 0.750000 -0.427424
O66   O     O_R   0.133140 0.972110 0.277870 -0.595320
O67   O     O_R   0.366860 0.472110 0.722130 -0.495470
O68   O     O_R   0.366860 0.472110 0.277870 -0.586627
O69   O     O_R   0.633140 0.472110 0.722130 -0.510097
O70   O     O_R   0.633140 0.472110 0.277870 -0.595319
O71   O     O_R   0.280630 0.027850 0.356260 -0.545360
O72   O     O_R   0.280630 0.027850 0.643740 -0.557084
O73   O     O_R   0.719370 0.027850 0.356260 -0.535216
O74   O     O_R   0.719370 0.027850 0.643740 -0.527264
O75   O     O_R   0.780630 0.527850 0.356260 -0.545364
O76   O     O_3   0.750000 0.999990 0.250000 -0.427423
O77   O     O_R   0.780630 0.527850 0.643740 -0.557084
O78   O     O_R   0.219370 0.527850 0.356260 -0.535212
O79   O     O_R   0.219370 0.527850 0.643740 -0.527263
O80   O     O_R   0.780630 0.027850 0.856260 -0.545362
O81   O     O_R   0.780630 0.027850 0.143740 -0.557084
O82   O     O_R   0.219370 0.027850 0.856260 -0.535214
O83   O     O_R   0.219370 0.027850 0.143740 -0.527263
O84   O     O_R   0.280630 0.527850 0.856260 -0.545355
O85   O     O_R   0.280630 0.527850 0.143740 -0.557085
O86   O     O_R   0.719370 0.527850 0.856260 -0.535217
O87   O     O_3   0.750000 0.999990 0.750000 -0.430450
O88   O     O_R   0.719370 0.527850 0.143740 -0.527263
O89   O     O_R   0.280630 0.106260 0.277850 -0.555784
O90   O     O_R   0.280630 0.106260 0.722150 -0.547494
O91   O     O_R   0.719370 0.106260 0.277850 -0.544177
O92   O     O_R   0.719370 0.106260 0.722150 -0.548206
O93   O     O_R   0.780630 0.606260 0.277850 -0.555785
O94   O     O_R   0.780630 0.606260 0.722150 -0.547493
O95   O     O_R   0.219370 0.606260 0.277850 -0.544168
O96   O     O_R   0.219370 0.606260 0.722150 -0.548205
O97   O     O_R   0.780630 0.106260 0.777850 -0.555785
O98   O     O_3   0.750000 0.499990 0.250000 -0.430450
O99   O     O_R   0.780630 0.106260 0.222150 -0.547492
O100  O     O_R   0.219370 0.106260 0.777850 -0.544171
O101  O     O_R   0.219370 0.106260 0.222150 -0.548206
O102  O     O_R   0.280630 0.606260 0.777850 -0.555788
O103  O     O_R   0.280630 0.606260 0.222150 -0.547492
O104  O     O_R   0.719370 0.606260 0.777850 -0.544166
O105  O     O_R   0.719370 0.606260 0.222150 -0.548205
O106  O     O_R   0.280650 0.893700 0.222130 -0.533026
O107  O     O_R   0.280650 0.893700 0.777870 -0.545507
O108  O     O_R   0.719350 0.893700 0.222130 -0.542327
O109  O     O_3   0.750000 0.499990 0.750000 -0.427424
O110  O     O_R   0.719350 0.893700 0.777870 -0.540836
O111  O     O_R   0.780650 0.393700 0.222130 -0.533025
O112  O     O_R   0.780650 0.393700 0.777870 -0.545510
O113  O     O_R   0.219350 0.393700 0.222130 -0.542326
O114  O     O_R   0.219350 0.393700 0.777870 -0.540837
O115  O     O_R   0.780650 0.893700 0.722130 -0.533025
O116  O     O_R   0.780650 0.893700 0.277870 -0.545507
O117  O     O_R   0.219350 0.893700 0.722130 -0.542326
O118  O     O_R   0.219350 0.893700 0.277870 -0.540836
O119  O     O_R   0.280650 0.393700 0.722130 -0.533022
O120  O     O_3   0.250000 0.499990 0.250000 -0.427425
O121  O     O_R   0.280650 0.393700 0.277870 -0.545508
O122  O     O_R   0.719350 0.393700 0.722130 -0.542315
O123  O     O_R   0.719350 0.393700 0.277870 -0.540836
O124  O     O_R   0.219370 0.972130 0.356260 -0.549169
O125  O     O_R   0.219370 0.972130 0.643740 -0.541974
O126  O     O_R   0.780630 0.972130 0.356260 -0.546506
O127  O     O_R   0.780630 0.972130 0.643740 -0.563737
O128  O     O_R   0.719370 0.472130 0.356260 -0.549167
O129  O     O_R   0.719370 0.472130 0.643740 -0.541980
O130  O     O_R   0.280630 0.472130 0.356260 -0.546506
O131  O     O_3   0.250000 0.499990 0.750000 -0.430451
O132  O     O_R   0.280630 0.472130 0.643740 -0.563739
O133  O     O_R   0.719370 0.972130 0.856260 -0.549169
O134  O     O_R   0.719370 0.972130 0.143740 -0.541972
O135  O     O_R   0.280630 0.972130 0.856260 -0.546507
O136  O     O_R   0.280630 0.972130 0.143740 -0.563737
O137  O     O_R   0.219370 0.472130 0.856260 -0.549171
O138  O     O_R   0.219370 0.472130 0.143740 -0.541973
O139  O     O_R   0.780630 0.472130 0.856260 -0.546507
O140  O     O_R   0.780630 0.472130 0.143740 -0.563737
O141  O     O_R   0.366850 0.027840 0.277850 -0.564356
O142  O     O_R   0.366860 0.972110 0.222130 -0.495472
O143  O     O_R   0.366850 0.027840 0.722150 -0.567115
O144  O     O_R   0.633150 0.027840 0.277850 -0.526463
O145  O     O_R   0.633150 0.027840 0.722150 -0.494035
O146  O     O_R   0.866850 0.527840 0.277850 -0.564360
O147  O     O_R   0.866850 0.527840 0.722150 -0.567116
O148  O     O_R   0.133150 0.527840 0.277850 -0.526450
O149  O     O_R   0.133150 0.527840 0.722150 -0.494037
O150  O     O_R   0.866850 0.027840 0.777850 -0.564358
O151  O     O_R   0.866850 0.027840 0.222150 -0.567116
O152  O     O_R   0.133150 0.027840 0.777850 -0.526453
Zn1   Zn    Zn3+2 0.206230 0.960180 0.289800 0.902243
Zn2   Zn    Zn3+2 0.706230 0.960180 0.210200 0.922129
Zn3   Zn    Zn3+2 0.293770 0.960180 0.789800 0.888741
Zn4   Zn    Zn3+2 0.293770 0.960180 0.210200 0.930052
Zn5   Zn    Zn3+2 0.206230 0.460180 0.789800 0.902243
Zn6   Zn    Zn3+2 0.206230 0.460180 0.210200 0.922127
Zn7   Zn    Zn3+2 0.793770 0.460180 0.789800 0.888739
Zn8   Zn    Zn3+2 0.793770 0.460180 0.210200 0.930053
Zn9   Zn    Zn3+2 0.293770 0.039800 0.289800 0.890155
Zn10  Zn    Zn3+2 0.293770 0.039800 0.710200 0.886699
Zn11  Zn    Zn3+2 0.706230 0.039800 0.289800 0.920045
Zn12  Zn    Zn3+2 0.206230 0.960180 0.710200 0.922126
Zn13  Zn    Zn3+2 0.706230 0.039800 0.710200 0.937551
Zn14  Zn    Zn3+2 0.793770 0.539800 0.289800 0.890149
Zn15  Zn    Zn3+2 0.793770 0.539800 0.710200 0.886698
Zn16  Zn    Zn3+2 0.206230 0.539800 0.289800 0.920061
Zn17  Zn    Zn3+2 0.206230 0.539800 0.710200 0.937552
Zn18  Zn    Zn3+2 0.793770 0.039800 0.789800 0.890152
Zn19  Zn    Zn3+2 0.793770 0.039800 0.210200 0.886699
Zn20  Zn    Zn3+2 0.206230 0.039800 0.789800 0.920056
Zn21  Zn    Zn3+2 0.206230 0.039800 0.210200 0.937551
Zn22  Zn    Zn3+2 0.293770 0.539800 0.789800 0.890158
Zn23  Zn    Zn3+2 0.793770 0.960180 0.289800 0.888742
Zn24  Zn    Zn3+2 0.293770 0.539800 0.210200 0.886698
Zn25  Zn    Zn3+2 0.706230 0.539800 0.789800 0.920059
Zn26  Zn    Zn3+2 0.706230 0.539800 0.210200 0.937551
Zn27  Zn    Zn3+2 0.793770 0.960180 0.710200 0.930053
Zn28  Zn    Zn3+2 0.706230 0.460180 0.289800 0.902244
Zn29  Zn    Zn3+2 0.706230 0.460180 0.710200 0.922121
Zn30  Zn    Zn3+2 0.293770 0.460180 0.289800 0.888741
Zn31  Zn    Zn3+2 0.293770 0.460180 0.710200 0.930053
Zn32  Zn    Zn3+2 0.706230 0.960180 0.789800 0.902242

loop_
_geom_bond_atom_site_label_1
_geom_bond_atom_site_label_2
_ccdc_geom_bond_type
C78   C226  S    
C123  H287  S    
C137  C195  S    
C112  C228  S    
C132  H27   S    
C130  C146  S    
C173  H151  S    
C133  H30   S    
C194  C230  S    
C215  C233  S    
C6    O78   A    
C159  H107  S    
C153  H88   S    
C182  H177  S    
C33   O119  A    
O2    Zn3   S    
C76   C224  S    
C24   O66   A    
C126  H6    S    
C28   O116  A    
C133  H31   S    
C149  H77   S    
C85   C233  S    
C50   C59   S    
C115  H262  S    
C20   C66   S    
C151  C210  S    
C84   C86   S    
O65   Zn10  S    
C144  H62   S    
C52   C61   T    
C213  O39   S    
C134  H33   S    
C57   C223  S    
C95   H135  S    
C182  H175  S    
C111  H253  S    
O133  Zn32  S    
C75   O14   S    
O127  Zn27  S    
O103  Zn24  S    
C140  H49   S    
C74   C92   S    
C147  C205  S    
C207  O24   A    
C68   O70   A    
C169  O36   S    
C44   C53   S    
C116  H263  S    
C26   O118  A    
C105  H236  S    
C78   C96   S    
C149  H76   S    
C131  C157  S    
C143  H59   S    
C164  H125  S    
C166  H129  S    
C172  H148  S    
C142  H55   S    
C75   C223  S    
C161  O28   S    
C102  H224  S    
C85   C103  S    
C3    O74   A    
C195  C198  S    
C204  C222  S    
C119  H273  S    
O1    Zn4   S    
C192  H206  S    
C2    C220  S    
O102  Zn22  S    
C107  O10   S    
C72   O10   S    
O150  Zn18  S    
C164  H122  S    
C196  O13   A    
C154  C213  S    
C72   C220  S    
C5    C250  S    
C138  H42   S    
C183  H180  S    
C139  H47   S    
C213  C215  S    
C11   C235  S    
C30   O111  A    
C22   O104  A    
O109  Zn15  S    
O131  Zn22  S    
C2    O151  A    
C142  C201  S    
C4    C252  S    
C112  O2    A    
C221  C262  S    
C180  H169  S    
C101  O45   S    
C71   C73   S    
C121  H280  S    
C196  O144  A    
C240  O148  A    
C108  H243  S    
C177  O44   S    
C104  H232  S    
C15   O139  A    
C205  C223  S    
C167  O34   S    
C208  O33   S    
C120  O22   S    
C150  C209  S    
C195  O56   S    
C83   O21   S    
C106  H238  S    
C82   O20   S    
C174  H153  S    
C170  H139  S    
C155  H95   S    
O83   Zn21  S    
O63   Zn23  S    
O120  Zn16  S    
O82   Zn20  S    
C113  C221  S    
O98   Zn14  S    
C158  H104  S    
C107  H242  S    
C165  H127  S    
C73   O11   S    
C152  C211  S    
C124  C222  S    
C120  H277  S    
C145  H66   S    
C9    O81   A    
O87   Zn32  S    
O114  Zn5   S    
O152  Zn20  S    
C188  H195  S    
O113  Zn6   S    
C36   C44   T    
C25   O96   A    
C209  C226  S    
C37   C45   T    
C16   O88   A    
O80   Zn18  S    
O79   Zn17  S    
C261  C263  S    
C125  H3    S    
C197  C232  S    
C185  H185  S    
C117  H266  S    
O140  Zn8   S    
C158  H102  S    
C35   C225  S    
C173  H149  S    
C115  H260  S    
C239  C257  T    
C17   O101  A    
C11   O136  A    
O65   Zn12  S    
C144  H64   S    
C78   O17   S    
C86   C104  S    
O94   Zn15  S    
C103  H227  S    
C92   H35   S    
C8    C238  S    
C109  H247  S    
C135  C223  S    
C137  H41   S    
C178  H167  S    
O74   Zn13  S    
C73   C221  S    
C93   H68   S    
O81   Zn19  S    
C86   O25   S    
C116  H265  S    
C126  H8    S    
O3    Zn21  S    
O148  Zn16  S    
C155  H97   S    
C77   C95   S    
C114  H259  S    
C25   C62   S    
O65   Zn3   S    
C80   C227  S    
C84   C232  S    
C94   H113  S    
C108  H244  S    
C202  O28   S    
C71   C88   S    
O123  Zn28  S    
C153  H91   S    
C180  O47   S    
C200  C202  S    
C54   C63   T    
C169  H137  S    
C191  H203  S    
C28   O108  A    
C99   H218  S    
C120  H276  S    
C7    O79   A    
C150  H80   S    
O100  Zn20  S    
O95   Zn16  S    
C139  H45   S    
C167  H132  S    
C176  H159  S    
C32   O121  A    
C182  O49   S    
C135  C157  S    
C13   O152  A    
C80   C97   S    
C188  O55   S    
C84   C102  S    
C148  H73   S    
C29   O115  A    
C193  O60   S    
O109  Zn7   S    
C231  C251  S    
C161  H115  S    
C18   C69   S    
C121  H282  S    
C162  H116  S    
C100  H221  S    
C102  H225  S    
C199  O60   S    
O121  Zn30  S    
C132  H26   S    
C71   O9    S    
C190  C228  S    
C33   C42   S    
O64   Zn12  S    
C97   H211  S    
O130  Zn30  S    
C13   O64   A    
C167  H134  S    
O129  Zn29  S    
C218  O35   A    
O13   Zn2   S    
C97   H201  S    
C252  C269  T    
C79   C217  S    
C165  H126  S    
C158  C216  S    
C40   C49   T    
C91   H24   S    
C173  O40   S    
C212  C230  S    
C200  O26   S    
C257  C258  S    
C202  C220  S    
C18   O90   A    
C163  O30   S    
C162  H117  S    
C59   C67   T    
C14   C242  S    
C77   C225  S    
C229  O147  A    
C120  H279  S    
C206  C224  S    
C264  C265  S    
C141  H52   S    
C29   C38   S    
C7    O132  A    
C188  H197  S    
C12   O137  A    
C35   O67   A    
C111  H255  S    
O87   Zn27  S    
C171  H143  S    
C213  C231  S    
C91   H13   S    
C243  C260  T    
C76   C94   S    
C1    O142  A    
C185  H187  S    
C24   O3    A    
C105  H233  S    
C162  O29   S    
C186  O53   S    
C177  H163  S    
C191  O58   S    
C201  C203  S    
O101  Zn21  S    
O120  Zn24  S    
O107  Zn3   S    
C70   C87   S    
C142  H58   S    
C149  C208  S    
C216  O42   S    
C122  H284  S    
C215  O41   S    
C27   O107  A    
O128  Zn28  S    
O1    Zn1   S    
C178  H165  S    
C130  H20   S    
C189  H198  S    
C131  H23   S    
C98   H215  S    
C161  H111  S    
C16   C239  S    
C80   C82   S    
C152  H85   S    
C160  H110  S    
C247  C270  S    
C271  O125  A    
C171  O38   S    
C124  C146  S    
C20   O97   A    
C140  H50   S    
C124  O48   S    
C114  H257  S    
C164  O31   S    
C163  H120  S    
C168  O52   S    
C155  C214  S    
O6    Zn25  S    
C136  C194  S    
C122  H285  S    
C146  C224  S    
C136  H36   S    
C207  C226  S    
C90   O44   S    
C110  H252  S    
C151  H84   S    
C38   C47   T    
C181  O48   S    
C76   O15   S    
O131  Zn31  S    
C150  H78   S    
C183  H181  S    
O78   Zn16  S    
C186  H191  S    
C183  O50   S    
C193  H210  S    
C210  C212  S    
C211  C228  S    
C9    C237  S    
C94   H101  S    
O120  Zn6   S    
C89   H278  S    
C95   H146  S    
C128  H12   S    
C152  H86   S    
O139  Zn7   S    
C240  O57   A    
C245  C263  T    
C246  C264  T    
C57   O69   A    
C154  H92   S    
O88   Zn26  S    
O24   Zn32  S    
O1    Zn21  S    
C168  C190  S    
C133  H29   S    
C8    O80   A    
C91   H2    S    
C97   H213  S    
C34   C43   T    
C198  C233  S    
C187  H192  S    
C129  H18   S    
C153  C212  S    
C29   O110  A    
C31   O122  A    
O109  Zn25  S    
C126  H7    S    
C19   C65   S    
C10   C236  S    
C218  O146  A    
C124  C128  S    
C171  H142  S    
O135  Zn3   S    
C249  C267  T    
C175  H156  S    
C21   O93   A    
C137  H40   S    
C134  H34   S    
C262  O62   A    
C154  H93   S    
C182  H176  S    
C28   C37   S    
C96   H168  S    
C75   C93   S    
O69   Zn29  S    
C204  O30   S    
C88   H245  S    
C3    C244  S    
O73   Zn11  S    
C229  C233  S    
C115  H261  S    
C206  O32   S    
C196  C227  S    
O99   Zn19  S    
C153  H89   S    
C247  C265  T    
C138  C197  S    
C116  H264  S    
C105  H235  S    
C19   O91   A    
C149  H75   S    
C262  O150  A    
C79   C101  S    
C17   O89   A    
C51   C60   S    
C87   H1    S    
C22   C64   S    
C236  C254  T    
C142  H56   S    
C179  C194  S    
C259  C260  S    
C8    O133  A    
C108  H246  S    
C15   C241  S    
O132  Zn31  S    
O4    Zn22  S    
O136  Zn4   S    
C180  H171  S    
C216  C234  S    
C242  C259  T    
C141  H53   S    
C96   H190  S    
C207  O145  A    
C187  H194  S    
O116  Zn23  S    
C272  O73   A    
C177  H164  S    
C214  C232  S    
C177  H162  S    
C138  H43   S    
C139  C198  S    
C186  H188  S    
C118  H271  S    
C86   C234  S    
O84   Zn22  S    
C148  H72   S    
O7    Zn26  S    
C176  H161  S    
C18   O100  A    
C82   C99   S    
C14   O138  A    
C165  O32   S    
O149  Zn17  S    
C100  H220  S    
C81   C98   S    
C17   C67   S    
C136  H38   S    
O122  Zn29  S    
C110  H250  S    
C151  H82   S    
C71   C219  S    
C31   C40   S    
C88   H234  S    
C173  H150  S    
C5    O77   A    
C75   C77   S    
C159  O26   S    
C186  H189  S    
C84   O22   S    
C185  O52   S    
C106  H239  S    
C110  O14   S    
C92   H57   S    
C174  H154  S    
C170  H140  S    
C111  O15   S    
C132  H28   S    
O65   Zn20  S    
C79   O43   S    
C148  C206  S    
C107  H241  S    
C147  H70   S    
C24   C217  S    
C144  H63   S    
C123  H288  S    
C95   H157  S    
O76   Zn19  S    
O108  Zn2   S    
C200  C217  S    
C188  H196  S    
C176  O43   S    
C46   C224  S    
C181  H173  S    
O98   Zn28  S    
O115  Zn27  S    
C107  H240  S    
C193  H208  S    
O72   Zn10  S    
C45   C54   S    
C175  O42   S    
O71   Zn9   S    
C170  H141  S    
C118  H270  S    
C158  H103  S    
O109  Zn29  S    
C70   C217  S    
C132  C168  S    
O105  Zn26  S    
O111  Zn8   S    
C245  C272  S    
C235  C253  T    
C192  O59   S    
O98   Zn8   S    
C169  H138  S    
C172  H145  S    
O98   Zn26  S    
C111  H254  S    
O70   Zn28  S    
O87   Zn18  S    
C179  C227  S    
C131  H22   S    
O89   Zn9   S    
C25   O102  A    
O5    Zn24  S    
O118  Zn1   S    
C229  O46   A    
O93   Zn14  S    
C178  O45   S    
C144  C203  S    
C201  O27   S    
O106  Zn4   S    
C32   O113  A    
C22   O94   A    
C156  C215  S    
C143  H60   S    
O66   Zn1   S    
C210  O36   S    
C20   O92   A    
C163  H121  S    
C174  H152  S    
C201  C219  S    
C103  H229  S    
C74   C76   S    
C113  C127  S    
C119  H274  S    
C156  H99   S    
C85   O23   S    
C192  H205  S    
C246  C271  S    
C74   O12   S    
O147  Zn15  S    
C99   H217  S    
C140  H51   S    
C165  H128  S    
C46   O5    A    
O110  Zn32  S    
C41   C50   T    
C183  H178  S    
C271  O72   A    
C83   C231  S    
C139  H48   S    
C104  H230  S    
C23   O103  A    
C157  C225  S    
C146  O50   S    
C184  O51   S    
O68   Zn30  S    
O134  Zn2   S    
C148  H74   S    
C237  C255  T    
C159  H105  S    
O46   Zn7   S    
C128  H15   S    
C241  C258  T    
C190  O54   S    
C11   O83   A    
C161  H114  S    
O146  Zn14  S    
C145  C204  S    
C121  H281  S    
C68   O7    A    
O145  Zn13  S    
C102  H226  S    
C46   O68   A    
C27   C36   S    
C74   C222  S    
C145  H65   S    
C6    C249  S    
C88   H223  S    
C160  O27   S    
C197  C199  S    
C272  O126  A    
O96   Zn17  S    
C93   H79   S    
O141  Zn9   S    
C168  C226  S    
O77   Zn15  S    
C101  C220  S    
C127  H9    S    
C253  C254  S    
C184  H183  S    
C125  H5    S    
C122  O25   S    
C90   C125  S    
C212  O38   S    
C155  H96   S    
C209  O34   S    
C214  C216  S    
C198  O59   S    
C43   C52   S    
C214  O40   S    
C30   O123  A    
C21   C63   S    
C162  H118  S    
C189  H200  S    
C250  C268  T    
O104  Zn25  S    
C23   C61   S    
C123  H286  S    
C114  O16   S    
C268  C269  S    
C4    O75   A    
C109  H249  S    
O75   Zn14  S    
O1    Zn9   S    
C169  H136  S    
C131  H25   S    
C119  O21   S    
C77   O16   S    
C117  H269  S    
C251  O149  A    
C159  H106  S    
C39   C48   T    
O112  Zn7   S    
C125  H4    S    
C1    O141  A    
C185  H186  S    
O131  Zn5   S    
C172  H147  S    
C93   H90   S    
C172  O39   S    
C210  C227  S    
C106  H237  S    
C104  H231  S    
C189  O56   S    
O120  Zn30  S    
C103  H228  S    
O57   Zn6   S    
C15   O86   A    
C99   H219  S    
C109  H248  S    
C156  H98   S    
C130  H21   S    
C203  C221  S    
C178  H166  S    
C180  H170  S    
C98   H216  S    
C60   C69   T    
C140  C199  S    
C171  H144  S    
C184  H182  S    
O62   Zn27  S    
C205  O31   S    
C109  O12   S    
C248  C266  T    
C157  O51   S    
C163  H119  S    
C56   C65   T    
C89   H256  S    
O85   Zn24  S    
C114  H258  S    
C90   C113  S    
C127  H11   S    
C136  H37   S    
C167  H133  S    
C110  H251  S    
C9    O134  A    
C26   C34   S    
O97   Zn18  S    
C192  H207  S    
C191  H204  S    
C30   C39   S    
C151  H83   S    
C12   O84   A    
C117  O19   S    
C141  C200  S    
C81   O19   S    
C160  H108  S    
C108  O11   S    
O67   Zn31  S    
C31   O112  A    
C78   C81   S    
C42   C51   T    
C73   C91   S    
C193  H209  S    
C170  O37   S    
C129  C135  S    
C6    O130  A    
C135  O49   S    
C10   O135  A    
C23   O95   A    
O124  Zn1   S    
C134  H32   S    
C211  O37   S    
C58   C66   T    
C147  H71   S    
C166  O33   S    
C2    O63   A    
C96   H179  S    
C141  H54   S    
O138  Zn6   S    
C81   C228  S    
C194  O55   S    
O86   Zn25  S    
O137  Zn5   S    
O151  Zn19  S    
C218  C234  S    
C87   H212  S    
C16   O140  A    
C199  C234  S    
C143  H61   S    
C133  C179  S    
C174  O41   S    
C156  H100  S    
O91   Zn11  S    
C187  O54   S    
C79   C123  S    
C7    C248  S    
O90   Zn10  S    
C19   O99   A    
C49   C58   S    
C238  C256  T    
C1    C230  S    
C130  H19   S    
C175  H155  S    
C197  O58   S    
C10   O82   A    
O144  Zn11  S    
O35   Zn8   S    
C137  H39   S    
C208  C225  S    
C179  O53   S    
C94   H124  S    
C53   C62   T    
C154  H94   S    
O76   Zn23  S    
C152  H87   S    
C32   C41   S    
C12   C243  S    
C5    O129  A    
C55   C64   T    
C101  C126  S    
C115  O17   S    
C195  C231  S    
C150  H81   S    
C184  H184  S    
C118  O20   S    
C13   C219  S    
C270  O71   A    
O61   Zn5   S    
C90   C219  S    
O92   Zn13  S    
C27   O117  A    
C3    O127  A    
C57   O6    A    
C14   O85   A    
C204  C206  S    
C80   O18   S    
C113  O47   S    
C164  H123  S    
C166  H131  S    
C175  H158  S    
C255  C256  S    
O76   Zn2   S    
C47   C55   S    
C122  H283  S    
C205  C208  S    
C119  H275  S    
C48   C56   S    
C189  H199  S    
C83   C85   S    
C98   H214  S    
C127  H10   S    
C129  H16   S    
C166  H130  S    
O126  Zn23  S    
C187  H193  S    
C92   H46   S    
C145  H67   S    
C100  H222  S    
C160  H109  S    
C138  H44   S    
O117  Zn12  S    
O119  Zn31  S    
C176  H160  S    
C82   C230  S    
C203  O29   S    
C118  H272  S    
C83   C100  S    
C134  C190  S    
C33   O114  A    
C128  H14   S    
C105  O8    S    
C112  O143  A    
C72   C89   S    
O87   Zn13  S    
C106  O9    S    
C117  H268  S    
C68   C222  S    
C191  H202  S    
C70   O8    S    
C87   H112  S    
C209  C211  S    
C181  H172  S    
C181  H174  S    
C89   H267  S    
C26   O106  A    
C266  C267  S    
O143  Zn10  S    
C129  H17   S    
O125  Zn12  S    
C143  C202  S    
C270  O124  A    
C4    O128  A    
C35   O4    A    
C232  C240  S    
C21   O105  A    
C116  O18   S    
C121  O23   S    
C70   C72   S    
C244  C261  T    
C251  O61   A    
O142  Zn4   S    
O131  Zn17  S    
C147  H69   S    
O76   Zn11  S    
