data_mof_unit_41761.cif
_audit_creation_date              2012-12-10T17:36:18-0500
_audit_creation_method            fapswitch 2.2
_symmetry_space_group_name_H-M    P1
_symmetry_Int_Tables_number       1
_space_group_crystal_system       triclinic
_cell_length_a                    12.37589
_cell_length_b                    13.213112
_cell_length_c                    15.888254
_cell_angle_alpha                 77.418872
_cell_angle_beta                  101.494757
_cell_angle_gamma                 116.646805
_cell_volume                      2250.98171227

loop_
_atom_site_label
_atom_site_type_symbol
_atom_type_description
_atom_site_fract_x
_atom_site_fract_y
_atom_site_fract_z
_atom_type_partial_charge
C1    C     C_R   0.854847 0.286652 0.507454 0.760360
C2    C     C_3   0.043773 0.411913 0.071828 -0.407347
C3    C     C_3   0.999312 0.500365 0.082827 0.223673
C4    C     C_3   0.085193 0.620556 0.040775 -0.439858
C5    C     C_3   0.084280 0.621251 0.942381 0.207339
C6    C     C_1   0.999582 0.500208 0.175091 -0.057862
C7    C     C_1   0.999560 0.499541 0.824783 0.028209
C8    C     C_1   0.999730 0.499501 0.749268 -0.136850
C9    C     C_R   0.275133 0.022582 0.387431 -0.196233
C10   C     C_R   0.228077 0.834591 0.470500 -0.052885
C11   C     C_R   0.815127 0.085112 0.563667 -0.183606
C12   C     C_R   0.999848 0.499667 0.659581 0.807149
C13   C     C_R   0.736442 0.970453 0.581142 -0.139350
C14   C     C_R   0.613166 0.933010 0.551553 -0.178005
C15   C     C_R   0.566136 0.009724 0.500297 0.078750
C16   C     C_R   0.649297 0.124159 0.474444 0.082838
C17   C     C_R   0.439567 0.976371 0.472950 0.073506
C18   C     C_R   0.399574 0.054129 0.414703 0.167618
C19   C     C_R   0.484263 0.161393 0.382387 -0.237724
C20   C     C_R   0.607240 0.195144 0.410445 -0.200568
C21   C     C_R   0.351092 0.868101 0.502002 -0.245767
C22   C     C_R   0.189730 0.913008 0.414802 -0.181538
C23   C     C_R   0.145039 0.713348 0.487602 0.806821
C24   C     C_R   0.772641 0.163682 0.512463 -0.099531
C25   C     C_R   0.350046 0.327902 0.635350 -0.246012
C26   C     C_R   0.760237 0.646870 0.383566 0.629482
C27   C     C_R   0.663205 0.678895 0.358663 -0.348265
C28   C     C_R   0.560387 0.623879 0.402247 -0.244185
C29   C     C_R   0.552097 0.535576 0.471897 0.018732
C30   C     C_R   0.653240 0.505527 0.495731 0.195624
C31   C     C_R   0.447752 0.476093 0.519000 -0.014889
C32   C     C_R   0.448352 0.388410 0.588028 0.066539
C33   C     C_R   0.547236 0.360833 0.610496 -0.235100
C34   C     C_R   0.000050 0.500220 0.340414 0.825900
C35   C     C_R   0.647623 0.418544 0.565698 -0.141269
C36   C     C_R   0.342404 0.498959 0.501286 -0.054927
C37   C     C_R   0.249863 0.352650 0.616133 0.587875
C38   C     C_3   0.043817 0.411287 0.974448 -0.403529
C39   C     C_3   0.868693 0.470039 0.936378 0.205346
C40   C     C_3   0.868861 0.468590 0.034806 -0.437851
C41   C     C_1   0.999842 0.500185 0.250693 -0.174618
C42   C     C_3   0.999415 0.499825 0.917000 0.166129
Cu1   Cu    Cu3+1 0.098280 0.475420 0.519630 0.945356
Cu2   Cu    Cu3+1 0.901720 0.524580 0.480370 0.971683
H1    H     H_    0.983597 0.324859 0.101817 0.173254
H2    H     H_    0.136691 0.430252 0.961906 0.180638
H3    H     H_    0.137354 0.432921 0.105940 0.174602
H4    H     H_    0.054837 0.685401 0.048194 0.153597
H5    H     H_    0.094771 0.888285 0.389668 0.177450
H6    H     H_    0.455385 0.219564 0.334820 0.146526
H7    H     H_    0.244259 0.081662 0.342924 0.135475
H8    H     H_    0.375248 0.806946 0.548604 0.153083
H9    H     H_    0.909119 0.112712 0.592226 0.177806
H10   H     H_    0.557950 0.842956 0.568465 0.132865
H11   H     H_    0.770602 0.910546 0.620250 0.149047
H12   H     H_    0.985035 0.323931 0.957792 0.177227
H13   H     H_    0.668618 0.276529 0.379148 0.175073
H14   H     H_    0.547404 0.293827 0.663893 0.163418
H15   H     H_    0.350522 0.260350 0.688203 0.169309
H16   H     H_    0.335007 0.564427 0.449748 0.144443
H17   H     H_    0.488923 0.652247 0.380120 0.155716
H18   H     H_    0.667199 0.746792 0.305233 0.145705
H19   H     H_    0.719116 0.392069 0.588717 0.205173
H20   H     H_    0.841690 0.538587 0.899289 0.127258
H21   H     H_    0.805765 0.383063 0.065011 0.186677
H22   H     H_    0.835086 0.530975 0.042257 0.153876
H23   H     H_    0.046515 0.682209 0.904878 0.126886
H24   H     H_    0.178920 0.645331 0.075396 0.186893
N1    N     N_R   0.246300 0.438200 0.549400 -0.231721
N2    N     N_R   0.754300 0.561180 0.451130 -0.220648
O1    O     O_R   0.972520 0.318130 0.524690 -0.598211
O2    O     O_R   0.806530 0.359650 0.491530 -0.610562
O3    O     O_R   0.083030 0.479240 0.637150 -0.586219
O4    O     O_R   0.917040 0.520750 0.603990 -0.596019
O5    O     O_R   0.193470 0.640350 0.508470 -0.592636
O6    O     O_R   0.027480 0.681870 0.475310 -0.532674
O7    O     O_R   0.082960 0.479250 0.396010 -0.584326
O8    O     O_R   0.916970 0.520760 0.362850 -0.530041
O9    O     O_3   0.157614 0.286617 0.667322 -0.761420
H25   H     H_    0.091551 0.310400 0.650444 0.371103
O10   O     O_3   0.862572 0.701176 0.340620 -0.713192
H26   H     H_    0.853159 0.761046 0.293851 0.285284
O11   O     O_3   0.781452 0.366747 0.907854 -0.717512
H27   H     H_    0.792218 0.302221 0.947994 0.333259
O12   O     O_3   0.202767 0.662076 0.919760 -0.711275
H28   H     H_    0.245378 0.619973 0.960931 0.333652

loop_
_geom_bond_atom_site_label_1
_geom_bond_atom_site_label_2
_ccdc_geom_bond_type
Cu1   O3    S    
C5    C42   S    
C33   H14   S    
C37   N1    A    
C19   C20   A    
C9    H7    S    
C23   O6    A    
C5    H23   S    
C3    C6    S    
O10   H26   S    
C7    C8    T    
O12   H28   S    
C10   C22   A    
C39   H20   S    
C37   O9    S    
C26   C27   A    
C1    O1    A    
C30   C35   A    
C28   C29   A    
C38   C42   S    
C12   O4    A    
C34   O7    A    
C9    C22   A    
C15   C16   A    
C11   C24   A    
C18   C19   A    
C7    C42   S    
Cu2   O6    S    
C25   C37   A    
O11   H27   S    
C6    C41   T    
Cu2   N2    S    
C11   H9    S    
C16   C20   A    
C5    O12   S    
C28   H17   S    
C25   C32   A    
C16   C24   A    
C40   H22   S    
C12   O3    A    
C34   C41   S    
C30   N2    A    
C39   C42   S    
C10   C21   A    
Cu1   O5    S    
C1    O2    A    
C39   C40   S    
C4    H24   S    
C17   C21   A    
Cu1   Cu2   S    
C29   C30   A    
C27   H18   S    
C2    C38   S    
C31   C32   A    
C8    C12   S    
C17   C18   A    
Cu2   O4    S    
C22   H5    S    
C14   H10   S    
C3    C40   S    
C26   O10   S    
C40   H21   S    
C2    H3    S    
C3    C4    S    
C36   N1    A    
C4    H4    S    
C15   C17   A    
Cu1   O1    S    
C14   C15   A    
C23   O5    A    
C4    C5    S    
C36   H16   S    
C10   C23   S    
Cu1   O7    S    
C32   C33   A    
Cu2   O8    S    
C2    C3    S    
C39   O11   S    
C29   C31   A    
C34   O8    A    
C11   C13   A    
C19   H6    S    
C26   N2    A    
C33   C35   A    
Cu2   O2    S    
C38   H2    S    
C2    H1    S    
O9    H25   S    
C9    C18   A    
C38   H12   S    
C1    C24   S    
Cu1   N1    S    
C27   C28   A    
C31   C36   A    
C35   H19   S    
C25   H15   S    
C20   H13   S    
C13   C14   A    
C21   H8    S    
C13   H11   S    
