data_mof_unit_58432.cif
_audit_creation_date              2012-12-11T15:09:40-0500
_audit_creation_method            fapswitch 2.2
_symmetry_space_group_name_H-M    P1
_symmetry_Int_Tables_number       1
_space_group_crystal_system       triclinic
_cell_length_a                    20.855398
_cell_length_b                    7.126508
_cell_length_c                    14.02291
_cell_angle_alpha                 89.999988
_cell_angle_beta                  97.87871
_cell_angle_gamma                 89.999842
_cell_volume                      2064.4976706

loop_
_atom_site_label
_atom_site_type_symbol
_atom_type_description
_atom_site_fract_x
_atom_site_fract_y
_atom_site_fract_z
_atom_type_partial_charge
O1    O     O_R   0.447130 0.507140 0.597350 -0.524943
O2    O     O_R   0.552870 0.007140 0.402650 -0.524942
O3    O     O_R   0.578910 0.181280 0.586990 -0.533435
O4    O     O_R   0.421090 0.681280 0.413010 -0.533434
C1    C     C_R   0.604579 0.344461 0.607164 0.739119
C2    C     C_R   0.395421 0.844462 0.392836 0.739116
O5    O     O_R   0.449230 0.177860 0.608640 -0.547156
O6    O     O_R   0.550770 0.677860 0.391360 -0.547156
O7    O     O_R   0.422260 0.000770 0.424450 -0.537028
O8    O     O_R   0.577740 0.500770 0.575550 -0.537027
C3    C     C_R   0.432841 0.346662 0.634840 0.710115
C4    C     C_R   0.567159 0.846662 0.365160 0.710124
O9    O     O_3   0.491310 0.336980 0.439550 -0.379211
O10   O     O_3   0.508690 0.836980 0.560450 -0.379211
V1    V     V_3+5 0.501610 0.064760 0.511210 1.505408
V2    V     V_3+5 0.498390 0.564760 0.488790 1.505410
C5    C     C_R   0.621025 0.952947 0.126902 -0.158591
C6    C     C_R   0.378974 0.452942 0.873097 -0.158592
H1    H     H_    0.529283 0.942774 0.179779 0.104047
H2    H     H_    0.470717 0.442760 0.820221 0.104046
H3    H     H_    0.706433 0.988270 0.004185 0.123143
H4    H     H_    0.293566 0.488272 0.995812 0.123147
H5    H     H_    0.599360 0.992171 0.054974 0.114150
H6    H     H_    0.400640 0.492163 0.945025 0.114151
C7    C     C_R   0.607658 0.860414 0.288518 -0.056849
C8    C     C_R   0.392342 0.360415 0.711481 -0.056844
C9    C     C_R   0.920387 0.829627 0.305050 -0.242283
C10   C     C_R   0.079615 0.329619 0.694952 -0.242284
C11   C     C_R   0.885029 0.849135 0.381428 -0.126966
C12   C     C_R   0.114973 0.349130 0.618575 -0.126971
C13   C     C_R   0.818928 0.892391 0.365637 0.441127
C14   C     C_R   0.181073 0.392396 0.634365 0.441098
C15   C     C_R   0.785475 0.890695 0.269213 -0.059009
C16   C     C_R   0.214524 0.390701 0.730788 -0.058998
C17   C     C_R   0.823551 0.892438 0.191989 0.025228
C18   C     C_R   0.176448 0.392441 0.808011 0.025231
C19   C     C_R   0.716593 0.891274 0.245220 0.096400
C20   C     C_R   0.283406 0.391280 0.754780 0.096407
C21   C     C_R   0.688427 0.935509 0.149753 0.138723
C22   C     C_R   0.311573 0.435511 0.850246 0.138722
C23   C     C_R   0.727510 0.957033 0.077480 -0.195941
C24   C     C_R   0.272489 0.457035 0.922518 -0.195942
C25   C     C_R   0.793742 0.928116 0.097343 -0.159062
C26   C     C_R   0.206258 0.428121 0.902655 -0.159066
C27   C     C_R   0.674549 0.837194 0.310769 -0.099586
C28   C     C_R   0.325450 0.337204 0.689228 -0.099589
C29   C     C_R   0.581016 0.921598 0.197041 -0.180126
C30   C     C_R   0.418983 0.421592 0.802959 -0.180125
C31   C     C_R   0.891016 0.860854 0.211026 -0.075130
C32   C     C_R   0.108984 0.360853 0.788975 -0.075129
H7    H     H_    0.692845 0.777214 0.379535 0.178327
H8    H     H_    0.307153 0.277234 0.620460 0.178314
H9    H     H_    0.971988 0.803449 0.319909 0.148748
H10   H     H_    0.028014 0.303435 0.680094 0.148746
H11   H     H_    0.910586 0.842767 0.454001 0.181995
H12   H     H_    0.089416 0.342761 0.546002 0.182001
H13   H     H_    0.821522 0.936267 0.037683 0.118298
H14   H     H_    0.178477 0.436271 0.962315 0.118301
C33   C     C_1   0.166441 0.856943 0.168718 -0.173871
C34   C     C_1   0.833559 0.356944 0.831282 -0.173887
C35   C     C_1   0.218770 0.854606 0.220023 0.015214
C36   C     C_1   0.781230 0.354607 0.779977 0.015207
C37   C     C_1   0.280490 0.853195 0.280112 0.043061
C38   C     C_1   0.719510 0.353194 0.719888 0.043077
C39   C     C_1   0.332907 0.850983 0.331190 -0.130741
C40   C     C_1   0.667093 0.350982 0.668810 -0.130732
O11   O     O_R   0.922300 0.202240 0.924350 -0.535261
O12   O     O_R   0.077700 0.702240 0.075650 -0.535257
O13   O     O_R   0.050780 0.535130 0.891350 -0.539344
O14   O     O_R   0.949220 0.035130 0.108650 -0.539344
C41   C     C_R   0.067761 0.368073 0.865538 0.703013
C42   C     C_R   0.932239 0.868073 0.134462 0.703016
O15   O     O_R   0.921100 0.531560 0.912990 -0.535536
O16   O     O_R   0.078900 0.031560 0.087010 -0.535536
O17   O     O_R   0.947120 0.708470 0.097370 -0.537866
O18   O     O_R   0.052880 0.208470 0.902630 -0.537867
C43   C     C_R   0.895916 0.363511 0.893329 0.715823
C44   C     C_R   0.104084 0.863510 0.106671 0.715823
O19   O     O_3   0.008710 0.375800 0.060400 -0.372811
O20   O     O_3   0.991290 0.875800 0.939600 -0.372815
V3    V     V_3+5 0.998380 0.648080 0.988790 1.458481
V4    V     V_3+5 0.001620 0.148080 0.011210 1.458479
S1    S     S_3+6 0.787900 0.994242 0.465853 -0.030481
O21   O     O_2   0.733090 0.126772 0.433687 -0.342754
O22   O     O_2   0.765395 0.842072 0.527718 -0.351346
O23   O     O_3   0.847416 0.115113 0.532186 -0.503448
H15   H     H_    0.827762 0.163254 0.587813 0.368355
S2    S     S_3+6 0.212096 0.494281 0.534152 -0.030476
O24   O     O_2   0.266903 0.626820 0.566328 -0.342785
O25   O     O_2   0.234606 0.342133 0.472274 -0.351316
O26   O     O_3   0.152576 0.615157 0.467826 -0.503448
H16   H     H_    0.172246 0.663487 0.412252 0.368356

loop_
_geom_bond_atom_site_label_1
_geom_bond_atom_site_label_2
_ccdc_geom_bond_type
C12   C14   A    
C37   C39   T    
C9    C11   A    
O11   C43   A    
O2    C4    A    
C2    O7    A    
O3    V1    S    
C21   C23   A    
O5    C3    A    
C5    H5    S    
C6    H6    S    
O12   V3    S    
C41   O18   A    
O20   V3    S    
H1    C29   S    
C27   H7    S    
C14   S2    S    
C28   H8    S    
C13   S1    S    
C34   C36   T    
C5    C21   A    
C35   C37   S    
C6    C22   A    
C36   C38   S    
C10   C32   A    
C2    C39   S    
C26   H14   S    
C31   C42   S    
O1    C3    A    
C17   C31   A    
C13   C15   A    
C17   C25   A    
C7    C29   A    
C8    C30   A    
O5    V1    S    
O6    V2    S    
C23   C25   A    
C24   C26   A    
O16   V4    S    
C42   O17   A    
C33   C44   S    
O15   V3    S    
O12   C44   A    
C34   C43   S    
C33   C35   T    
O13   C41   A    
O20   V4    S    
O18   V4    S    
O26   H16   S    
O19   V3    S    
C10   H10   S    
O23   H15   S    
O17   V3    S    
C11   H11   S    
C3    C8    S    
C12   H12   S    
C15   C19   A    
C14   C16   A    
O4    V2    S    
C32   C41   S    
S1    O21   D    
S2    O26   S    
O6    C4    A    
C25   H13   S    
O1    V2    S    
O2    V1    S    
H2    C30   S    
H3    C23   S    
O4    C2    A    
S1    O22   D    
S2    O25   D    
C18   C26   A    
C19   C27   A    
C7    C27   A    
C18   C32   A    
C16   C20   A    
C5    C29   A    
C1    C40   S    
O3    C1    A    
C6    C30   A    
O19   V4    S    
C9    H9    S    
C4    C7    S    
C10   C12   A    
O7    V1    S    
C1    O8    A    
C11   C13   A    
O8    V2    S    
C20   C22   A    
H4    C24   S    
C22   C24   A    
C15   C17   A    
C16   C18   A    
O14   V4    S    
C20   C28   A    
O13   V3    S    
C8    C28   A    
S1    O23   S    
S2    O24   D    
O11   V4    S    
C19   C21   A    
O16   C44   A    
O9    V2    S    
O15   C43   A    
O10   V1    S    
O14   C42   A    
C9    C31   A    
C38   C40   T    
