data_mof_unit_54294.cif
_audit_creation_date              2013-03-05T16:16:17-0500
_audit_creation_method            fapswitch 2.2
_symmetry_space_group_name_H-M    P1
_symmetry_Int_Tables_number       1
_space_group_crystal_system       triclinic
_cell_length_a                    8.564227
_cell_length_b                    18.876124
_cell_length_c                    27.240005
_cell_angle_alpha                 96.671483
_cell_angle_beta                  91.162192
_cell_angle_gamma                 86.740327
_cell_volume                      4366.29281533

loop_
_atom_site_label
_atom_site_type_symbol
_atom_site_description
_atom_site_fract_x
_atom_site_fract_y
_atom_site_fract_z
_atom_type_partial_charge
P1    P     P_3+3 0.084800 0.558370 0.611580 0.531283
O1    O     O_2   0.914730 0.537460 0.618690 -0.378840
O2    O     O_3   0.146720 0.537410 0.558510 -0.378824
O3    O     O_3   0.666360 0.409390 0.586570 -0.363463
O4    O     O_2   0.791186 0.459828 0.668450 -0.361311
O5    O     O_3   0.075548 0.651586 0.628116 -0.502778
O6    O     O_3   0.646486 0.350576 0.679264 -0.465487
H1    H     H_    0.448137 0.326038 0.634339 -0.024292
C1    C     C_3   0.623250 0.239240 0.629865 -0.947345
H2    H     H_    0.695782 0.257760 0.601051 0.291453
H3    H     H_    0.699522 0.211137 0.655330 0.274865
P2    P     P_3+3 0.628800 0.338360 0.458800 0.516790
P3    P     P_3+3 0.109938 0.279175 0.557741 0.516337
O7    O     O_2   0.806150 0.327840 0.473120 -0.413200
O8    O     O_3   0.073640 0.373350 0.561550 -0.305589
O9    O     O_2   0.999717 0.248826 0.515814 -0.353965
O10   O     O_3   0.602665 0.322175 0.394129 -0.536357
O11   O     O_3   0.025751 0.251788 0.610354 -0.479586
C2    C     C_3   0.114450 0.192197 0.624765 0.178550
H4    H     H_    0.229831 0.208431 0.639536 0.051044
H5    H     H_    0.133089 0.150788 0.593361 0.106654
C3    C     C_3   0.026759 0.156723 0.663098 0.202924
H6    H     H_    0.913044 0.141414 0.646149 0.102084
C4    C     C_3   0.147916 0.310429 0.414731 0.623770
H7    H     H_    0.030988 0.299343 0.425781 0.062584
C5    C     C_3   0.237858 0.238795 0.401471 -0.504115
H8    H     H_    0.363563 0.247069 0.397242 0.248724
H9    H     H_    0.225705 0.206552 0.432423 0.210408
Ba1   Ba    Ba6+2 0.852670 0.466460 0.522850 1.610415
C6    C     C_3   0.020689 0.688976 0.589443 0.217404
H10   H     H_    0.898848 0.674874 0.580623 -0.011426
H11   H     H_    0.098034 0.676084 0.557204 0.106066
C7    C     C_3   0.019914 0.770266 0.604470 0.384207
H12   H     H_    0.929521 0.797015 0.582172 0.023605
C8    C     C_3   0.742946 0.307846 0.368067 0.484884
H13   H     H_    0.834686 0.340855 0.386004 0.007544
C9    C     C_3   0.797338 0.228146 0.365352 -0.161986
H14   H     H_    0.852802 0.216719 0.400894 0.147113
H15   H     H_    0.884671 0.215035 0.335768 0.146206
P4    P     P_3+3 0.104900 0.441570 0.388420 0.533407
O12   O     O_2   0.274960 0.462520 0.381280 -0.258304
O13   O     O_3   0.042980 0.462530 0.441480 -0.383541
O14   O     O_3   0.523340 0.590550 0.413420 -0.380268
O15   O     O_3   0.139731 0.348739 0.373785 -0.580055
P5    P     P_3+3 0.096066 0.719687 0.440136 0.454078
O16   O     O_3   0.635780 0.584660 0.526290 -0.401599
O17   O     O_3   0.116060 0.626590 0.438450 -0.427939
O18   O     O_2   0.240664 0.750714 0.467786 -0.351558
O19   O     O_3   0.108131 0.741138 0.379480 -0.551293
Ba2   Ba    Ba6+2 0.337150 0.533490 0.477140 1.613588
P6    P     P_3+3 0.637316 0.428693 0.649972 0.480516
C10   C     C_3   0.535735 0.302493 0.659321 0.704712
H16   H     H_    0.539907 0.200857 0.612169 0.184122
O20   O     O_3   0.553920 0.415280 0.473710 -0.326066
C11   C     C_3   0.565789 0.657161 0.640128 0.672163
H17   H     H_    0.579295 0.601167 0.622470 0.010259
C12   C     C_3   0.697300 0.674218 0.677762 -0.433488
H18   H     H_    0.685217 0.732338 0.690889 0.256738
H19   H     H_    0.811016 0.662939 0.659791 0.210155
P7    P     P_3+3 0.562247 0.673692 0.543430 0.503900
O21   O     O_2   0.383540 0.672140 0.526840 -0.310614
O22   O     O_3   0.564762 0.707873 0.606398 -0.565811
C13   C     C_3   0.108820 0.677328 0.347052 0.281641
H20   H     H_    0.212231 0.642141 0.354904 0.197231
H21   H     H_    0.000901 0.648552 0.351253 0.000005
C14   C     C_3   0.115132 0.694125 0.293758 -0.068317
H22   H     H_    0.177658 0.743307 0.291223 0.192015
H23   H     H_    0.994949 0.702339 0.279646 0.145565
P8    P     P_3+3 0.554444 0.576193 0.348549 0.493282
C15   C     C_3   0.556343 0.713226 0.336175 0.455349
H24   H     H_    0.650870 0.704447 0.363876 -0.022745
O23   O     O_2   0.450134 0.516033 0.326856 -0.285610
O24   O     O_3   0.476331 0.650598 0.321230 -0.500997
C16   C     C_3   0.636167 0.738124 0.290942 0.089923
H25   H     H_    0.726513 0.696123 0.278084 0.142122
C17   C     C_R   0.981782 0.444304 0.168922 0.651241
O25   O     O_2   0.967957 0.387582 0.185262 -0.512424
N1    N     N_R   0.943366 0.507051 0.198807 -0.166072
C18   C     C_R   0.932664 0.570928 0.177887 0.670802
C19   C     C_2   0.775540 0.539416 0.271091 -0.169239
C20   C     C_3   0.759005 0.552460 0.326532 0.088022
C21   C     C_1   0.984305 0.472603 0.336134 0.114698
C22   C     C_2   0.024530 0.473452 0.288385 0.306372
C23   C     C_2   0.910015 0.506577 0.251891 0.045762
C24   C     C_R   0.028252 0.511397 0.098861 -0.144539
C25   C     C_R   0.032198 0.445303 0.119258 -0.162162
C26   C     C_R   0.088269 0.382831 0.089187 0.439772
C27   C     C_R   0.982597 0.574974 0.128783 -0.161812
C28   C     C_2   0.839000 0.491390 0.349169 -0.462887
C29   C     C_2   0.327617 0.479341 0.642172 -0.479600
C30   C     C_R   0.197755 0.456506 0.972369 0.069822
C31   C     C_R   0.077017 0.577279 0.974508 0.068169
C32   C     C_R   0.160616 0.518367 0.948578 0.082860
C33   C     C_R   0.294213 0.401436 0.947106 -0.199780
C34   C     C_R   0.346221 0.406057 0.899420 -0.068326
C35   C     C_R   0.300648 0.464775 0.874114 -0.037541
C36   C     C_R   0.205728 0.520938 0.898383 -0.099782
C37   C     C_R   0.156541 0.579520 0.872692 -0.120742
C38   C     C_R   0.201907 0.579481 0.822456 0.539884
N2    N     N_R   0.288991 0.522219 0.798265 -0.164160
C39   C     C_R   0.346079 0.467429 0.824732 0.497596
C40   C     C_2   0.456373 0.506963 0.725133 -0.186433
C41   C     C_3   0.478232 0.496444 0.669397 0.129599
C42   C     C_1   0.198543 0.513272 0.659363 0.354091
C43   C     C_2   0.172933 0.516395 0.708353 0.032194
C44   C     C_2   0.311267 0.517477 0.744491 0.119468
O26   O     O_2   0.434537 0.419995 0.805100 -0.584053
C45   C     C_R   0.138013 0.451953 0.020548 0.025627
C46   C     C_R   0.072190 0.514063 0.048598 0.073491
C47   C     C_R   0.052156 0.578908 0.026700 -0.050898
C48   C     C_R   0.141664 0.387063 0.041502 -0.275649
H26   H     H_    0.558410 0.506941 0.749427 0.163748
H27   H     H_    0.420489 0.362300 0.881972 0.178276
H28   H     H_    0.335804 0.354918 0.964090 0.144911
H29   H     H_    0.181261 0.337490 0.020566 0.167682
O27   O     O_2   0.877785 0.624606 0.202057 -0.569599
C49   C     C_R   0.995377 0.641173 0.109459 0.414518
H30   H     H_    0.687564 0.562612 0.247566 0.206364
C50   C     C_R   0.016071 0.631243 0.946790 -0.271232
C51   C     C_R   0.057201 0.634309 0.897497 0.207004
O28   O     O_2   0.164729 0.630546 0.800228 -0.556775
C52   C     C_R   0.020715 0.643429 0.058491 0.021787
H31   H     H_    0.928944 0.670278 0.962137 0.167805
H32   H     H_    0.774154 0.459890 0.371730 0.166909
H33   H     H_    0.327518 0.445468 0.607128 0.160577
N3    N     N_R   0.543241 0.957784 0.522656 -0.049432
N4    N     N_R   0.487118 0.024828 0.522302 -0.039804
C53   C     C_2   0.448643 0.290326 0.534195 -0.379327
C54   C     C_3   0.320229 0.240373 0.543446 0.045850
C55   C     C_2   0.346861 0.165736 0.515345 0.172328
C56   C     C_2   0.492443 0.146225 0.497677 -0.023594
C57   C     C_2   0.597893 0.204229 0.488560 -0.279168
C58   C     C_1   0.549176 0.272658 0.497400 0.350268
N5    N     N_R   0.682659 0.045532 0.468195 -0.038898
N6    N     N_R   0.739458 0.978057 0.468608 -0.055502
C59   C     C_R   0.670376 0.932638 0.495832 0.165052
C60   C     C_R   0.553230 0.070001 0.494502 0.226917
C61   C     C_R   0.632478 0.808462 0.516016 -0.273651
C62   C     C_R   0.673581 0.735252 0.511522 0.247565
C63   C     C_R   0.913460 0.756497 0.470486 0.221612
C64   C     C_R   0.867927 0.829538 0.472674 -0.258344
C65   C     C_R   0.726237 0.856283 0.495275 0.019142
C66   C     C_R   0.815452 0.709744 0.489712 -0.251747
H34   H     H_    0.718005 0.190204 0.477815 0.192089
H35   H     H_    0.524812 0.827437 0.534458 0.209923
H36   H     H_    0.942102 0.864985 0.456546 0.177840
H37   H     H_    0.444724 0.343560 0.553655 0.166595
N7    N     N_2   0.177200 0.201917 0.356040 -0.103183
H38   H     H_    0.211911 0.221942 0.324569 0.248086
C67   C     C_3   0.188187 0.124762 0.352376 -0.712952
H39   H     H_    0.137117 0.102369 0.316500 0.241233
H40   H     H_    0.121177 0.106196 0.382491 0.268793
H41   H     H_    0.312210 0.104796 0.354679 0.284076
Br1   Br    Br    0.217593 0.808702 0.591148 -0.405844
Br2   Br    Br    0.973642 0.798752 0.673639 -0.420707
N8    N     N_2   0.723147 0.330207 0.318808 -0.144243
H42   H     H_    0.825341 0.328918 0.299211 0.152945
C68   C     C_3   0.589232 0.307743 0.288867 -0.576062
H43   H     H_    0.573360 0.341605 0.258246 0.244849
H44   H     H_    0.480451 0.313933 0.310815 0.278805
H45   H     H_    0.609039 0.251445 0.272448 0.245844
Br3   Br    Br    0.630591 0.162851 0.352327 -0.557241
N9    N     N_2   0.454885 0.277883 0.700016 -0.095031
H46   H     H_    0.441033 0.223758 0.698013 0.164275
C69   C     C_3   0.316396 0.320384 0.716322 -0.825012
H47   H     H_    0.277006 0.304355 0.751790 0.295957
H48   H     H_    0.222058 0.313678 0.688101 0.237279
H49   H     H_    0.341230 0.377217 0.721593 0.270360
Br4   Br    Br    0.374468 0.675373 0.677081 -0.409425
N10   N     N_2   0.691444 0.632994 0.719258 -0.100538
H50   H     H_    0.731051 0.580729 0.710785 0.208474
C70   C     C_3   0.756067 0.666039 0.765194 -0.756003
H51   H     H_    0.749045 0.629622 0.794207 0.213707
H52   H     H_    0.688115 0.716611 0.777573 0.267568
H53   H     H_    0.880379 0.677397 0.760415 0.291065
N11   N     N_2   0.108976 0.091363 0.675478 -0.104469
H54   H     H_    0.101127 0.048814 0.648264 0.189994
C71   C     C_3   0.263952 0.096100 0.697472 -0.769609
H55   H     H_    0.298424 0.045194 0.712494 0.269389
H56   H     H_    0.266314 0.139794 0.728402 0.274596
H57   H     H_    0.350259 0.104490 0.669109 0.206567
Br5   Br    Br    0.218148 0.616543 0.251406 -0.402978
N12   N     N_2   0.441877 0.767826 0.357033 -0.094323
H58   H     H_    0.384280 0.798831 0.332896 0.195392
C72   C     C_3   0.479953 0.805586 0.404358 -0.821759
H59   H     H_    0.380306 0.842732 0.417395 0.281959
H60   H     H_    0.584725 0.836709 0.401784 0.208754
H61   H     H_    0.502532 0.766285 0.431028 0.270435
N13   N     N_2   0.710690 0.805309 0.304477 -0.151737
H62   H     H_    0.638583 0.845678 0.321802 0.188672
C73   C     C_3   0.800658 0.831486 0.266624 -0.702100
H63   H     H_    0.886712 0.868569 0.284347 0.235971
H64   H     H_    0.722187 0.860851 0.242007 0.275849
H65   H     H_    0.864393 0.787312 0.243892 0.286459
Br6   Br    Br    0.490273 0.746762 0.235632 -0.406713
Br7   Br    Br    0.214434 0.422681 0.264722 -0.399116
Br8   Br    Br    0.105871 0.288519 0.110109 -0.400800
Br9   Br    Br    0.009823 0.729490 0.152958 -0.464127
N14   N     N_2   0.993095 0.692130 0.872983 -0.090012
H66   H     H_    0.875565 0.703484 0.879511 0.157594
C74   C     C_3   0.081490 0.755597 0.881078 -0.712135
H67   H     H_    0.030392 0.796331 0.858210 0.251201
H68   H     H_    0.205259 0.743100 0.870218 0.264471
H69   H     H_    0.077361 0.778067 0.920633 0.211002
N15   N     N_2   0.020783 0.508232 0.725984 -0.101311
H70   H     H_    0.980808 0.551084 0.750007 0.193374
C75   C     C_3   0.998722 0.440943 0.745100 -0.713011
H71   H     H_    0.077107 0.433152 0.776981 0.204458
H72   H     H_    0.018760 0.395997 0.715533 0.287194
H73   H     H_    0.876612 0.440157 0.757927 0.262802
N16   N     N_2   0.042633 0.710769 0.041317 -0.109764
H74   H     H_    0.144669 0.734045 0.053401 0.217525
C76   C     C_3   0.906657 0.760339 0.040737 -0.802645
H75   H     H_    0.905771 0.786245 0.006169 0.229641
H76   H     H_    0.911898 0.803204 0.072181 0.287457
H77   H     H_    0.795919 0.732587 0.042248 0.252341
Br10  Br    Br    0.179353 0.101216 0.500740 -0.574187
Br11  Br    Br    0.979064 0.222085 0.722240 -0.502917
N17   N     N_2   0.857279 0.635622 0.486842 -0.099598
H78   H     H_    0.955055 0.617224 0.504653 0.198728
C77   C     C_3   0.816686 0.594212 0.441579 -0.526259
H79   H     H_    0.744172 0.550285 0.448830 0.258801
H80   H     H_    0.915645 0.565198 0.424345 0.210134
H81   H     H_    0.772947 0.629699 0.414343 0.152463
Br12  Br    Br    0.244874 0.360781 0.470174 -0.420708

loop_
_geom_bond_atom_site_label_1
_geom_bond_atom_site_label_2
_geom_bond_distance
_ccdc_geom_bond_type
C39   O26   1.220498 D    
C14   H23   1.100403 S    
C11   H17   1.110006 S    
C13   H21   1.112743 S    
C57   H34   1.084969 S    
N3    N4    1.328970 A    
O19   C13   1.408280 S    
O8    Ba1   2.784412 S    
C17   C25   1.430917 A    
P2    Ba1   3.460946 S    
P8    O23   1.541044 D    
C74   H67   1.110285 S    
C40   H26   1.085414 S    
C2    H4    1.105387 S    
C63   C66   1.402538 A    
C19   C23   1.360892 D    
C31   C47   1.438376 A    
C53   C54   1.531813 S    
N5    C60   1.361108 A    
C71   H55   1.110016 S    
C33   H28   1.078923 S    
N6    C59   1.363167 A    
C27   C49   1.421703 A    
C69   H47   1.109753 S    
N15   H70   1.026792 S    
C76   H77   1.112942 S    
C5    H8    1.106797 S    
Ba2   O20   2.814537 S    
C21   C28   1.318674 D    
P3    O11   1.759993 S    
O1    Ba1   2.847110 S    
N8    H42   1.032023 S    
C8    C9    1.543254 S    
C31   C50   1.407976 A    
C17   N1    1.384305 Am   
O6    C10   1.407477 S    
O11   C2    1.410581 S    
C77   H81   1.102311 S    
C24   C46   1.434489 A    
N12   C72   1.439490 S    
C24   C25   1.421918 A    
C6    H10   1.106332 S    
Ba1   O13   2.769385 S    
C72   H60   1.107825 S    
C26   C48   1.398244 A    
Ba1   O20   3.018779 S    
C61   H35   1.081802 S    
P6    C41   1.856229 S    
C16   N13   1.457886 S    
C11   O22   1.401317 S    
C51   N14   1.422986 S    
C45   C46   1.417858 A    
P7    O22   1.761182 S    
P1    O1    1.552201 D    
C22   Br7   1.923737 S    
N13   C73   1.447407 S    
C42   C43   1.350775 D    
C59   C65   1.491042 S    
C68   H45   1.109171 S    
C40   C41   1.522114 S    
N9    H46   1.030247 S    
C62   C66   1.399057 A    
C72   H59   1.110159 S    
C34   C35   1.404801 A    
C57   C58   1.330790 D    
C67   H41   1.109703 S    
P2    O10   1.764530 S    
C15   C16   1.552956 S    
C75   H73   1.110746 S    
C43   N15   1.420467 S    
P8    O24   1.757741 S    
C15   H24   1.114117 S    
C1    H2    1.110119 S    
H1    C10   1.111342 S    
O3    Ba1   2.731569 S    
C70   H53   1.111052 S    
C38   O28   1.220672 D    
C20   C28   1.495546 S    
C76   H76   1.109907 S    
C14   H22   1.107389 S    
C14   Br5   1.937983 S    
C13   C14   1.524151 S    
N3    C59   1.355590 A    
N14   H66   1.031781 S    
C69   H48   1.106137 S    
C18   O27   1.218364 D    
C13   H20   1.108914 S    
C68   H44   1.110406 S    
C74   H68   1.111211 S    
N13   H62   1.029316 S    
C1    C10   1.526822 S    
C18   C27   1.424267 A    
O2    Ba2   2.770024 S    
C70   H52   1.110688 S    
C36   C37   1.415945 A    
O17   Ba2   2.784827 S    
Ba1   Ba2   4.641097 S    
P5    O17   1.751258 S    
C63   C64   1.406149 A    
C19   H30   1.085419 S    
C16   H25   1.107527 S    
O3    P6    1.743073 S    
C75   H71   1.105101 S    
P4    C21   1.871827 S    
C2    C3    1.534341 S    
P8    C20   1.876293 S    
C4    H7    1.089898 S    
C61   C65   1.413537 A    
N17   H78   1.023125 S    
C7    Br1   1.936485 S    
C72   H61   1.103961 S    
P5    O18   1.544670 D    
C76   H75   1.110028 S    
P5    C63   1.845907 S    
C73   H63   1.109904 S    
P7    O21   1.587908 D    
P1    O2    1.549816 S    
C8    H13   1.101643 S    
C55   Br10  1.939712 S    
C49   C52   1.415422 A    
C73   H64   1.110970 S    
N12   H58   1.030326 S    
C9    H14   1.108024 S    
C56   C60   1.495465 S    
C30   C32   1.417716 A    
C77   H79   1.101716 S    
C48   H29   1.078715 S    
C3    N11   1.455989 S    
C38   N2    1.386183 Am   
P5    O19   1.752663 S    
C35   C36   1.408089 A    
C15   O24   1.414850 S    
P1    Ba1   3.467998 S    
C7    H12   1.109465 S    
O14   Ba2   2.730842 S    
C11   C12   1.529968 S    
C8    N8    1.456588 S    
C5    N7    1.449424 S    
C1    H3    1.103173 S    
P1    C42   1.865332 S    
C29   C42   1.312349 D    
C64   H36   1.082685 S    
O13   Ba2   3.011137 S    
N7    C67   1.445984 S    
N11   H54   1.031947 S    
O5    C6    1.394121 S    
P2    O7    1.567868 D    
C21   C22   1.354377 D    
C69   H49   1.098024 S    
P2    C58   1.880663 S    
P3    O8    1.778500 S    
C68   H43   1.110066 S    
C4    O15   1.396577 S    
C74   H69   1.111655 S    
C67   H40   1.110802 S    
C22   C23   1.541490 S    
C1    H16   1.109260 S    
C26   Br8   1.928341 S    
O7    Ba1   2.848420 S    
O16   P7    1.774318 S    
C56   C57   1.503594 S    
C32   C36   1.435314 A    
O12   Ba2   2.847586 S    
C70   H51   1.110674 S    
C25   C26   1.421019 A    
N14   C74   1.446350 S    
C12   N10   1.448052 S    
C24   C27   1.410578 A    
C16   Br6   1.953272 S    
P4    O12   1.552503 D    
C6    C7    1.541140 S    
N16   C76   1.452817 S    
N1    C18   1.389957 Am   
C5    H9    1.105492 S    
C30   C45   1.431781 A    
C3    H6    1.108090 S    
O14   P8    1.779500 S    
C4    C5    1.526943 S    
C19   C20   1.509892 S    
C71   H56   1.109180 S    
C50   C51   1.403540 A    
C7    Br2   1.940849 S    
C53   H37   1.079341 S    
C37   C51   1.418045 A    
N5    N6    1.338501 A    
C28   H32   1.084412 S    
C50   H31   1.073788 S    
O10   C8    1.404826 S    
C43   C44   1.524396 S    
O16   Ba2   3.017945 S    
N2    C44   1.472769 S    
C45   C48   1.408691 A    
Ba1   O16   2.815014 S    
N8    C68   1.448203 S    
C55   C56   1.361133 D    
C54   C55   1.530640 S    
C73   H65   1.103921 S    
O6    P6    1.753510 S    
C9    H15   1.107769 S    
C53   C58   1.334844 D    
C47   C52   1.425794 A    
C30   C33   1.412708 A    
C6    H11   1.106715 S    
C17   O25   1.218944 D    
C52   N16   1.427826 S    
O2    Ba1   3.010171 S    
C12   H18   1.113380 S    
N10   C70   1.446006 S    
C34   H27   1.083504 S    
P4    Ba2   3.468517 S    
P4    O13   1.549570 S    
C31   C32   1.412638 A    
C29   H33   1.085484 S    
C40   C44   1.354991 D    
N7    H38   1.031790 S    
C3    Br11  1.947314 S    
C33   C34   1.395528 A    
C29   C41   1.506972 S    
C64   C65   1.412378 A    
C71   H57   1.110526 S    
C12   H19   1.097712 S    
C61   C62   1.398482 A    
P7    C62   1.846395 S    
C66   N17   1.418003 S    
N16   H74   1.031225 S    
N1    C23   1.480761 S    
C15   N12   1.455213 S    
P4    O15   1.761098 S    
C9    Br3   1.939661 S    
C77   H80   1.068734 S    
C37   C38   1.429979 A    
N10   H50   1.026561 S    
P3    O9    1.545758 D    
C46   C47   1.423047 A    
P1    O5    1.762567 S    
C75   H72   1.108255 S    
Ba2   O21   2.848411 S    
P3    C54   1.934878 S    
C67   H39   1.110281 S    
O4    P6    1.525676 D    
N9    C69   1.441531 S    
N2    C39   1.389192 Am   
N4    C60   1.357745 A    
C10   N9    1.453081 S    
C35   C39   1.415089 A    
N15   C75   1.450900 S    
C11   Br4   1.933546 S    
N17   C77   1.428873 S    
P2    O20   1.565896 S    
C49   Br9   1.938307 S    
C4    Br12  1.891857 S    
N11   C71   1.448210 S    
C2    H5    1.097374 S    
