data_mof_unit_52426.cif
_audit_creation_date              2012-12-10T17:12:37-0500
_audit_creation_method            fapswitch 2.2
_symmetry_space_group_name_H-M    P1
_symmetry_Int_Tables_number       1
_space_group_crystal_system       triclinic
_cell_length_a                    23.431025
_cell_length_b                    10.557664
_cell_length_c                    10.034674
_cell_angle_alpha                 91.510203
_cell_angle_beta                  89.27937
_cell_angle_gamma                 90.329456
_cell_volume                      2481.25145995

loop_
_atom_site_label
_atom_site_type_symbol
_atom_type_description
_atom_site_fract_x
_atom_site_fract_y
_atom_site_fract_z
_atom_type_partial_charge
C1    C     C_R   0.500652 0.261799 0.497665 0.944758
C2    C     C_R   0.969738 0.242296 0.488651 0.173501
C3    C     C_R   0.029294 0.243189 0.511456 0.173835
C4    C     C_R   0.060121 0.359686 0.507162 -0.079129
C5    C     C_R   0.029899 0.475094 0.502309 -0.059376
C6    C     C_R   0.059630 0.592240 0.504262 0.012158
C7    C     C_R   0.029774 0.706722 0.502118 -0.168626
C8    C     C_R   0.970784 0.706340 0.497839 -0.167263
C9    C     C_R   0.120440 0.366237 0.504613 0.517468
C10   C     C_R   0.118926 0.592520 0.508442 0.497970
C11   C     C_R   0.237658 0.490804 0.386428 -0.144466
C12   C     C_R   0.389340 0.499377 0.500888 0.889881
C13   C     C_R   0.296780 0.496291 0.383805 -0.215655
C14   C     C_R   0.327053 0.495629 0.503386 -0.086720
C15   C     C_R   0.297486 0.489452 0.625711 -0.208317
C16   C     C_R   0.237990 0.483841 0.629019 0.238404
C17   C     C_R   0.208344 0.484510 0.508131 0.325969
C18   C     C_R   0.762293 0.493009 0.612718 -0.147385
C19   C     C_R   0.703221 0.499069 0.615775 -0.218443
C20   C     C_R   0.672853 0.494577 0.496344 -0.077551
C21   C     C_R   0.702239 0.483527 0.373833 -0.226732
C22   C     C_R   0.761635 0.477292 0.369824 0.241311
C23   C     C_R   0.508001 0.737128 0.501469 0.937098
C24   C     C_R   0.791508 0.482257 0.490756 0.333031
C25   C     C_2   0.542879 0.933853 0.398404 0.191823
C26   C     C_2   0.532413 0.864577 0.508604 -0.043872
C27   C     C_2   0.546678 0.071346 0.415145 0.210372
C28   C     C_2   0.504921 0.127760 0.488188 -0.357629
C29   C     C_2   0.545483 0.511243 0.926500 -0.017578
C30   C     C_2   0.545684 0.488363 0.073582 -0.163817
C31   C     C_R   0.610642 0.499221 0.499079 0.866008
C32   C     C_R   0.881264 0.591001 0.491094 0.499956
C33   C     C_R   0.878973 0.364856 0.494732 0.517759
C34   C     C_R   0.939279 0.358725 0.492656 -0.081610
C35   C     C_R   0.969884 0.474686 0.497598 -0.061700
C36   C     C_R   0.940549 0.591469 0.495569 0.010319
H1    H     H_    0.679119 0.479363 0.280924 0.161067
H2    H     H_    0.471364 0.073631 0.536697 0.127081
H3    H     H_    0.214382 0.491610 0.293888 0.145209
H4    H     H_    0.320628 0.488635 0.718499 0.160892
N1    N     N_R   0.852196 0.479151 0.491345 -0.357625
N2    N     N_R   0.147624 0.480919 0.507987 -0.351956
N3    N     N_2   0.500610 0.501330 0.852150 -0.053006
N4    N     N_2   0.500630 0.501360 0.147810 -0.197119
O1    O     O_R   0.499990 0.319060 0.613040 -0.615823
O2    O     O_2   0.846804 0.259109 0.504189 -0.554312
O3    O     O_2   0.152213 0.260270 0.494509 -0.557830
O4    O     O_2   0.148046 0.703308 0.512048 -0.555686
O5    O     O_R   0.500010 0.319100 0.386900 -0.593565
O6    O     O_R   0.416150 0.499940 0.613100 -0.623982
O7    O     O_R   0.416160 0.499980 0.386960 -0.616272
O8    O     O_R   0.499990 0.680900 0.613100 -0.595525
O9    O     O_R   0.500010 0.680940 0.386960 -0.618691
O10   O     O_R   0.583840 0.500020 0.613040 -0.626241
O11   O     O_R   0.583850 0.500060 0.386900 -0.628779
O12   O     O_2   0.852516 0.701342 0.487322 -0.552314
Zn1   Zn    Zn3+2 0.499990 0.499970 0.650990 0.945094
Zn2   Zn    Zn3+2 0.500010 0.500030 0.349010 0.931602
C37   C     C_3   0.940544 0.118336 0.448920 -0.767312
H5    H     H_    0.911544 0.132686 0.364049 0.263501
H6    H     H_    0.971145 0.045801 0.410836 0.210672
H7    H     H_    0.916662 0.079766 0.535207 0.269479
H8    H     H_    0.681448 0.507417 0.711421 0.160595
C38   C     C_3   0.791393 0.465939 0.236172 -0.884558
H9    H     H_    0.780610 0.548816 0.175634 0.242574
H10   H     H_    0.838489 0.462022 0.244240 0.242465
H11   H     H_    0.776853 0.378178 0.183124 0.241448
C39   C     C_3   0.540775 0.881915 0.256320 -0.861551
H12   H     H_    0.553680 0.954679 0.183776 0.235758
H13   H     H_    0.570672 0.801188 0.242916 0.250228
H14   H     H_    0.496604 0.852554 0.230721 0.249444
C40   C     C_3   0.549501 0.912808 0.647318 -0.898880
H15   H     H_    0.576113 0.840705 0.695483 0.251416
H16   H     H_    0.575759 0.000572 0.646318 0.256616
H17   H     H_    0.510741 0.929925 0.709862 0.246021
C41   C     C_3   0.595677 0.142740 0.351473 -0.838612
H18   H     H_    0.628365 0.076025 0.310684 0.240735
H19   H     H_    0.580171 0.200133 0.268371 0.248680
H20   H     H_    0.616632 0.205510 0.426983 0.229001
H21   H     H_    0.585790 0.536908 0.880044 0.122048
C42   C     C_3   0.451965 0.425032 0.894898 -0.588427
H22   H     H_    0.435911 0.368038 0.809206 0.239044
H23   H     H_    0.462950 0.354227 0.970276 0.188856
H24   H     H_    0.416469 0.487341 0.929430 0.169223
H25   H     H_    0.585699 0.463991 0.119275 0.155455
C43   C     C_3   0.058100 0.121659 0.551656 -0.770272
H26   H     H_    0.087353 0.140900 0.636070 0.261927
H27   H     H_    0.027277 0.051118 0.590566 0.210994
H28   H     H_    0.081640 0.078417 0.465367 0.270004
H29   H     H_    0.466757 0.547992 0.107960 0.192656
H30   H     H_    0.051870 0.797177 0.503650 0.187230
H31   H     H_    0.948986 0.796516 0.496321 0.186610
H32   H     H_    0.318678 0.500917 0.288349 0.168111
C44   C     C_3   0.206425 0.477575 0.760264 -0.893445
H33   H     H_    0.177621 0.560301 0.772550 0.254891
H34   H     H_    0.180669 0.389086 0.763213 0.252261
H35   H     H_    0.236127 0.478471 0.845694 0.232825
H36   H     H_    0.785646 0.497088 0.705210 0.144313

loop_
_geom_bond_atom_site_label_1
_geom_bond_atom_site_label_2
_ccdc_geom_bond_type
C24   N1    S    
C10   N2    A    
C26   C40   S    
C35   C36   A    
C41   H20   S    
C12   O7    A    
C42   H22   S    
C7    C8    A    
O1    Zn1   S    
C9    N2    A    
C18   C24   A    
C32   C36   A    
C41   H19   S    
C18   C19   A    
C5    C6    A    
C43   H27   S    
C15   C16   A    
C34   C35   A    
C8    C36   A    
C23   C26   S    
C17   N2    S    
C19   C20   A    
C19   H8    S    
C39   H12   S    
C1    C28   S    
C32   N1    A    
C8    H31   S    
C2    C34   A    
C37   H5    S    
C13   C14   A    
C29   N3    D    
C3    C43   S    
C33   O2    S    
C30   N4    D    
C25   C39   S    
C40   H17   S    
C42   H23   S    
C23   O9    A    
C37   H6    S    
C38   H11   S    
C41   H18   S    
C40   H16   S    
N4    Zn2   S    
C43   H26   S    
C16   C17   A    
C44   H35   S    
C25   C26   D    
O5    Zn2   S    
C13   H32   S    
C38   H10   S    
C11   H3    S    
C29   C30   S    
C28   H2    S    
C7    H30   S    
C33   C34   A    
O7    Zn2   S    
C30   H25   S    
C44   H34   S    
C12   C14   S    
C9    O3    S    
C10   O4    S    
N3    C42   S    
C22   C24   A    
C27   C41   S    
C42   H24   S    
N4    H29   S    
C11   C17   A    
C37   H7    S    
C2    C37   S    
O6    Zn1   S    
C40   H15   S    
C43   H28   S    
C6    C10   A    
C12   O6    A    
O9    Zn2   S    
C6    C7    A    
C25   C27   S    
C16   C44   S    
C33   N1    A    
C38   H9    S    
C2    C3    A    
O10   Zn1   S    
C11   C13   A    
C1    O1    A    
C23   O8    A    
C29   H21   S    
C39   H14   S    
C5    C35   A    
C31   O10   A    
C44   H33   S    
C15   H4    S    
O8    Zn1   S    
N3    Zn1   S    
C22   C38   S    
C4    C5    A    
C21   H1    S    
C20   C21   A    
C39   H13   S    
O11   Zn2   S    
C27   C28   D    
C14   C15   A    
C18   H36   S    
C31   O11   A    
C4    C9    A    
C21   C22   A    
C1    O5    A    
C32   O12   S    
C3    C4    A    
C20   C31   S    
