data_mof_unit_11791.cif
_audit_creation_date              2012-12-10T17:01:28-0500
_audit_creation_method            fapswitch 2.2
_symmetry_space_group_name_H-M    P1
_symmetry_Int_Tables_number       1
_space_group_crystal_system       triclinic
_cell_length_a                    13.100546
_cell_length_b                    10.634677
_cell_length_c                    10.08114
_cell_angle_alpha                 88.626892
_cell_angle_beta                  96.592805
_cell_angle_gamma                 90.936807
_cell_volume                      1394.68605202

loop_
_atom_site_label
_atom_site_type_symbol
_atom_type_description
_atom_site_fract_x
_atom_site_fract_y
_atom_site_fract_z
_atom_type_partial_charge
C1    C     C_R   0.489602 0.262703 0.499871 0.836712
C2    C     C_2   0.453365 0.133847 0.497478 -0.192196
C3    C     C_2   0.544107 0.586224 0.930980 -0.058602
C4    C     C_R   0.298432 0.495393 0.474139 0.867729
C5    C     C_2   0.530967 0.595400 0.076940 -0.044286
C6    C     C_R   0.501612 0.737758 0.498643 0.952777
C7    C     C_R   0.701448 0.494836 0.525861 0.899834
C8    C     C_R   0.813766 0.488592 0.540834 -0.176620
C9    C     C_R   0.186109 0.487609 0.458474 -0.144100
C10   C     C_R   0.022747 0.480816 0.320994 -0.210459
C11   C     C_R   0.128668 0.488330 0.330641 -0.025990
C12   C     C_R   0.028269 0.497959 0.562178 0.068505
C13   C     C_R   0.134234 0.480161 0.573853 -0.089608
C14   C     C_1   0.810840 0.425655 0.301255 0.252820
C15   C     C_2   0.401479 0.084894 0.613324 0.445488
C16   C     C_1   0.607868 0.680618 0.873945 0.282358
C17   C     C_1   0.425902 0.419676 0.892439 0.265197
C18   C     C_2   0.561815 0.715281 0.140811 0.517711
C19   C     C_1   0.825408 0.507982 0.791117 0.261895
C20   C     C_1   0.031948 0.577177 0.794178 0.158531
C21   C     C_1   0.174508 0.488426 0.206736 0.256791
C22   C     C_2   0.184490 0.426741 0.701435 0.472536
C23   C     C_R   0.971525 0.483528 0.435810 0.092385
C24   C     C_R   0.864955 0.470232 0.426252 -0.065012
C25   C     C_R   0.871347 0.509143 0.666542 -0.070758
C26   C     C_R   0.977548 0.522581 0.674689 -0.042693
C27   C     C_2   0.457884 0.932934 0.387740 -0.096894
C28   C     C_2   0.504002 0.871225 0.494231 -0.244569
C29   C     C_2   0.459740 0.068615 0.386029 -0.150289
H1    H     H_    0.510400 0.412815 0.113344 0.180535
H2    H     H_    0.980571 0.476145 0.222134 0.159200
H3    H     H_    0.424320 0.884600 0.299095 0.154197
H4    H     H_    0.541263 0.919241 0.581087 0.140250
H5    H     H_    0.482328 0.113307 0.295632 0.169720
H6    H     H_    0.417350 0.128046 0.710112 0.091640
H7    H     H_    0.518958 0.799819 0.111510 0.004435
H8    H     H_    0.227098 0.487861 0.773142 0.089353
N1    N     N_2   0.501130 0.501330 0.852280 -0.163849
N2    N     N_2   0.501160 0.501360 0.147950 -0.209452
N3    N     N_1   0.768212 0.390028 0.201941 -0.179546
N4    N     N_1   0.659073 0.756575 0.829206 -0.205678
N5    N     N_1   0.364056 0.350635 0.925809 -0.196979
N6    N     N_1   0.790633 0.505424 0.891612 -0.181381
N7    N     N_1   0.074396 0.621816 0.888968 -0.179894
N8    N     N_1   0.211339 0.488037 0.107762 -0.171263
O1    O     O_R   0.499980 0.319060 0.613040 -0.634038
O2    O     O_2   0.640032 0.721941 0.218925 -0.539752
O3    O     O_2   0.176177 0.314533 0.726999 -0.533274
O4    O     O_R   0.500020 0.319100 0.386900 -0.615001
O5    O     O_R   0.346340 0.499960 0.594380 -0.638650
O6    O     O_R   0.346380 0.500000 0.368250 -0.612138
O7    O     O_R   0.499980 0.680900 0.613100 -0.613463
O8    O     O_R   0.500020 0.680940 0.386960 -0.601338
O9    O     O_R   0.653620 0.500000 0.631750 -0.616917
O10   O     O_R   0.653660 0.500040 0.405620 -0.570567
O11   O     O_2   0.337323 0.000109 0.600384 -0.529486
Zn1   Zn    Zn3+2 0.499980 0.499970 0.650990 0.980964
Zn2   Zn    Zn3+2 0.500020 0.500030 0.349010 1.003176

loop_
_geom_bond_atom_site_label_1
_geom_bond_atom_site_label_2
_ccdc_geom_bond_type
C13   C22   S    
C22   O3    D    
C23   C24   A    
C29   H5    S    
C8    C25   A    
C3    C16   S    
C10   C23   A    
C27   C29   S    
N1    Zn1   S    
O5    Zn1   S    
C7    O10   A    
O8    Zn2   S    
C15   O11   D    
C22   H8    S    
C4    C9    S    
C7    C8    S    
O6    Zn2   S    
C18   O2    D    
C2    C15   S    
C9    C11   A    
C12   C23   A    
C20   C26   S    
C2    C29   D    
C10   H2    S    
C15   H6    S    
C8    C24   A    
C19   N6    T    
C28   H4    S    
C20   N7    T    
C21   N8    T    
C17   N1    S    
C5    N2    D    
O1    Zn1   S    
C12   C26   A    
C19   C25   S    
C1    O1    A    
C10   C11   A    
C27   H3    S    
C4    O6    A    
C14   N3    T    
C27   C28   D    
C12   C13   A    
C1    C2    S    
O7    Zn1   S    
O10   Zn2   S    
C14   C24   S    
H1    N2    S    
C9    C13   A    
C17   N5    T    
C5    C18   S    
C6    O8    A    
C7    O9    A    
C6    O7    A    
C25   C26   A    
N2    Zn2   S    
C18   H7    S    
C16   N4    T    
C11   C21   S    
C6    C28   S    
O4    Zn2   S    
C3    N1    D    
C4    O5    A    
C3    C5    S    
O9    Zn1   S    
C1    O4    A    
