data_mof_unit_9007.cif
_audit_creation_date              2012-12-10T19:11:04-0500
_audit_creation_method            fapswitch 2.2
_symmetry_space_group_name_H-M    P1
_symmetry_Int_Tables_number       1
_space_group_crystal_system       triclinic
_cell_length_a                    10.816541
_cell_length_b                    9.091095
_cell_length_c                    7.774417
_cell_angle_alpha                 89.999416
_cell_angle_beta                  90.073598
_cell_angle_gamma                 89.998211
_cell_volume                      764.490459052

loop_
_atom_site_label
_atom_site_type_symbol
_atom_type_description
_atom_site_fract_x
_atom_site_fract_y
_atom_site_fract_z
_atom_type_partial_charge
C1    C     C_R   0.500000 0.219991 0.500001 0.901344
C2    C     C_R   0.259598 0.494869 0.499810 0.859043
C3    C     C_R   0.740403 0.494846 0.500192 0.859034
C4    C     C_R   0.499995 0.780014 0.499999 0.802570
C5    C     C_1   0.499998 0.065371 0.500001 -0.096828
C6    C     C_3   0.072795 0.406793 0.656935 -0.012703
C7    C     C_3   0.069231 0.426263 0.329316 -0.001699
C8    C     C_3   0.930781 0.426497 0.670840 -0.001716
C9    C     C_3   0.927220 0.406557 0.343258 -0.012777
C10   C     C_1   0.499996 0.934642 0.499999 -0.141447
C11   C     C_3   0.074137 0.665528 0.515111 0.233992
C12   C     C_3   0.925852 0.665496 0.484573 0.234073
C13   C     C_3   0.122199 0.498071 0.499669 -0.107841
C14   C     C_3   0.877805 0.498057 0.500339 -0.107819
Cu1   Cu    Cu3+1 0.500000 0.500010 0.669080 1.035920
Cu2   Cu    Cu3+1 0.500000 0.500010 0.330920 1.035878
H1    H     H_    0.113600 0.448911 0.778386 0.155749
H2    H     H_    0.085233 0.505314 0.223701 0.118157
H3    H     H_    0.914766 0.505701 0.776303 0.118071
H4    H     H_    0.886409 0.448494 0.221720 0.155879
N1    N     N_1   0.500000 0.499970 0.076820 -0.029400
N2    N     N_1   0.500000 0.499970 0.923180 -0.029385
O1    O     O_R   0.500000 0.288400 0.642760 -0.557520
O2    O     O_R   0.500000 0.288400 0.357240 -0.557524
O3    O     O_R   0.317700 0.499990 0.642790 -0.594224
O4    O     O_R   0.317700 0.499990 0.357210 -0.574430
O5    O     O_R   0.682300 0.499990 0.642790 -0.574386
O6    O     O_R   0.682300 0.499990 0.357210 -0.594263
O7    O     O_R   0.500000 0.711620 0.642810 -0.583154
O8    O     O_R   0.500000 0.711620 0.357190 -0.583166
I1    I     I_    0.143130 0.182881 0.669887 -0.297125
I2    I     I_    0.167277 0.242167 0.210258 -0.260016
I3    I     I_    0.832770 0.242527 0.790300 -0.259913
I4    I     I_    0.856931 0.182594 0.330773 -0.297504
C15   C     C_3   0.110311 0.731877 0.695091 -0.798565
H5    H     H_    0.063010 0.679625 0.805098 0.197466
H6    H     H_    0.211076 0.725376 0.719320 0.246339
H7    H     H_    0.087912 0.850652 0.701755 0.273577
C16   C     C_3   0.143442 0.768900 0.385570 -0.741523
H8    H     H_    0.243281 0.776820 0.416697 0.219863
H9    H     H_    0.137407 0.733091 0.249966 0.215314
H10   H     H_    0.107315 0.883040 0.393978 0.270102
C17   C     C_3   0.856531 0.769026 0.613921 -0.741483
H11   H     H_    0.862594 0.733435 0.749605 0.215315
H12   H     H_    0.892617 0.883173 0.605266 0.270143
H13   H     H_    0.756680 0.776837 0.582822 0.219792
C18   C     C_3   0.889681 0.731600 0.304469 -0.798592
H14   H     H_    0.788916 0.725090 0.280262 0.246452
H15   H     H_    0.912087 0.850366 0.297569 0.273498
H16   H     H_    0.936974 0.679190 0.194562 0.197431

loop_
_geom_bond_atom_site_label_1
_geom_bond_atom_site_label_2
_ccdc_geom_bond_type
C2    O4    A    
Cu2   O6    S    
C4    O7    A    
C6    C8    S    
C9    C14   S    
Cu1   O7    S    
Cu2   N1    S    
C2    O3    A    
C17   H12   S    
C9    H4    S    
Cu1   O5    S    
C15   H5    S    
C18   H16   S    
C11   C12   S    
C7    H2    S    
C3    O5    A    
C6    I1    S    
C5    C10   T    
Cu2   O2    S    
N1    N2    T    
C6    C13   S    
C11   C16   S    
C11   C13   S    
C3    C14   S    
C12   C18   S    
C1    C5    S    
Cu1   O1    S    
C3    O6    A    
C15   H6    S    
C12   C14   S    
C1    O1    A    
C12   C17   S    
C8    I3    S    
C17   H11   S    
Cu2   O4    S    
C9    I4    S    
C17   H13   S    
Cu1   O3    S    
C8    H3    S    
C4    C10   S    
Cu1   Cu2   S    
C6    H1    S    
C7    C13   S    
C15   H7    S    
C16   H9    S    
C1    O2    A    
C18   H15   S    
C16   H8    S    
C7    C9    S    
C2    C13   S    
C16   H10   S    
C8    C14   S    
C7    I2    S    
Cu2   O8    S    
C11   C15   S    
Cu1   N2    S    
C4    O8    A    
C18   H14   S    
