data_mof_unit_13512.cif
_audit_creation_date              2012-12-10T19:09:30-0500
_audit_creation_method            fapswitch 2.2
_symmetry_space_group_name_H-M    P1
_symmetry_Int_Tables_number       1
_space_group_crystal_system       triclinic
_cell_length_a                    15.440161
_cell_length_b                    15.01286
_cell_length_c                    9.698115
_cell_angle_alpha                 90.858463
_cell_angle_beta                  90.001201
_cell_angle_gamma                 89.999786
_cell_volume                      2247.78019051

loop_
_atom_site_label
_atom_site_type_symbol
_atom_type_description
_atom_site_fract_x
_atom_site_fract_y
_atom_site_fract_z
_atom_type_partial_charge
C1    C     C_R   0.120628 0.377568 0.499470 0.996515
C2    C     C_R   0.877134 0.619196 0.499815 0.905045
C3    C     C_R   0.377134 0.880802 0.500182 0.905036
C4    C     C_R   0.377135 0.119199 0.499816 0.905039
C5    C     C_3   0.781298 0.293843 0.652339 -0.433796
C6    C     C_3   0.844533 0.227438 0.439647 -0.395264
C7    C     C_3   0.781278 0.706140 0.347665 -0.433811
C8    C     C_3   0.844527 0.772555 0.560345 -0.395309
C9    C     C_3   0.281266 0.793877 0.652326 -0.433764
C10   C     C_3   0.344533 0.727433 0.439681 -0.395224
C11   C     C_3   0.281272 0.206130 0.347667 -0.433789
C12   C     C_R   0.120628 0.622433 0.500530 0.996533
C13   C     C_3   0.344532 0.272565 0.560320 -0.395261
C14   C     C_3   0.202513 0.731941 0.651988 0.285970
C15   C     C_3   0.277492 0.652274 0.448989 0.252194
C16   C     C_3   0.202518 0.268069 0.348004 0.286032
C17   C     C_3   0.277492 0.347728 0.551006 0.252256
C18   C     C_3   0.702545 0.231906 0.652006 0.286005
C19   C     C_3   0.777498 0.152271 0.448969 0.252181
C20   C     C_3   0.702520 0.768071 0.348002 0.285985
C21   C     C_3   0.777490 0.847717 0.551027 0.252286
C22   C     C_3   0.729839 0.344960 0.416056 -0.357835
C23   C     C_R   0.620628 0.877567 0.499470 0.996557
C24   C     C_3   0.729840 0.655032 0.583961 -0.357823
C25   C     C_3   0.229848 0.844954 0.415998 -0.357797
C26   C     C_3   0.229846 0.155043 0.583978 -0.357812
C27   C     C_3   0.808802 0.313630 0.502311 -0.033337
C28   C     C_3   0.808794 0.686360 0.497689 -0.033321
C29   C     C_3   0.308795 0.813637 0.502302 -0.033375
C30   C     C_3   0.308796 0.186365 0.497691 -0.033340
C31   C     C_3   0.187898 0.692470 0.501005 -0.168245
C32   C     C_3   0.187897 0.307530 0.498990 -0.168269
C33   C     C_3   0.687906 0.192462 0.501012 -0.168228
C34   C     C_R   0.620634 0.122426 0.500531 0.996616
C35   C     C_3   0.687895 0.807527 0.498990 -0.168243
C36   C     C_3   0.160923 0.770745 0.407468 -0.326630
C37   C     C_3   0.160921 0.229250 0.592513 -0.326686
C38   C     C_3   0.660919 0.270750 0.407510 -0.326722
C39   C     C_3   0.660915 0.729239 0.592500 -0.326662
C40   C     C_3   0.040309 0.419003 0.078294 -0.185231
C41   C     C_3   0.045342 0.422001 0.916768 -0.238026
C42   C     C_3   0.040280 0.581009 0.921712 -0.185323
C43   C     C_3   0.045332 0.578006 0.083236 -0.237982
C44   C     C_3   0.540340 0.919019 0.078290 -0.185247
C45   C     C_3   0.909261 0.502735 0.081391 -0.241419
C46   C     C_3   0.545375 0.922021 0.916767 -0.237972
C47   C     C_3   0.540257 0.081028 0.921708 -0.185208
C48   C     C_3   0.545288 0.078036 0.083238 -0.237964
C49   C     C_3   0.909263 0.497243 0.918602 -0.241412
C50   C     C_3   0.409258 0.002693 0.081393 -0.241403
C51   C     C_3   0.409261 0.997210 0.918602 -0.241390
C52   C     C_R   0.877137 0.380798 0.500184 0.905041
H1    H     H_    0.768449 0.357155 0.709888 0.236125
H2    H     H_    0.905715 0.207062 0.491349 0.191569
H3    H     H_    0.835630 0.738775 0.292041 0.159065
H4    H     H_    0.905710 0.792931 0.508643 0.191538
H5    H     H_    0.335617 0.761257 0.707985 0.159080
H6    H     H_    0.405718 0.707065 0.491391 0.191561
H7    H     H_    0.335625 0.238754 0.292023 0.159053
H8    H     H_    0.405703 0.292939 0.508589 0.191512
H9    H     H_    0.217491 0.676516 0.722435 0.104060
H10   H     H_    0.300260 0.604597 0.527832 0.137971
H11   H     H_    0.217500 0.323498 0.277569 0.103951
H12   H     H_    0.858909 0.241893 0.330494 0.245568
H13   H     H_    0.300253 0.395405 0.472160 0.137851
H14   H     H_    0.717537 0.176467 0.722424 0.104110
H15   H     H_    0.800275 0.104593 0.527805 0.138016
H16   H     H_    0.717497 0.823503 0.277569 0.104037
H17   H     H_    0.800260 0.895394 0.472185 0.137937
H18   H     H_    0.701735 0.406454 0.462971 0.216120
H19   H     H_    0.750335 0.362008 0.309605 0.194212
H20   H     H_    0.701739 0.593533 0.537064 0.216123
H21   H     H_    0.750345 0.637994 0.690413 0.194208
H22   H     H_    0.201741 0.906459 0.462867 0.216132
H23   H     H_    0.768429 0.642829 0.290121 0.236119
H24   H     H_    0.250360 0.861981 0.309548 0.194207
H25   H     H_    0.201741 0.093539 0.537094 0.216116
H26   H     H_    0.250357 0.138015 0.690432 0.194213
H27   H     H_    0.096713 0.797751 0.438628 0.221372
H28   H     H_    0.153231 0.747898 0.298925 0.228711
H29   H     H_    0.096716 0.202249 0.561348 0.221385
H30   H     H_    0.153234 0.252095 0.701057 0.228704
H31   H     H_    0.596712 0.297746 0.438688 0.221391
H32   H     H_    0.653232 0.247913 0.298960 0.228699
H33   H     H_    0.596707 0.702241 0.561334 0.221394
H34   H     H_    0.858909 0.758103 0.669498 0.245571
H35   H     H_    0.653230 0.752077 0.701050 0.228730
H36   H     H_    0.002230 0.359730 0.106598 0.191511
H37   H     H_    0.018388 0.359534 0.870921 0.167611
H38   H     H_    0.002174 0.640267 0.893429 0.191561
H39   H     H_    0.018390 0.640476 0.129111 0.167597
H40   H     H_    0.502281 0.859731 0.106585 0.191482
H41   H     H_    0.518454 0.859536 0.870905 0.167648
H42   H     H_    0.502138 0.140278 0.893393 0.191486
H43   H     H_    0.518284 0.140489 0.129081 0.167570
H44   H     H_    0.106232 0.410318 0.121213 0.190951
H45   H     H_    0.268404 0.857203 0.709835 0.236114
H46   H     H_    0.114101 0.425047 0.885583 0.235758
H47   H     H_    0.106192 0.589725 0.878781 0.190894
H48   H     H_    0.114102 0.574946 0.114387 0.235820
H49   H     H_    0.606264 0.910351 0.121214 0.190880
H50   H     H_    0.614137 0.925111 0.885598 0.235750
H51   H     H_    0.606179 0.089759 0.878795 0.190901
H52   H     H_    0.614055 0.075044 0.114442 0.235785
H53   H     H_    0.870385 0.446887 0.123016 0.168839
H54   H     H_    0.876374 0.434869 0.884162 0.166779
H55   H     H_    0.870375 0.553080 0.876977 0.168841
H56   H     H_    0.358914 0.741876 0.330521 0.245606
H57   H     H_    0.876358 0.565105 0.115828 0.166780
H58   H     H_    0.370409 0.946819 0.123007 0.168825
H59   H     H_    0.376390 0.934822 0.884153 0.166779
H60   H     H_    0.370353 0.053039 0.876980 0.168818
H61   H     H_    0.376321 0.065042 0.115846 0.166773
H62   H     H_    0.980941 0.768037 0.776069 0.388074
H63   H     H_    0.240619 0.467741 0.198158 0.368010
H64   H     H_    0.980931 0.232015 0.223918 0.387973
H65   H     H_    0.240519 0.532198 0.801878 0.368067
H66   H     H_    0.480950 0.267997 0.776025 0.387982
H67   H     H_    0.268414 0.142809 0.290144 0.236116
H68   H     H_    0.740559 0.967785 0.198122 0.368058
H69   H     H_    0.480944 0.732057 0.223881 0.387947
H70   H     H_    0.740499 0.032162 0.801900 0.368098
H71   H     H_    0.358933 0.258124 0.669473 0.245544
H72   H     H_    0.835659 0.261213 0.707954 0.159074
N1    N     N_3   0.998760 0.500000 0.138610 -0.071868
N2    N     N_3   0.998760 0.500000 0.861390 -0.071881
N3    N     N_3   0.498760 0.000000 0.138610 -0.071875
N4    N     N_3   0.498760 0.000000 0.861390 -0.071929
O1    O     O_R   0.092530 0.407440 0.616040 -0.585866
O2    O     O_R   0.907330 0.407420 0.383960 -0.616774
O3    O     O_R   0.907330 0.592580 0.383960 -0.652558
O4    O     O_R   0.907330 0.592580 0.616040 -0.616738
O5    O     O_R   0.407330 0.907420 0.616040 -0.652548
O6    O     O_R   0.407330 0.907420 0.383960 -0.616785
O7    O     O_R   0.407330 0.092580 0.383960 -0.652545
O8    O     O_R   0.407330 0.092580 0.616040 -0.616782
O9    O     O_2   0.128923 0.797411 0.883024 -0.304228
O10   O     O_2   0.108043 0.885958 0.676469 -0.274165
O11   O     O_3   0.017980 0.743275 0.701559 -0.592315
O12   O     O_R   0.092530 0.407440 0.383960 -0.566397
O13   O     O_2   0.252185 0.650235 0.170176 -0.339947
O14   O     O_2   0.375369 0.567605 0.259560 -0.245359
O15   O     O_3   0.225027 0.497923 0.286198 -0.594010
O16   O     O_2   0.128893 0.202723 0.116928 -0.304325
O17   O     O_2   0.108099 0.114032 0.323334 -0.274063
O18   O     O_3   0.017982 0.256691 0.298521 -0.592203
O19   O     O_2   0.252169 0.349833 0.829833 -0.340007
O20   O     O_2   0.375392 0.432386 0.740401 -0.245314
O21   O     O_3   0.225086 0.502120 0.713695 -0.594086
O22   O     O_2   0.628911 0.297176 0.883124 -0.304350
O23   O     O_R   0.092530 0.592560 0.383960 -0.585810
O24   O     O_2   0.608158 0.385959 0.676800 -0.274074
O25   O     O_3   0.518008 0.243314 0.701443 -0.592206
O26   O     O_2   0.752185 0.150183 0.170130 -0.339947
O27   O     O_2   0.875392 0.067605 0.259587 -0.245317
O28   O     O_3   0.725069 0.997891 0.286257 -0.594076
O29   O     O_2   0.628891 0.702709 0.116924 -0.304311
O30   O     O_2   0.608106 0.614032 0.323354 -0.274067
O31   O     O_3   0.517984 0.756687 0.298527 -0.592188
O32   O     O_2   0.752085 0.849814 0.829832 -0.340097
O33   O     O_2   0.875380 0.932307 0.740525 -0.245276
O34   O     O_R   0.092530 0.592560 0.616040 -0.566395
O35   O     O_3   0.725118 0.002127 0.713670 -0.594158
O36   O     O_R   0.592530 0.907440 0.616040 -0.585878
O37   O     O_R   0.592530 0.907440 0.383960 -0.566423
O38   O     O_R   0.592530 0.092560 0.383960 -0.585873
O39   O     O_R   0.592530 0.092560 0.616040 -0.566427
O40   O     O_R   0.907330 0.407420 0.616040 -0.652556
S1    S     S_3+6 0.113100 0.792653 0.730060 0.000358
S2    S     S_3+6 0.282301 0.592226 0.285618 -0.005270
S3    S     S_3+6 0.113108 0.207371 0.269896 0.000409
S4    S     S_3+6 0.282315 0.407793 0.714353 -0.005280
S5    S     S_3+6 0.613141 0.292595 0.730149 0.000394
S6    S     S_3+6 0.782314 0.092210 0.285618 -0.005273
S7    S     S_3+6 0.613110 0.707368 0.269897 0.000425
S8    S     S_3+6 0.782298 0.907770 0.714381 -0.005300
Zn1   Zn    Zn3+2 0.999890 0.500000 0.654960 0.976173
Zn2   Zn    Zn3+2 0.999890 0.500000 0.345040 0.976191
Zn3   Zn    Zn3+2 0.499890 0.000000 0.654960 0.976132
Zn4   Zn    Zn3+2 0.499890 0.000000 0.345040 0.976154

loop_
_geom_bond_atom_site_label_1
_geom_bond_atom_site_label_2
_ccdc_geom_bond_type
O39   Zn3   S    
O17   S3    D    
C44   N3    S    
C51   H60   S    
C48   H43   S    
C38   H31   S    
O21   S4    S    
C41   H37   S    
C10   C29   S    
C7    H3    S    
C14   C31   S    
C11   H67   S    
C43   N1    S    
C17   S4    S    
C47   N4    S    
C49   H55   S    
C13   H8    S    
C27   C52   S    
C6    C19   S    
C46   H50   S    
O8    Zn3   S    
O28   S6    S    
C26   H26   S    
N2    Zn1   S    
N3    Zn4   S    
C46   N4    S    
C10   H6    S    
C40   H44   S    
O7    Zn4   S    
C1    O1    A    
C10   C15   S    
C13   H71   S    
C45   H57   S    
C24   H21   S    
C51   H59   S    
C20   S7    S    
O40   Zn1   S    
C48   H52   S    
O25   S5    S    
C50   H58   S    
C24   C39   S    
H66   O25   S    
C25   H22   S    
C6    H12   S    
C3    C29   S    
C16   C32   S    
O34   Zn1   S    
O2    Zn2   S    
C23   O37   A    
C20   C35   S    
C10   H56   S    
C15   H10   S    
C47   C48   S    
C11   C30   S    
C45   H53   S    
O12   Zn2   S    
C19   H15   S    
C16   H11   S    
C39   H35   S    
O9    S1    D    
C44   H40   S    
C9    C29   S    
O4    Zn1   S    
C4    O8    A    
O31   S7    S    
O18   S3    S    
O10   S1    D    
C8    H4    S    
O32   S8    D    
C12   O23   A    
C37   H29   S    
C6    H2    S    
C14   S1    S    
C11   H7    S    
O35   S8    S    
O3    Zn2   S    
C44   C46   S    
C2    O3    A    
C25   C29   S    
H63   O15   S    
C26   H25   S    
C47   H51   S    
O26   S6    D    
C13   C30   S    
C43   H48   S    
C19   C33   S    
C45   N1    S    
O33   S8    D    
C42   N2    S    
O5    Zn3   S    
O23   Zn2   S    
C7    H23   S    
C5    C18   S    
C42   H38   S    
C32   C37   S    
C14   H9    S    
O1    Zn1   S    
C1    C32   S    
C43   H39   S    
C7    C28   S    
C15   S2    S    
C21   H17   S    
C3    O5    A    
C35   C39   S    
C9    C14   S    
C49   N2    S    
C5    H72   S    
C11   C16   S    
C2    O4    A    
C6    C27   S    
O16   S3    D    
H68   O28   S    
C45   C49   S    
C21   S8    S    
C5    C27   S    
C50   C51   S    
N4    Zn3   S    
H62   O11   S    
C1    O12   A    
O36   Zn3   S    
O29   S7    D    
C4    O7    A    
O24   S5    D    
O27   S6    D    
C40   C41   S    
C26   C30   S    
C23   C35   S    
C22   C27   S    
C12   C31   S    
C36   H28   S    
C8    C28   S    
C37   H30   S    
O38   Zn4   S    
C42   C43   S    
C51   N4    S    
C34   O39   A    
C22   H19   S    
O19   S4    D    
C24   H20   S    
C23   O36   A    
C5    H1    S    
O37   Zn4   S    
C9    H45   S    
C38   H32   S    
C31   C36   S    
C41   N2    S    
C20   H16   S    
C24   C28   S    
O15   S2    S    
C36   H27   S    
C8    C21   S    
H65   O21   S    
C44   H49   S    
C26   C37   S    
C15   C31   S    
C49   H54   S    
C21   C35   S    
C18   H14   S    
C17   H13   S    
C33   C38   S    
C13   C17   S    
C3    O6    A    
C52   O2    A    
C50   H61   S    
C19   S6    S    
C42   H47   S    
C52   O40   A    
C48   N3    S    
H64   O18   S    
C16   S3    S    
C40   H36   S    
C46   H41   S    
C40   N1    S    
O13   S2    D    
O20   S4    D    
C47   H42   S    
C33   C34   S    
O11   S1    S    
C9    H5    S    
C18   C33   S    
H70   O35   S    
C25   C36   S    
C12   O34   A    
C18   S5    S    
O30   S7    D    
O22   S5    D    
C25   H24   S    
C8    H34   S    
C7    C20   S    
H69   O31   S    
N1    Zn2   S    
C17   C32   S    
C39   H33   S    
C41   H46   S    
C2    C28   S    
C50   N3    S    
O6    Zn4   S    
C34   O38   A    
C22   H18   S    
C4    C30   S    
O14   S2    D    
C22   C38   S    
