data_mof_unit_46611.cif
_audit_creation_date              2012-12-11T16:53:44-0500
_audit_creation_method            fapswitch 2.2
_symmetry_space_group_name_H-M    P1
_symmetry_Int_Tables_number       1
_space_group_crystal_system       triclinic
_cell_length_a                    14.996712
_cell_length_b                    14.730931
_cell_length_c                    17.012018
_cell_angle_alpha                 108.081794
_cell_angle_beta                  105.909939
_cell_angle_gamma                 108.428462
_cell_volume                      3087.23095595

loop_
_atom_site_label
_atom_site_type_symbol
_atom_type_description
_atom_site_fract_x
_atom_site_fract_y
_atom_site_fract_z
_atom_type_partial_charge
C1    C     C_R   0.085144 0.283267 0.074960 -0.151640
C2    C     C_R   0.062314 0.546679 0.263694 -0.138284
C3    C     C_R   0.272582 0.789230 0.176910 0.135892
C4    C     C_R   0.938212 0.520118 0.747296 -0.137316
C5    C     C_R   0.697628 0.401704 0.992970 0.226470
C6    C     C_R   0.318599 0.791150 0.259194 0.027581
C7    C     C_R   0.641375 0.435732 0.940529 0.031733
C8    C     C_R   0.970644 0.534129 0.273128 0.064005
C9    C     C_R   0.993467 0.821108 0.981760 0.065565
C10   C     C_R   0.471009 0.522553 0.024979 0.107580
C11   C     C_R   0.374388 0.447412 0.957344 0.031344
C12   C     C_R   0.028628 0.577763 0.743664 0.061179
C13   C     C_R   0.363532 0.358544 0.886828 -0.209004
C14   C     C_R   0.452051 0.353270 0.878789 -0.206242
C15   C     C_R   0.548304 0.437424 0.941239 0.014003
C16   C     C_R   0.733555 0.207695 0.823889 -0.232636
C17   C     C_R   0.557301 0.517710 0.016396 0.162703
C18   C     C_3   0.613689 0.635760 0.051354 -0.000513
C19   C     C_3   0.518269 0.641314 0.063098 -0.562617
C20   C     C_R   0.961353 0.577163 0.359326 0.129555
C21   C     C_R   0.035528 0.616156 0.674249 0.132169
C22   C     C_R   0.137011 0.687177 0.599910 -0.229441
C23   C     C_R   0.681211 0.204292 0.743368 0.001131
C24   C     C_R   0.131759 0.670228 0.674949 -0.175653
C25   C     C_R   0.944783 0.589204 0.601279 -0.286911
C26   C     C_R   0.949412 0.600577 0.524281 0.190795
C27   C     C_R   0.046260 0.646667 0.522458 0.199174
C28   C     C_R   0.258896 0.534060 0.949298 -0.131264
C29   C     C_R   0.051055 0.639973 0.440516 -0.296094
C30   C     C_R   0.864606 0.542407 0.363092 -0.171126
C31   C     C_R   0.858701 0.555908 0.445793 -0.224917
C32   C     C_R   0.606333 0.106871 0.666875 0.147973
C33   C     C_R   0.386499 0.883701 0.341328 0.128349
C34   C     C_R   0.287877 0.459946 0.966578 0.072170
C35   C     C_R   0.401903 0.040477 0.454777 -0.234136
C36   C     C_R   0.358684 0.967263 0.365091 -0.167579
C37   C     C_R   0.461048 0.875531 0.404054 -0.314110
C38   C     C_R   0.505192 0.948471 0.493319 0.202872
C39   C     C_R   0.474060 0.030530 0.519232 0.185698
C40   C     C_R   0.731180 0.302845 0.744550 0.260830
C41   C     C_R   0.520432 0.105128 0.608278 -0.292333
C42   C     C_R   0.632665 0.021957 0.644013 -0.174962
C43   C     C_R   0.580369 0.941143 0.557078 -0.240349
C44   C     C_R   0.076201 0.119625 0.152709 0.060239
C45   C     C_R   0.265577 0.694364 0.256337 -0.183259
C46   C     C_R   0.991861 0.107719 0.081839 0.034405
C47   C     C_R   0.899469 0.013465 0.044438 -0.188630
C48   C     C_R   0.889837 0.941941 0.084210 -0.194964
C49   C     C_R   0.973144 0.960793 0.159673 0.028250
C50   C     C_R   0.068121 0.044928 0.187419 0.144368
C51   C     C_3   0.143201 0.125235 0.280921 -0.559685
C52   C     C_R   0.253144 0.437757 0.028438 -0.129937
C53   C     C_3   0.149195 0.209411 0.245252 -0.079863
C54   C     C_R   0.108709 0.601838 0.822455 -0.138659
C55   C     C_R   0.914462 0.200376 0.998373 -0.122045
C56   C     C_R   0.706550 0.503519 0.920135 -0.240527
C57   C     C_R   0.998211 0.189921 0.047591 0.056516
C58   C     C_3   0.325842 0.854766 0.136440 -0.469375
C59   C     C_3   0.434663 0.862761 0.153994 -0.227633
C60   C     C_3   0.481498 0.914631 0.100948 -0.941601
C61   C     C_3   0.652982 0.299917 0.001757 -0.388342
C62   C     C_3   0.591982 0.305061 0.060470 -0.925562
C63   C     C_3   0.713565 0.691692 0.139335 -0.285834
C64   C     C_3   0.710987 0.644863 0.207938 -0.886392
C65   C     C_3   0.103721 0.283083 0.285938 -0.324154
C66   C     C_3   0.176824 0.362259 0.384920 -0.281105
C67   C     C_R   0.890529 0.465965 0.187664 -0.149418
C68   C     C_3   0.126308 0.424670 0.429881 -0.911377
C69   C     C_3   0.686903 0.347443 0.683932 -0.399047
C70   C     C_3   0.697577 0.309050 0.594105 -0.898399
C71   C     C_R   0.080140 0.806732 0.018517 -0.142124
C72   C     C_R   0.910097 0.721848 0.942353 -0.125572
H1    H     H_    0.161209 0.308381 0.124965 0.089297
H2    H     H_    0.626006 0.659165 0.997532 0.096890
H3    H     H_    0.528965 0.678979 0.134657 0.199827
H4    H     H_    0.478922 0.670240 0.017836 0.180732
H5    H     H_    0.126086 0.673003 0.439781 0.124613
H6    H     H_    0.793661 0.497869 0.302199 0.116244
H7    H     H_    0.211957 0.723577 0.599599 0.129664
H8    H     H_    0.783669 0.522191 0.446756 0.125918
H9    H     H_    0.203149 0.694190 0.730790 0.114474
H10   H     H_    0.869511 0.550203 0.599453 0.119079
H11   H     H_    0.496023 0.166819 0.629349 0.121651
H12   H     H_    0.686073 0.539602 0.875834 0.112085
H13   H     H_    0.712653 0.147873 0.848246 0.116201
H14   H     H_    0.698805 0.022612 0.690836 0.130402
H15   H     H_    0.378667 0.103775 0.473738 0.129135
H16   H     H_    0.603493 0.877738 0.538227 0.129853
H17   H     H_    0.298152 0.971020 0.315745 0.118844
H18   H     H_    0.480391 0.809306 0.383783 0.125631
H19   H     H_    0.832925 0.996935 0.987213 0.120982
H20   H     H_    0.816633 0.873809 0.058420 0.120586
H21   H     H_    0.108018 0.128002 0.330810 0.198739
H22   H     H_    0.216142 0.116749 0.300587 0.174911
H23   H     H_    0.809662 0.441437 0.170273 0.118384
H24   H     H_    0.280483 0.574717 0.909620 0.099046
H25   H     H_    0.226814 0.252100 0.248278 0.126588
H26   H     H_    0.269410 0.389528 0.061713 0.099291
H27   H     H_    0.188077 0.659040 0.848670 0.083331
H28   H     H_    0.834259 0.151121 0.979431 0.083992
H29   H     H_    0.287388 0.666156 0.306750 0.107743
H30   H     H_    0.433819 0.866381 0.026831 0.255077
H31   H     H_    0.486578 0.996022 0.120884 0.266368
H32   H     H_    0.560360 0.920006 0.115810 0.251758
H33   H     H_    0.485941 0.910601 0.227475 0.203174
H34   H     H_    0.157878 0.867772 0.048848 0.095983
H35   H     H_    0.430787 0.781855 0.133030 0.197320
H36   H     H_    0.280617 0.815384 0.061743 0.195719
H37   H     H_    0.329963 0.935549 0.164994 0.181583
H38   H     H_    0.636776 0.376279 0.126621 0.243364
H39   H     H_    0.518359 0.305837 0.025274 0.271371
H40   H     H_    0.573034 0.233473 0.073527 0.254720
H41   H     H_    0.601237 0.234036 0.932950 0.190427
H42   H     H_    0.716060 0.280087 0.030906 0.187382
H43   H     H_    0.646731 0.644788 0.228234 0.252747
H44   H     H_    0.702943 0.562677 0.178915 0.248000
H45   H     H_    0.831165 0.701891 0.902014 0.089355
H46   H     H_    0.784650 0.693370 0.269673 0.248831
H47   H     H_    0.777932 0.687787 0.120257 0.185776
H48   H     H_    0.731402 0.777017 0.172679 0.186499
H49   H     H_    0.102585 0.467495 0.391419 0.267071
H50   H     H_    0.057417 0.370287 0.432428 0.264882
H51   H     H_    0.181968 0.483600 0.500278 0.251381
H52   H     H_    0.199139 0.319809 0.424797 0.209637
H53   H     H_    0.248129 0.418682 0.386914 0.188641
H54   H     H_    0.091680 0.328464 0.246041 0.181198
H55   H     H_    0.027240 0.234870 0.282118 0.201350
H56   H     H_    0.139359 0.591896 0.316115 0.097589
H57   H     H_    0.778161 0.322322 0.605952 0.259961
H58   H     H_    0.646449 0.223054 0.551881 0.270824
H59   H     H_    0.675541 0.353037 0.555822 0.243480
H60   H     H_    0.605102 0.326858 0.671064 0.177422
H61   H     H_    0.725093 0.435186 0.720047 0.172644
H62   H     H_    0.287932 0.296524 0.837345 0.140554
H63   H     H_    0.445829 0.286447 0.823889 0.136051
H64   H     H_    0.862912 0.506165 0.706035 0.112932
N1    N     N_R   0.055640 0.348550 0.045600 -0.036120
N2    N     N_R   0.811290 0.303400 0.871650 -0.048901
N3    N     N_R   0.205180 0.552990 0.997660 -0.042945
N4    N     N_R   0.814810 0.361830 0.823710 -0.065238
N5    N     N_R   0.201660 0.494570 0.045600 -0.040606
N6    N     N_R   0.068420 0.560530 0.871650 -0.036905
N7    N     N_R   0.948050 0.295860 0.997660 -0.037113
N8    N     N_R   0.185190 0.638170 0.176290 -0.044907
N9    N     N_R   0.798340 0.505430 0.954400 -0.048654
N10   N     N_R   0.931580 0.439470 0.128350 -0.043742
N11   N     N_R   0.051950 0.704140 0.002340 -0.042344
N12   N     N_R   0.944360 0.651450 0.954400 -0.037751
N13   N     N_R   0.039170 0.492150 0.176290 -0.038303
N14   N     N_R   0.188710 0.696600 0.128350 -0.056187
N15   N     N_R   0.794820 0.447010 0.002340 -0.069437
N16   N     N_R   0.960830 0.507850 0.823710 -0.038153
Ni1   Ni    Ni4+2 0.119330 0.493420 0.109950 0.202537
Ni2   Ni    Ni4+2 0.880670 0.506580 0.890050 0.196930
Ni3   Ni    Ni4+2 0.872590 0.372590 0.000000 0.196292
Ni4   Ni    Ni4+2 0.127410 0.627410 0.000000 0.204422

loop_
_geom_bond_atom_site_label_1
_geom_bond_atom_site_label_2
_ccdc_geom_bond_type
N2    Ni3   S    
C36   H17   S    
C66   C68   S    
C64   H44   S    
C6    C45   A    
C27   C29   A    
C58   H37   S    
C11   C13   A    
C13   H62   S    
C71   N11   A    
N11   N12   A    
C9    C72   A    
C3    C6    A    
C31   H8    S    
C39   C41   A    
C20   C30   A    
C26   C27   A    
C8    C20   S    
C37   H18   S    
C43   H16   S    
C65   H55   S    
C19   H4    S    
C22   H7    S    
C38   C39   A    
C18   C63   S    
C14   H63   S    
C10   C17   A    
C23   C40   A    
C41   H11   S    
C70   H58   S    
C33   C36   A    
C64   H46   S    
C18   C19   S    
N6    N16   A    
N8    Ni1   S    
N13   Ni1   S    
N8    N14   A    
C35   H15   S    
C44   C53   S    
N10   Ni3   S    
C35   C36   A    
C72   H45   S    
C45   N8    A    
C32   C41   A    
C42   H14   S    
N15   Ni3   S    
C4    C12   A    
C60   H31   S    
C53   C65   S    
C58   H36   S    
C4    H64   S    
C2    N13   A    
C7    C15   S    
N1    N7    A    
C28   C34   A    
C59   C60   S    
C18   H2    S    
C64   H43   S    
N14   Ni4   S    
C13   C14   A    
C67   H23   S    
C61   C62   S    
C28   N3    A    
N12   Ni2   S    
C7    C56   A    
C60   H30   S    
C68   H51   S    
C44   C46   A    
C56   H12   S    
C20   C29   A    
C4    N16   A    
C16   N2    A    
C55   N7    A    
C40   C69   S    
C62   H39   S    
C5    C61   S    
C68   H50   S    
C5    C7    A    
C53   H25   S    
C25   C26   A    
C72   N12   A    
C12   C21   S    
C70   H57   S    
C33   C37   A    
C51   C53   S    
C55   H28   S    
C35   C39   A    
C24   H9    S    
C37   C38   A    
C1    C57   A    
N10   N13   A    
C63   H47   S    
N7    Ni3   S    
C47   C48   A    
C62   H38   S    
C10   C19   S    
C67   N10   A    
C17   C18   S    
N1    Ni1   S    
C50   C51   S    
C59   H33   S    
N11   Ni4   S    
N9    N15   A    
C45   H29   S    
C51   H21   S    
N9    Ni2   S    
C48   C49   A    
C54   N6    A    
N16   Ni2   S    
C49   C50   A    
C16   C23   A    
C22   C27   A    
C55   C57   A    
C46   C57   S    
C61   H41   S    
C25   H10   S    
C22   C24   A    
C54   H27   S    
C21   C24   A    
C42   C43   A    
C1    N1    A    
C44   C50   A    
C15   C17   A    
C21   C25   A    
C46   C47   A    
C29   H5    S    
C3    N14   A    
C69   H61   S    
C47   H19   S    
C11   C34   S    
C2    C8    A    
C9    C71   A    
C68   H49   S    
C6    C33   S    
N2    N4    A    
C56   N9    A    
C34   C52   A    
C52   N5    A    
C5    N15   A    
C66   H53   S    
C28   H24   S    
C1    H1    S    
C23   C32   S    
C19   H3    S    
C58   C59   S    
C38   C43   A    
C65   H54   S    
C63   H48   S    
N3    N5    A    
C30   C31   A    
N5    Ni1   S    
C16   H13   S    
N3    Ni4   S    
C69   H60   S    
C40   N4    A    
C52   H26   S    
C70   H59   S    
C66   H52   S    
C69   C70   S    
C59   H35   S    
C10   C11   A    
C51   H22   S    
C63   C64   S    
C30   H6    S    
C3    C58   S    
C26   C31   A    
C62   H40   S    
C8    C67   A    
C65   C66   S    
C48   H20   S    
C71   H34   S    
C61   H42   S    
C32   C42   A    
C14   C15   A    
N6    Ni4   S    
C60   H32   S    
C12   C54   A    
N4    Ni2   S    
C2    H56   S    
