data_mof_unit_22797.cif
_audit_creation_date              2013-03-05T16:35:54-0500
_audit_creation_method            fapswitch 2.2
_symmetry_space_group_name_H-M    P1
_symmetry_Int_Tables_number       1
_space_group_crystal_system       triclinic
_cell_length_a                    23.590936
_cell_length_b                    9.092697
_cell_length_c                    7.76979
_cell_angle_alpha                 90.337874
_cell_angle_beta                  89.990413
_cell_angle_gamma                 89.961368
_cell_volume                      1666.63123218

loop_
_atom_site_label
_atom_site_type_symbol
_atom_site_description
_atom_site_fract_x
_atom_site_fract_y
_atom_site_fract_z
_atom_type_partial_charge
O1    O     O_R   0.500000 0.288390 0.642760 -0.584022
O2    O     O_R   0.500000 0.711610 0.357240 -0.565291
O3    O     O_R   0.500000 0.711610 0.642760 -0.582077
O4    O     O_R   0.500000 0.288390 0.357240 -0.572811
C1    C     C_R   0.500052 0.219959 0.499691 0.889520
C2    C     C_R   0.500020 0.780042 0.500317 0.899072
O5    O     O_R   0.417880 0.500000 0.642820 -0.581660
O6    O     O_R   0.582120 0.500000 0.357180 -0.567414
O7    O     O_R   0.582120 0.500000 0.642820 -0.577567
O8    O     O_R   0.417880 0.500000 0.357180 -0.562852
C3    C     C_R   0.208616 0.517955 0.494815 0.164075
C4    C     C_R   0.792006 0.490058 0.486817 0.155743
C5    C     C_R   0.390641 0.501526 0.499900 0.901429
C6    C     C_R   0.609455 0.499568 0.499742 0.887367
Cu1   Cu    Cu3+1 0.500000 0.500000 0.669080 1.047797
Cu2   Cu    Cu3+1 0.500000 0.500000 0.330920 1.080594
C7    C     C_R   0.299247 0.596278 0.376351 -0.143629
C8    C     C_R   0.700988 0.426125 0.358288 -0.134218
C9    C     C_R   0.296200 0.426244 0.621203 -0.095664
C10   C     C_R   0.704373 0.561256 0.632480 -0.105889
C11   C     C_R   0.327868 0.507749 0.499120 -0.293258
C12   C     C_R   0.672407 0.496280 0.497229 -0.292840
C13   C     C_R   0.879342 0.632703 0.493070 0.609231
C14   C     C_R   0.121443 0.396253 0.415004 0.651448
C15   C     C_R   0.883704 0.374835 0.438036 0.660567
C16   C     C_R   0.118175 0.638649 0.533942 0.638783
N1    N     N_R   0.853103 0.499218 0.473410 -0.451723
N2    N     N_R   0.147799 0.517058 0.482719 -0.463923
C17   C     C_R   0.942295 0.383418 0.405636 -0.145325
C18   C     C_R   0.059070 0.646275 0.508334 -0.176517
C19   C     C_R   0.939131 0.642901 0.489568 -0.178983
C20   C     C_R   0.061818 0.391628 0.402004 -0.113091
C21   C     C_R   0.970675 0.515223 0.447637 -0.107752
C22   C     C_R   0.030546 0.518113 0.451203 -0.130992
C23   C     C_R   0.973310 0.263109 0.336975 0.340441
C24   C     C_R   0.027494 0.776388 0.540841 0.405628
C25   C     C_R   0.968396 0.775110 0.529184 0.409269
C26   C     C_R   0.033108 0.265694 0.338749 0.455358
C27   C     C_1   0.500039 0.065356 0.499590 -0.114489
C28   C     C_1   0.500027 0.934644 0.500451 -0.111177
C29   C     C_R   0.239328 0.599963 0.374543 0.409162
C30   C     C_R   0.760649 0.435687 0.346127 0.410057
C31   C     C_R   0.236675 0.434241 0.621615 0.367260
C32   C     C_R   0.763626 0.543454 0.635340 0.356000
N3    N     N_1   0.500000 0.500000 0.076820 -0.032133
N4    N     N_1   0.500000 0.500000 0.923180 -0.038546
O9    O     O_2   0.847388 0.753612 0.520304 -0.453594
O10   O     O_2   0.153234 0.280851 0.362964 -0.412394
O11   O     O_2   0.857664 0.242714 0.440428 -0.454224
O12   O     O_2   0.146077 0.749461 0.613037 -0.466400
O13   O     O_3   0.946552 0.145494 0.258747 -0.705108
H1    H     H_    0.913607 0.183830 0.193734 0.376295
O14   O     O_3   0.052892 0.909525 0.576813 -0.616797
H2    H     H_    0.084207 0.922217 0.493277 0.377662
O15   O     O_3   0.940678 0.906186 0.557846 -0.597950
H3    H     H_    0.917669 0.925159 0.453682 0.393820
O16   O     O_3   0.064342 0.148282 0.275284 -0.643347
H4    H     H_    0.039171 0.065966 0.241831 0.375252
O17   O     O_3   0.208538 0.682044 0.257627 -0.661731
H5    H     H_    0.232476 0.760415 0.208473 0.360099
O18   O     O_3   0.790360 0.390386 0.201450 -0.679307
H6    H     H_    0.764223 0.371061 0.104733 0.368130
O19   O     O_3   0.207177 0.354559 0.743682 -0.634509
H7    H     H_    0.166775 0.383740 0.743771 0.346515
O20   O     O_3   0.793062 0.586844 0.780924 -0.633836
H8    H     H_    0.830515 0.537587 0.781924 0.340442
C33   C     C_2   0.331475 0.684230 0.249148 0.889282
O21   O     O_2   0.365525 0.776660 0.298462 -0.592157
O22   O     O_R   0.322593 0.661175 0.073111 -0.706556
H9    H     H_    0.347116 0.727006 0.999121 0.338498
C34   C     C_2   0.669192 0.332321 0.234763 0.901191
O23   O     O_2   0.648739 0.216349 0.283725 -0.578186
O24   O     O_R   0.661111 0.378320 0.065269 -0.727875
H10   H     H_    0.638058 0.305677 0.994836 0.334761
C35   C     C_2   0.324408 0.325113 0.744230 0.988669
O25   O     O_2   0.311089 0.326912 0.896380 -0.491723
O26   O     O_R   0.365482 0.225970 0.685179 -0.769747
H11   H     H_    0.381574 0.163048 0.780773 0.335103
C36   C     C_2   0.677212 0.656427 0.765846 1.002632
O27   O     O_2   0.692438 0.650182 0.916053 -0.489596
O28   O     O_R   0.635634 0.757957 0.717758 -0.765562
H12   H     H_    0.620580 0.816973 0.819038 0.337286

loop_
_geom_bond_atom_site_label_1
_geom_bond_atom_site_label_2
_geom_bond_distance
_ccdc_geom_bond_type
O15   H3    0.990489 S    
O24   H10   1.013840 S    
O7    C6    1.285069 A    
O3    C2    1.272870 A    
O28   H12   1.013900 S    
C31   O19   1.384657 S    
N3    N4    1.193751 T    
O1    C1    1.270708 A    
C24   C25   1.397195 A    
C9    C11   1.419828 A    
O22   H9    1.013851 S    
C8    C30   1.413380 A    
Cu1   Cu2   2.627433 S    
C17   C21   1.409821 A    
C4    C30   1.407458 A    
C24   O14   1.378266 S    
C19   C21   1.414894 A    
C3    C31   1.413010 A    
O1    Cu1   1.933744 S    
C20   C26   1.416338 A    
O2    Cu2   1.933743 S    
O5    Cu1   1.948039 S    
O17   H5    0.988046 S    
O6    Cu2   1.948036 S    
C32   O20   1.383020 S    
O2    C2    1.270763 A    
C10   C32   1.407265 A    
C9    C31   1.406092 A    
C7    C29   1.414008 A    
C15   C17   1.407213 A    
C7    C33   1.484681 S    
C13   O9    1.348243 S    
C18   C22   1.415246 A    
C4    N1    1.447555 S    
O13   H1    0.991248 S    
C14   O10   1.349382 S    
C23   C26   1.410964 A    
C36   O27   1.222787 D    
C29   O17   1.384670 S    
C27   C28   1.188588 T    
C34   O24   1.397162 S    
O26   H11   1.013864 S    
C7    C11   1.422074 A    
C33   O21   1.222945 D    
C33   O22   1.398367 S    
C13   C19   1.413865 A    
O4    Cu2   1.936142 S    
C35   O25   1.223176 D    
C14   C20   1.410883 A    
C26   O16   1.385090 S    
C21   C22   1.412958 A    
C5    C11   1.481931 S    
C35   O26   1.398531 S    
C30   O18   1.385076 S    
C10   C12   1.419727 A    
C16   C18   1.410210 A    
C13   N1    1.370593 A    
C1    C27   1.405748 S    
C23   O13   1.380208 S    
C2    C28   1.405743 S    
O3    Cu1   1.936142 S    
C36   O28   1.398910 S    
C8    C34   1.484164 S    
O6    C6    1.281826 A    
C10   C36   1.490511 S    
C8    C12   1.420564 A    
C14   N2    1.365352 A    
O4    C1    1.272916 A    
O8    C5    1.281548 A    
Cu2   N3    1.974303 S    
O14   H2    0.990552 S    
C15   N1    1.367839 A    
C17   C23   1.417242 A    
C16   N2    1.364843 A    
C18   C24   1.419007 A    
C6    C12   1.485507 S    
C16   O12   1.349032 S    
O7    Cu1   1.947969 S    
C34   O23   1.222638 D    
C4    C32   1.417167 A    
O8    Cu2   1.947971 S    
O16   H4    0.989314 S    
C3    N2    1.437848 S    
C9    C35   1.487251 S    
C3    C29   1.401054 A    
O18   H6    0.987175 S    
C15   O11   1.349882 S    
O19   H7    0.989175 S    
C25   O15   1.376013 S    
C19   C25   1.418922 A    
O5    C5    1.283216 A    
O20   H8    0.990389 S    
Cu1   N4    1.974303 S    
C20   C22   1.416572 A    
