data_mof_unit_37171.cif
_audit_creation_date              2013-03-05T15:50:41-0500
_audit_creation_method            fapswitch 2.2
_symmetry_space_group_name_H-M    P1
_symmetry_Int_Tables_number       1
_space_group_crystal_system       triclinic
_cell_length_a                    15.077381
_cell_length_b                    10.89315
_cell_length_c                    9.582527
_cell_angle_alpha                 91.970266
_cell_angle_beta                  89.99401
_cell_angle_gamma                 93.092439
_cell_volume                      1570.61256153

loop_
_atom_site_label
_atom_site_type_symbol
_atom_site_description
_atom_site_fract_x
_atom_site_fract_y
_atom_site_fract_z
_atom_type_partial_charge
O1    O     O_R   0.499990 0.319640 0.618810 -0.585176
O2    O     O_R   0.500000 0.319660 0.381240 -0.524027
C1    C     C_R   0.504676 0.262835 0.497371 0.818521
O3    O     O_R   0.370250 0.499960 0.618800 -0.588143
O4    O     O_R   0.370260 0.499980 0.381230 -0.588543
C2    C     C_R   0.328661 0.499964 0.500014 0.822333
Cu1   Cu    Cu3+1 0.499990 0.499990 0.640660 0.941538
Cu2   Cu    Cu3+1 0.500010 0.500010 0.359340 0.995467
O5    O     O_R   0.500000 0.680340 0.618760 -0.615520
O6    O     O_R   0.500010 0.680360 0.381190 -0.581645
O7    O     O_R   0.629740 0.500020 0.618770 -0.614717
O8    O     O_R   0.629750 0.500040 0.381200 -0.606081
C3    C     C_R   0.497243 0.737916 0.503414 0.824243
C4    C     C_R   0.671328 0.500855 0.500020 0.800993
C5    C     C_R   0.814714 0.504236 0.627134 -0.243219
C6    C     C_R   0.768276 0.502603 0.500099 -0.056792
C7    C     C_R   0.814691 0.502771 0.373139 -0.164023
C8    C     C_R   0.907109 0.503744 0.372270 0.110390
C9    C     C_R   0.953569 0.504428 0.500163 0.062712
C10   C     C_R   0.907138 0.505051 0.628058 0.111569
C11   C     C_R   0.953781 0.503477 0.245723 -0.160358
C12   C     C_R   0.046237 0.502980 0.245705 -0.183019
C13   C     C_R   0.092943 0.502895 0.372238 0.106405
C14   C     C_R   0.046537 0.503978 0.500145 0.066566
C15   C     C_R   0.092976 0.504156 0.628019 0.108366
C16   C     C_R   0.046305 0.505463 0.754601 -0.186799
C17   C     C_R   0.953849 0.505962 0.754624 -0.182318
C18   C     C_R   0.185309 0.501512 0.373094 -0.214175
C19   C     C_R   0.231729 0.501265 0.500055 -0.072054
C20   C     C_R   0.185342 0.502791 0.627072 -0.226750
H1    H     H_    0.779108 0.504417 0.725462 0.161862
H2    H     H_    0.779068 0.501825 0.274778 0.153390
H3    H     H_    0.918778 0.503278 0.146905 0.142280
H4    H     H_    0.081183 0.502372 0.146854 0.140635
H5    H     H_    0.081279 0.505825 0.853442 0.141665
H6    H     H_    0.918878 0.506711 0.853467 0.144042
C21   C     C_R   0.599102 0.137658 0.712685 -0.185847
H7    H     H_    0.629903 0.227549 0.693604 0.171213
C22   C     C_R   0.610892 0.089833 0.843591 -0.170876
C23   C     C_R   0.569797 0.976256 0.874823 0.402162
C24   C     C_R   0.528317 0.903800 0.767022 -0.254741
H8    H     H_    0.495179 0.818648 0.795891 0.209368
C25   C     C_R   0.523501 0.946687 0.629465 0.042519
C26   C     C_R   0.546251 0.071998 0.610243 0.071232
C27   C     C_R   0.512581 0.129185 0.492329 -0.226543
C28   C     C_R   0.473865 0.056146 0.381168 0.366123
C29   C     C_R   0.468355 0.929260 0.390203 -0.172041
C30   C     C_R   0.494014 0.872648 0.511236 -0.164525
H9    H     H_    0.391215 0.372057 0.124297 0.166729
C31   C     C_R   0.627929 0.650791 0.148915 -0.177339
H10   H     H_    0.626932 0.666536 0.258487 0.224447
C32   C     C_R   0.695968 0.716244 0.079377 0.360139
C33   C     C_R   0.693877 0.716468 0.934518 -0.278818
C34   C     C_R   0.626081 0.651735 0.861202 -0.237679
C35   C     C_R   0.562561 0.574026 0.927860 0.220851
C36   C     C_R   0.562992 0.573704 0.077242 0.176964
N1    N     N_R   0.500860 0.501210 0.147910 -0.198691
C37   C     C_R   0.440218 0.429640 0.071204 0.014161
C38   C     C_R   0.440432 0.429349 0.923179 -0.040528
N2    N     N_R   0.500890 0.501290 0.852040 -0.203983
H11   H     H_    0.647207 0.145145 0.922817 0.188922
N3    N     N_R   0.568280 0.935561 0.015788 0.134687
O9    O     O_R   0.623426 0.985210 0.108650 -0.316692
O10   O     O_R   0.508104 0.853576 0.054289 -0.394467
H12   H     H_    0.441379 0.874367 0.302260 0.224718
N4    N     N_R   0.764309 0.787418 0.156180 0.149137
O11   O     O_R   0.765447 0.790035 0.292089 -0.362472
O12   O     O_R   0.826946 0.848906 0.090745 -0.332581
H13   H     H_    0.742473 0.771704 0.877472 0.200117
H14   H     H_    0.624711 0.668961 0.752778 0.221510
H15   H     H_    0.391699 0.371316 0.865586 0.147875
H16   H     H_    0.220892 0.500495 0.274739 0.157988
H17   H     H_    0.220954 0.502821 0.725393 0.157891
N5    N     N_R   0.438263 0.108296 0.259131 0.136309
O13   O     O_R   0.356489 0.079586 0.222463 -0.364302
O14   O     O_R   0.491781 0.159664 0.169148 -0.322554

loop_
_geom_bond_atom_site_label_1
_geom_bond_atom_site_label_2
_geom_bond_distance
_ccdc_geom_bond_type
N4    O12   1.301622 A    
C35   C36   1.431596 A    
C8    C11   1.401964 A    
C24   H8    1.074316 S    
C9    C10   1.411336 A    
C33   H13   1.082908 S    
Cu1   Cu2   2.695764 S    
C33   C34   1.387080 A    
C32   C33   1.388563 A    
Cu1   O7    1.967464 S    
C16   C17   1.394303 A    
N3    O9    1.301613 A    
N5    O14   1.300775 A    
C18   C19   1.403783 A    
C21   H7    1.082198 S    
O4    C2    1.299555 A    
O7    C4    1.299256 A    
C11   H3    1.083987 S    
C5    C6    1.403488 A    
C23   N3    1.435889 S    
C36   N1    1.384404 A    
C8    C9    1.411264 A    
O5    C3    1.291230 A    
N3    O10   1.300786 A    
C28   C29   1.385885 A    
C6    C7    1.403454 A    
C31   C32   1.399413 A    
C13   C14   1.411269 A    
C25   C30   1.424865 A    
N4    O11   1.301776 A    
C38   N2    1.367222 A    
C35   N2    1.378882 A    
C24   C25   1.416709 A    
C18   H16   1.084457 S    
O3    Cu1   1.967328 S    
C12   H4    1.083868 S    
C31   H10   1.058294 S    
C5    C10   1.393090 A    
C22   H11   1.082697 S    
N5    O13   1.300898 A    
C14   C15   1.411252 A    
O3    C2    1.299618 A    
C22   C23   1.395302 A    
C20   H17   1.084449 S    
C37   C38   1.418355 A    
C27   C28   1.414268 A    
C1    C27   1.466278 S    
C31   C36   1.416763 A    
H9    C37   1.081686 S    
O1    C1    1.302788 A    
C25   C26   1.407713 A    
C19   C20   1.403763 A    
Cu2   N1    2.026561 S    
C3    C30   1.470426 S    
C29   C30   1.396476 A    
C34   H14   1.062522 S    
Cu2   O8    1.967326 S    
C7    C8    1.392926 A    
C13   C18   1.393559 A    
C23   C24   1.404286 A    
O8    C4    1.299354 A    
C4    C6    1.460821 S    
Cu1   N2    2.025158 S    
C28   N5    1.434268 S    
C32   N4    1.441947 S    
C26   C27   1.416017 A    
C15   C20   1.393542 A    
Cu1   O5    1.982909 S    
C34   C35   1.411145 A    
O1    Cu1   1.968534 S    
O2    Cu2   1.982911 S    
O6    C3    1.311067 A    
O4    Cu2   1.967464 S    
C5    H1    1.084383 S    
C10   C17   1.402003 A    
C17   H6    1.083990 S    
C21   C26   1.414424 A    
O2    C1    1.295612 A    
C15   C16   1.402278 A    
C21   C22   1.389792 A    
N1    C37   1.366712 A    
C9    C14   1.401987 A    
C16   H5    1.083872 S    
C2    C19   1.462321 S    
Cu2   O6    1.968534 S    
C7    H2    1.084353 S    
C12   C13   1.402285 A    
C11   C12   1.394298 A    
C29   H12   1.082741 S    
C38   H15   1.081687 S    
