data_mof_unit_37497.cif
_audit_creation_date              2012-12-11T20:00:38-0500
_audit_creation_method            fapswitch 2.2
_symmetry_space_group_name_H-M    P1
_symmetry_Int_Tables_number       1
_space_group_crystal_system       triclinic
_cell_length_a                    8.256287
_cell_length_b                    16.251954
_cell_length_c                    27.024643
_cell_angle_alpha                 72.469751
_cell_angle_beta                  96.843938
_cell_angle_gamma                 95.74473
_cell_volume                      3425.23929868

loop_
_atom_site_label
_atom_site_type_symbol
_atom_type_description
_atom_site_fract_x
_atom_site_fract_y
_atom_site_fract_z
_atom_type_partial_charge
Ba1   Ba    Ba6+2 0.337820 0.939830 0.518500 1.707841
Ba2   Ba    Ba6+2 0.851970 0.060110 0.481480 1.684733
C1    C     C_3   0.066616 0.526447 0.611569 -0.357669
C2    C     C_R   0.495251 0.397289 0.194527 0.591155
C3    C     C_2   0.300596 0.287259 0.282081 -0.092564
C4    C     C_3   0.534388 0.642056 0.630441 0.321934
C5    C     C_3   0.285797 0.253205 0.340159 -0.090011
C6    C     C_1   0.477692 0.144994 0.342405 0.030502
C7    C     C_2   0.512623 0.185702 0.293729 -0.079534
C8    C     C_2   0.418596 0.260924 0.260599 0.221035
C9    C     C_R   0.530689 0.402689 0.105065 -0.081740
C10   C     C_R   0.498580 0.312147 0.119043 -0.036767
C11   C     C_R   0.501377 0.269940 0.081014 -0.057927
C12   C     C_3   0.052691 0.621715 0.605393 0.334790
C13   C     C_R   0.528421 0.445302 0.143201 -0.028138
C14   C     C_2   0.370466 0.171106 0.366166 -0.262123
C15   C     C_2   0.850915 0.846148 0.641923 -0.182999
C16   C     C_3   0.511001 0.567949 0.679715 -0.281557
C17   C     C_R   0.616877 0.454217 0.964214 -0.018061
C18   C     C_R   0.617973 0.590387 0.986432 0.034305
C19   C     C_R   0.634728 0.545998 0.949488 0.045599
C20   C     C_R   0.644933 0.412832 0.927282 -0.156500
C21   C     C_R   0.683197 0.459198 0.876595 0.434557
C22   C     C_R   0.695061 0.550784 0.861034 -0.042123
C23   C     C_3   0.036269 0.089653 0.660314 0.309122
C24   C     C_R   0.670307 0.593937 0.897448 -0.145346
C25   C     C_R   0.682141 0.685274 0.881973 -0.025602
C26   C     C_R   0.717149 0.732559 0.830542 0.600915
C27   C     C_R   0.732454 0.600321 0.809967 0.608174
C28   C     C_3   0.604225 0.886285 0.387202 0.467485
C29   C     C_2   0.904028 0.719840 0.720090 -0.072206
C30   C     C_3   0.915966 0.757917 0.662242 -0.059551
C31   C     C_1   0.721027 0.860709 0.661335 0.005307
C32   C     C_2   0.677550 0.813129 0.708253 -0.089261
C33   C     C_2   0.778466 0.739775 0.741641 0.189227
C34   C     C_3   0.014161 0.175401 0.670939 -0.402889
C35   C     C_R   0.573963 0.406521 0.015416 0.037351
C36   C     C_R   0.565348 0.450669 0.052986 0.051678
C37   C     C_R   0.591063 0.542320 0.039043 0.018163
C38   C     C_R   0.537895 0.315718 0.030544 -0.095286
C39   C     C_R   0.560319 0.535259 0.129431 -0.059251
C40   C     C_3   0.626248 0.822644 0.357345 0.226937
C41   C     C_R   0.627910 0.681898 0.969179 -0.097028
C42   C     C_R   0.658952 0.727924 0.918312 -0.043704
C43   C     C_R   0.590435 0.582672 0.078697 -0.100753
C44   C     C_2   0.395329 0.247837 0.508720 -0.265171
C45   C     C_3   0.601010 0.400378 0.375627 0.320149
C46   C     C_R   0.801766 0.758884 0.488652 -0.317058
C47   C     C_2   0.250650 0.314653 0.559432 -0.129197
C48   C     C_2   0.265604 0.247071 0.541880 0.042276
C49   C     C_2   0.502860 0.315961 0.495669 -0.026662
C50   C     C_3   0.460211 0.401136 0.500738 -0.026569
C51   C     C_3   0.372826 0.391037 0.549289 0.038770
C52   C     C_3   0.586492 0.115632 0.607384 0.306259
C53   C     C_2   0.599211 0.467418 0.497706 -0.095259
C54   C     C_2   0.566215 0.550220 0.483930 -0.069985
C55   C     C_R   0.831119 0.616764 0.454207 0.005925
C56   C     C_3   0.637749 0.483579 0.332973 -0.305455
C57   C     C_R   0.696264 0.619250 0.480071 -0.051655
C58   C     C_R   0.948175 0.686082 0.442687 -0.116752
C59   C     C_R   0.930419 0.759664 0.459078 0.003794
C60   C     C_R   0.680489 0.691091 0.497134 0.002957
C61   C     C_3   0.572364 0.185780 0.633206 -0.396087
C62   C     C_3   0.119723 0.992966 0.358993 0.319322
C63   C     C_3   0.118321 0.030858 0.300177 -0.328340
C64   C     C_2   0.057741 0.016314 0.710152 0.879696
C65   C     C_2   0.078063 0.678325 0.411230 0.891539
C66   C     C_3   0.099547 0.395141 0.372258 0.338958
C67   C     C_3   0.165967 0.472470 0.330401 -0.404109
C68   C     C_R   0.461931 0.265788 0.170531 0.595853
H1    H     H_    0.087322 0.659465 0.565982 0.064295
H2    H     H_    0.051805 0.034685 0.373856 0.070485
H3    H     H_    0.191702 0.515367 0.604986 0.146073
H4    H     H_    0.192801 0.992763 0.284599 0.159504
H5    H     H_    0.169728 0.098868 0.290143 0.064225
H6    H     H_    0.990884 0.029520 0.281689 0.129710
H7    H     H_    0.922806 0.630660 0.608452 -0.050042
H8    H     H_    0.978204 0.505925 0.582483 0.073603
H9    H     H_    0.926583 0.070322 0.637545 -0.008793
H10   H     H_    0.962729 0.222309 0.634888 0.092195
H11   H     H_    0.928917 0.166018 0.701230 0.127013
H12   H     H_    0.736848 0.844309 0.335719 0.063820
H13   H     H_    0.133536 0.203150 0.684554 0.126587
H14   H     H_    0.038919 0.486760 0.651306 0.128458
H15   H     H_    0.516655 0.594199 0.713302 0.118645
H16   H     H_    0.573639 0.346442 0.358007 0.043497
H17   H     H_    0.492835 0.409652 0.393674 -0.050802
H18   H     H_    0.738039 0.475245 0.311292 0.153815
H19   H     H_    0.527232 0.500973 0.305468 0.116988
H20   H     H_    0.675054 0.537200 0.350385 0.102645
H21   H     H_    0.203340 0.361637 0.398160 -0.067012
H22   H     H_    0.032490 0.419958 0.397322 0.128599
H23   H     H_    0.643050 0.757547 0.385150 -0.054356
H24   H     H_    0.248998 0.515193 0.348880 0.115619
H25   H     H_    0.063745 0.509919 0.306652 0.136532
H26   H     H_    0.463491 0.695930 0.631587 0.096319
H27   H     H_    0.235083 0.450325 0.304604 0.112049
H28   H     H_    0.612230 0.165995 0.277969 0.115758
H29   H     H_    0.474829 0.200623 0.090118 0.127264
H30   H     H_    0.983820 0.669665 0.742319 0.113882
H31   H     H_    0.642257 0.343503 0.937167 0.063181
H32   H     H_    0.532842 0.277627 0.003921 0.077644
H33   H     H_    0.229128 0.340662 0.259093 0.094311
H34   H     H_    0.468787 0.104684 0.585565 0.021673
H35   H     H_    0.561576 0.569914 0.158041 0.119402
H36   H     H_    0.608984 0.720508 0.993849 0.072176
H37   H     H_    0.666015 0.663546 0.629792 -0.057187
H38   H     H_    0.665137 0.797930 0.907557 0.130180
H39   H     H_    0.570615 0.827885 0.722928 0.133225
H40   H     H_    0.616350 0.651165 0.072182 0.073162
H41   H     H_    0.360242 0.142458 0.407582 0.075127
H42   H     H_    0.921300 0.899021 0.616697 0.082598
H43   H     H_    0.159457 0.311636 0.585678 0.064272
H44   H     H_    0.413380 0.188597 0.500066 0.051522
H45   H     H_    0.682804 0.137238 0.580142 0.057654
H46   H     H_    0.789502 0.814298 0.501917 0.078286
H47   H     H_    0.723865 0.448794 0.509673 0.106603
H48   H     H_    0.389669 0.532851 0.676715 0.139532
H49   H     H_    0.439890 0.567093 0.475428 0.143946
H50   H     H_    0.607517 0.521835 0.686337 0.138937
H51   H     H_    0.722362 0.897674 0.408932 -0.136969
H52   H     H_    0.510454 0.858335 0.414943 0.027365
H53   H     H_    0.510323 0.775916 0.304486 0.299743
H54   H     H_    0.101561 0.890527 0.742703 0.318274
H55   H     H_    0.695493 0.352151 0.858481 0.300998
H56   H     H_    0.454638 0.176140 0.650730 0.140226
H57   H     H_    0.221546 0.734242 0.353399 0.332317
H58   H     H_    0.581051 0.250593 0.604359 0.056264
H59   H     H_    0.671694 0.183953 0.664642 0.132837
H60   H     H_    0.247604 0.991850 0.376574 -0.001378
N1    N     N_R   0.459473 0.308451 0.207743 -0.423374
N2    N     N_R   0.741326 0.690279 0.794812 -0.438076
O1    O     O_2   0.431310 0.922990 0.623550 -0.420501
O2    O     O_2   0.837808 0.303653 0.507141 -0.481406
O3    O     O_3   0.739096 0.384126 0.411808 -0.577093
O4    O     O_3   0.663280 0.983100 0.563360 -0.506278
O5    O     O_3   0.016420 0.932050 0.462720 -0.496086
O6    O     O_2   0.959730 0.164640 0.549160 -0.471973
O7    O     O_3   0.177258 0.097796 0.634396 -0.646370
O8    O     O_2   0.953400 0.194154 0.327055 -0.485078
O9    O     O_3   0.989410 0.342319 0.348763 -0.563566
O10   O     O_2   0.430272 0.187642 0.181935 -0.589253
O11   O     O_2   0.756671 0.563012 0.778808 -0.553258
O12   O     O_3   0.045589 0.908892 0.370197 -0.592537
O13   O     O_2   0.499487 0.434790 0.227653 -0.626794
O14   O     O_2   0.729022 0.811559 0.817974 -0.570214
O15   O     O_3   0.126250 0.812630 0.574830 -0.484895
O16   O     O_2   0.263544 0.786176 0.672241 -0.465147
O17   O     O_3   0.626988 0.039702 0.645997 -0.621555
O18   O     O_3   0.157474 0.646874 0.644201 -0.606885
O19   O     O_2   0.229950 0.835370 0.450810 -0.438214
O20   O     O_3   0.517580 0.797570 0.545130 -0.506355
O21   O     O_2   0.342199 0.694438 0.496052 -0.478241
O22   O     O_3   0.488861 0.818563 0.322183 -0.696774
O23   O     O_3   0.478707 0.613642 0.586885 -0.604966
O24   O     O_2   0.048954 0.026927 0.752686 -0.593649
O25   O     O_R   0.090125 0.935235 0.707242 -0.758663
O26   O     O_3   0.709412 0.415424 0.841847 -0.668381
O27   O     O_2   0.126733 0.607091 0.416807 -0.639177
O28   O     O_R   0.139356 0.750029 0.373430 -0.717765
O29   O     O_2   0.758370 0.077020 0.376420 -0.455698
O30   O     O_3   0.526390 0.016840 0.436620 -0.508950
O31   O     O_3   0.063420 0.187310 0.425160 -0.462841
O32   O     O_3   0.553720 0.963256 0.351506 -0.610479
O33   O     O_3   0.173250 0.067890 0.537260 -0.450896
O34   O     O_3   0.672100 0.202370 0.454860 -0.471674
P1    P     P_3+3 0.610630 0.953360 0.619150 1.010410
P2    P     P_3+3 0.057260 0.861390 0.437850 1.036347
P3    P     P_3+3 0.503912 0.699721 0.530408 0.944012
P4    P     P_3+3 0.579040 0.046590 0.380840 0.995621
P5    P     P_3+3 0.687241 0.302316 0.467458 0.966434
P6    P     P_3+3 0.118573 0.752780 0.639933 0.979429
P7    P     P_3+3 0.143771 0.146472 0.566768 0.964331
P8    P     P_3+3 0.072330 0.242882 0.359019 0.978567

loop_
_geom_bond_atom_site_label_1
_geom_bond_atom_site_label_2
_ccdc_geom_bond_type
C47   H43   S    
C53   C54   D    
C3    H33   S    
C7    H28   S    
C23   O7    S    
C40   H23   S    
C12   H1    S    
O32   P4    S    
O17   P1    S    
C28   O32   S    
C19   C24   A    
Ba2   O30   S    
Ba2   O34   S    
O15   P6    S    
C24   C25   A    
C63   H6    S    
C39   H35   S    
O12   P2    S    
C48   P7    S    
C52   H34   S    
C17   C19   A    
C22   C24   A    
C32   C33   S    
C35   C38   A    
O1    P1    D    
C36   C37   A    
C55   C57   A    
C27   N2    Am   
C52   C61   S    
Ba1   P1    S    
C34   H13   S    
O33   P7    S    
O19   P2    D    
C27   O11   D    
C21   O26   S    
C66   H21   S    
Ba1   O20   S    
Ba1   Ba2   S    
C12   H7    S    
C22   C27   A    
C68   N1    Am   
C11   C38   A    
C17   C35   A    
O16   P6    D    
C8    N1    S    
C9    C13   A    
C25   C42   A    
O18   P6    S    
C28   H52   S    
C58   C65   S    
C66   C67   S    
C40   H12   S    
C4    H37   S    
C65   O28   S    
O3    P5    S    
C52   O17   S    
Ba1   O4    S    
C7    C8    S    
C16   H48   S    
C4    O23   S    
C50   C53   S    
C37   C43   A    
C61   H59   S    
C30   P6    S    
O34   P5    S    
C6    C14   D    
C52   H45   S    
C31   P1    S    
C15   C31   D    
Ba1   O1    S    
C20   H31   S    
Ba2   O29   S    
C64   O25   S    
C6    P4    S    
C2    N1    Am   
C42   H38   S    
C4    C16   S    
C68   O10   D    
C16   H15   S    
C44   H44   S    
C49   C50   S    
Ba2   O6    S    
C45   H16   S    
C17   C20   A    
C13   C39   A    
C67   H24   S    
C34   H10   S    
C3    C5    S    
C18   C37   A    
C43   H40   S    
C6    C7    D    
C55   C58   A    
C62   O12   S    
Ba1   P2    S    
C44   C49   D    
Ba2   O4    S    
C63   H4    S    
C58   C59   A    
C26   N2    Am   
C41   H36   S    
C45   H17   S    
C11   H29   S    
C9    C36   A    
C41   C42   A    
C35   C36   A    
O23   P3    S    
C46   C60   A    
C29   C30   S    
O30   P4    S    
C28   H51   S    
Ba1   O33   S    
C34   H11   S    
C21   C22   A    
H54   O25   S    
C12   O18   S    
O6    P7    D    
C31   C32   D    
C66   O9    S    
C29   H30   S    
C18   C19   A    
C56   H20   S    
Ba2   O33   S    
C1    C12   S    
Ba2   P4    S    
O29   P4    D    
C5    C14   S    
C40   O22   S    
C62   H60   S    
Ba1   O30   S    
C4    H26   S    
O2    P5    D    
O9    P8    S    
C54   H49   S    
C29   C33   D    
O7    P7    S    
C15   H42   S    
C16   H50   S    
C25   C26   A    
C18   C41   A    
Ba1   O5    S    
C50   C51   S    
C53   H47   S    
C15   C30   S    
C60   P3    S    
C10   C68   A    
C57   C60   A    
C45   O3    S    
C23   H9    S    
Ba2   O5    S    
C23   C64   S    
C61   H58   S    
C67   H25   S    
C56   H18   S    
Ba2   O31   S    
C9    C10   A    
O4    P1    S    
C44   C48   S    
C26   O14   D    
C63   H5    S    
C54   C57   S    
C46   H46   S    
C59   P2    S    
C62   C63   S    
C2    C13   A    
C49   P5    S    
C3    C8    D    
C45   C56   S    
C64   O24   D    
O20   P3    S    
C1    H8    S    
C46   C59   A    
C47   C51   S    
C2    O13   D    
C33   N2    S    
C5    P8    S    
C66   H22   S    
Ba1   O19   S    
C62   H2    S    
C1    H3    S    
C56   H19   S    
C61   H56   S    
Ba1   O15   S    
C23   C34   S    
C38   H32   S    
C10   C11   A    
O8    P8    D    
C47   C48   D    
O21   P3    D    
C1    H14   S    
C32   H39   S    
C39   C43   A    
C20   C21   A    
C28   C40   S    
C65   O27   D    
O31   P8    S    
H57   O28   S    
O5    P2    S    
C14   H41   S    
H55   O26   S    
H53   O22   S    
C67   H27   S    
