data_mof_unit_44737.cif
_audit_creation_date              2012-12-10T18:42:28-0500
_audit_creation_method            fapswitch 2.2
_symmetry_space_group_name_H-M    P1
_symmetry_Int_Tables_number       1
_space_group_crystal_system       triclinic
_cell_length_a                    8.601125
_cell_length_b                    10.720339
_cell_length_c                    9.938235
_cell_angle_alpha                 90.028039
_cell_angle_beta                  98.305284
_cell_angle_gamma                 91.91149
_cell_volume                      906.246466878

loop_
_atom_site_label
_atom_site_type_symbol
_atom_type_description
_atom_site_fract_x
_atom_site_fract_y
_atom_site_fract_z
_atom_type_partial_charge
C1    C     C_R   0.500173 0.260168 0.499962 0.901485
C2    C     C_R   0.499827 0.739832 0.500038 0.901485
C3    C     C_R   0.201667 0.497911 0.465232 0.949671
C4    C     C_R   0.798333 0.502089 0.534768 0.949671
C5    C     C_2   0.038372 0.475561 0.452385 0.030518
C6    C     C_2   0.961628 0.524439 0.547614 0.030518
C7    C     C_R   0.508107 0.064027 0.378499 -0.113152
C8    C     C_R   0.491893 0.935973 0.621501 -0.113152
C9    C     C_R   0.507178 0.936286 0.378394 -0.130727
C10   C     C_R   0.492822 0.063714 0.621606 -0.130727
C11   C     C_R   0.499489 0.872448 0.499963 -0.035552
C12   C     C_R   0.500511 0.127552 0.500037 -0.035552
C13   C     C_R   0.598310 0.579850 0.084126 0.251993
C14   C     C_R   0.401690 0.420150 0.915874 0.251993
C15   C     C_R   0.597459 0.580338 0.940754 0.251603
C16   C     C_R   0.402541 0.419662 0.059246 0.251603
H1    H     H_    0.514981 0.112451 0.283792 0.199538
H2    H     H_    0.485019 0.887549 0.716208 0.199538
H3    H     H_    0.512660 0.888144 0.283461 0.199673
H4    H     H_    0.487339 0.111856 0.716539 0.199673
N1    N     N_R   0.499960 0.499970 0.857200 -0.169027
N2    N     N_R   0.500040 0.500030 0.142800 -0.169027
O1    O     O_R   0.499990 0.316750 0.614620 -0.607915
O2    O     O_R   0.500010 0.683250 0.385380 -0.607915
O3    O     O_R   0.499990 0.316780 0.385290 -0.593457
O4    O     O_R   0.500010 0.683220 0.614710 -0.593457
O5    O     O_R   0.271750 0.499990 0.587840 -0.574931
O6    O     O_R   0.728250 0.500010 0.412160 -0.574931
O7    O     O_R   0.271750 0.500010 0.358510 -0.565166
O8    O     O_R   0.728250 0.499990 0.641490 -0.565166
Zn1   Zn    Zn3+2 0.500000 0.499980 0.653120 1.075802
Zn2   Zn    Zn3+2 0.500000 0.500020 0.346880 1.075802
Br1   Br    Br    0.953784 0.344584 0.325184 -0.369291
Br2   Br    Br    0.046216 0.655416 0.674816 -0.369291
Br3   Br    Br    0.741421 0.691713 0.195949 -0.373207
Br4   Br    Br    0.258578 0.308287 0.804051 -0.373207
Br5   Br    Br    0.733480 0.697272 0.864807 -0.327859
Br6   Br    Br    0.266520 0.302727 0.135192 -0.327859

loop_
_geom_bond_atom_site_label_1
_geom_bond_atom_site_label_2
_ccdc_geom_bond_type
O2    Zn2   S    
C13   Br3   S    
C8    H2    S    
N1    Zn1   S    
N2    Zn2   S    
C15   N1    A    
O3    Zn2   S    
C3    O5    A    
O4    Zn1   S    
C2    O4    A    
C1    O3    A    
C9    C11   A    
C3    O7    A    
C7    C12   A    
C1    C12   S    
C10   C12   A    
C8    C11   A    
C5    C6    D    
C2    C11   S    
C14   N1    A    
C8    C10   A    
C4    O6    A    
C13   N2    A    
C1    O1    A    
O7    Zn2   S    
C13   C15   A    
C2    O2    A    
O8    Zn1   S    
C14   C16   A    
O5    Zn1   S    
O1    Zn1   S    
O6    Zn2   S    
C4    C6    S    
C16   Br6   S    
C7    C9    A    
C15   Br5   S    
C14   Br4   S    
C16   N2    A    
C3    C5    S    
C9    H3    S    
C4    O8    A    
C6    Br2   S    
C10   H4    S    
C7    H1    S    
C5    Br1   S    
