data_mof_unit_42501.cif
_audit_creation_date              2012-12-10T16:52:36-0500
_audit_creation_method            fapswitch 2.2
_symmetry_space_group_name_H-M    P1
_symmetry_Int_Tables_number       1
_space_group_crystal_system       triclinic
_cell_length_a                    7.848595
_cell_length_b                    8.568601
_cell_length_c                    13.781339
_cell_angle_alpha                 93.455451
_cell_angle_beta                  93.142145
_cell_angle_gamma                 94.234862
_cell_volume                      920.968113579

loop_
_atom_site_label
_atom_site_type_symbol
_atom_type_description
_atom_site_fract_x
_atom_site_fract_y
_atom_site_fract_z
_atom_type_partial_charge
C1    C     C_R   0.045140 0.794633 0.497558 0.976325
C2    C     C_R   0.936948 0.487849 0.318126 0.883030
C3    C     C_R   0.095953 0.537400 0.786456 -0.079970
C4    C     C_R   0.904655 0.466704 0.213676 -0.052647
C5    C     C_R   0.061052 0.680520 0.939316 -0.176116
C6    C     C_R   0.936334 0.326132 0.059846 -0.183205
C7    C     C_R   0.006260 0.641817 0.842386 -0.192061
C8    C     C_R   0.992606 0.362433 0.156711 -0.200707
C9    C     C_R   0.236974 0.472342 0.827356 -0.182407
C10   C     C_R   0.765568 0.535697 0.173735 -0.291749
C11   C     C_R   0.311434 0.531727 0.917311 0.115800
C12   C     C_R   0.954850 0.205360 0.502401 0.946253
C13   C     C_R   0.688878 0.479148 0.083870 0.082967
C14   C     C_R   0.213678 0.625631 0.977186 0.108172
C15   C     C_R   0.784513 0.383931 0.023069 0.192449
C16   C     C_R   0.476521 0.494056 0.950367 0.048832
C17   C     C_R   0.524494 0.520683 0.051292 -0.063787
C18   C     C_2   0.412288 0.570683 0.221536 0.389148
C19   C     C_2   0.597505 0.457352 0.781440 0.371106
C20   C     C_R   0.406120 0.587448 0.114858 -0.037911
C21   C     C_R   0.595546 0.430284 0.886455 -0.028535
C22   C     C_R   0.262681 0.653647 0.075233 -0.205800
C23   C     C_R   0.735793 0.359333 0.924842 -0.317061
C24   C     C_2   0.068540 0.958403 0.496088 -0.368173
C25   C     C_2   0.931435 0.041577 0.503797 -0.381863
C26   C     C_R   0.063224 0.512869 0.681966 0.856583
H1    H     H_    0.178225 0.712577 0.122607 0.182985
H2    H     H_    0.802305 0.990042 0.511176 0.186018
H3    H     H_    0.486819 0.371145 0.429733 0.178900
H4    H     H_    0.513040 0.630607 0.568765 0.233297
H5    H     H_    0.467158 0.470275 0.251729 0.067352
H6    H     H_    0.646751 0.371461 0.731269 0.083343
H7    H     H_    0.819320 0.301355 0.876376 0.139606
H8    H     H_    0.716968 0.631735 0.215362 0.164642
H9    H     H_    0.291020 0.378811 0.786041 0.137670
H10   H     H_    0.102780 0.309050 0.186998 0.148624
H11   H     H_    0.895961 0.693838 0.811240 0.188194
H12   H     H_    0.986416 0.754913 0.983913 0.145646
H13   H     H_    0.009429 0.251698 0.014324 0.138109
H14   H     H_    0.197668 0.009932 0.488696 0.184718
N1    N     N_2   0.440860 0.456490 0.474790 -0.160032
N2    N     N_2   0.559140 0.543510 0.525210 -0.148165
O1    O     O_R   0.891570 0.738930 0.506190 -0.611716
O2    O     O_2   0.553450 0.580107 0.751191 -0.583185
O3    O     O_R   0.108430 0.261070 0.493810 -0.619690
O4    O     O_R   0.174650 0.711050 0.490030 -0.593108
O5    O     O_R   0.825350 0.288950 0.509970 -0.633610
O6    O     O_R   0.909850 0.521900 0.644940 -0.616879
O7    O     O_R   0.090150 0.478100 0.355060 -0.585382
O8    O     O_R   0.192930 0.494020 0.628780 -0.592891
O9    O     O_R   0.807070 0.505980 0.371220 -0.627399
O10   O     O_2   0.356470 0.668933 0.276670 -0.558548
Zn1   Zn    Zn3+2 0.810990 0.518620 0.510790 0.959497
Zn2   Zn    Zn3+2 0.189010 0.481380 0.489210 0.983329

loop_
_geom_bond_atom_site_label_1
_geom_bond_atom_site_label_2
_ccdc_geom_bond_type
C2    C4    S    
C16   C21   A    
C3    C9    A    
C2    O7    A    
C26   O6    A    
N1    N2    D    
C18   C20   S    
C13   C17   A    
C12   C25   S    
C4    C8    A    
H3    N1    S    
O4    Zn2   S    
C26   O8    A    
C15   C23   A    
C7    H11   S    
C18   O10   D    
C10   H8    S    
C5    H12   S    
C24   C25   D    
C25   H2    S    
N1    Zn2   S    
C9    C11   A    
C14   C22   A    
C5    C14   A    
O8    Zn2   S    
C12   O5    A    
O5    Zn1   S    
C24   H14   S    
C20   C22   A    
O3    Zn2   S    
C3    C7    A    
C22   H1    S    
C13   C15   A    
C21   C23   A    
O6    Zn1   S    
C1    O4    A    
C11   C14   A    
N2    Zn1   S    
C11   C16   A    
C16   C17   A    
C2    O9    A    
C19   H6    S    
C4    C10   A    
O7    Zn2   S    
C17   C20   A    
C19   O2    D    
C23   H7    S    
C1    C24   S    
C5    C7    A    
C8    H10   S    
C9    H9    S    
C6    H13   S    
H4    N2    S    
C6    C8    A    
C18   H5    S    
C19   C21   S    
C6    C15   A    
O1    Zn1   S    
C1    O1    A    
C3    C26   S    
C12   O3    A    
O9    Zn1   S    
C10   C13   A    
