data_mof_unit_46170.cif
_audit_creation_date              2012-12-11T15:06:52-0500
_audit_creation_method            fapswitch 2.2
_symmetry_space_group_name_H-M    P1
_symmetry_Int_Tables_number       1
_space_group_crystal_system       triclinic
_cell_length_a                    19.659456
_cell_length_b                    11.412019
_cell_length_c                    18.700657
_cell_angle_alpha                 89.999596
_cell_angle_beta                  90.76254
_cell_angle_gamma                 90.000122
_cell_volume                      4195.19723284

loop_
_atom_site_label
_atom_site_type_symbol
_atom_type_description
_atom_site_fract_x
_atom_site_fract_y
_atom_site_fract_z
_atom_type_partial_charge
C1    C     C_R   0.760884 0.524909 0.639716 0.533326
C2    C     C_R   0.239116 0.524908 0.360284 0.533313
C3    C     C_R   0.260884 0.024909 0.639716 0.533320
C4    C     C_R   0.739116 0.024907 0.360284 0.533298
C5    C     C_3   0.810544 0.133477 0.449782 -0.285120
C6    C     C_3   0.189456 0.133478 0.550218 -0.285120
C7    C     C_3   0.310544 0.633477 0.449782 -0.285119
C8    C     C_3   0.689456 0.633478 0.550218 -0.285119
C9    C     C_3   0.746998 0.059867 0.436159 0.039314
C10   C     C_3   0.253002 0.059869 0.563842 0.039311
C11   C     C_3   0.246998 0.559867 0.436158 0.039312
C12   C     C_3   0.753002 0.559869 0.563842 0.039310
C13   C     C_3   0.759186 0.093151 0.573949 0.084747
C14   C     C_3   0.240813 0.093151 0.426051 0.084747
C15   C     C_3   0.259186 0.593151 0.573949 0.084747
C16   C     C_3   0.740813 0.593151 0.426051 0.084747
C17   C     C_3   0.749690 0.962621 0.561180 -0.254133
C18   C     C_3   0.250310 0.962621 0.438822 -0.254135
C19   C     C_3   0.249690 0.462621 0.561180 -0.254134
C20   C     C_3   0.750310 0.462621 0.438822 -0.254136
C21   C     C_3   0.823002 0.133685 0.531049 -0.268047
C22   C     C_3   0.176998 0.133685 0.468950 -0.268045
C23   C     C_3   0.323002 0.633685 0.531049 -0.268047
C24   C     C_3   0.676998 0.633685 0.468950 -0.268045
C25   C     C_3   0.004635 0.203358 0.458992 -0.228944
C26   C     C_3   0.995365 0.203358 0.541010 -0.228945
C27   C     C_3   0.504635 0.703358 0.458992 -0.228945
C28   C     C_3   0.495365 0.703358 0.541010 -0.228945
C29   C     C_3   0.064347 0.403287 0.475726 -0.205325
C30   C     C_3   0.935653 0.403288 0.524274 -0.205324
C31   C     C_3   0.564347 0.903287 0.475726 -0.205325
C32   C     C_3   0.435653 0.903288 0.524274 -0.205324
C33   C     C_3   0.941889 0.385220 0.443432 -0.254691
C34   C     C_3   0.058111 0.385220 0.556567 -0.254692
C35   C     C_3   0.441889 0.885220 0.443432 -0.254690
C36   C     C_3   0.558111 0.885220 0.556567 -0.254692
C37   C     C_3   0.011040 0.330824 0.430981 0.045480
C38   C     C_3   0.988960 0.330824 0.569019 0.045479
C39   C     C_3   0.511040 0.830824 0.430981 0.045479
C40   C     C_3   0.488960 0.830824 0.569019 0.045478
C41   C     C_3   0.814228 0.018022 0.047717 -0.161222
C42   C     C_3   0.185773 0.018022 0.952283 -0.161214
C43   C     C_3   0.314227 0.518022 0.047717 -0.161215
C44   C     C_3   0.685773 0.518020 0.952284 -0.161209
C45   C     C_R   0.773825 0.121505 0.649533 0.556004
C46   C     C_R   0.226175 0.121504 0.350467 0.556002
C47   C     C_R   0.273825 0.621505 0.649533 0.556003
C48   C     C_R   0.726175 0.621504 0.350467 0.556001
C49   C     C_3   0.823586 0.041068 0.969597 0.163729
C50   C     C_3   0.176414 0.041071 0.030402 0.163732
C51   C     C_3   0.323586 0.541070 0.969598 0.163730
C52   C     C_3   0.676412 0.541071 0.030402 0.163737
C53   C     C_3   0.683820 0.029740 0.029264 -0.282353
C54   C     C_3   0.316181 0.029741 0.970740 -0.282356
C55   C     C_3   0.183819 0.529742 0.029262 -0.282357
C56   C     C_3   0.816179 0.529737 0.970744 -0.282353
C57   C     C_3   0.748925 0.201505 0.067849 0.136662
C58   C     C_3   0.251076 0.201504 0.932146 0.136656
C59   C     C_3   0.248925 0.701504 0.067852 0.136658
C60   C     C_3   0.751077 0.701501 0.932145 0.136655
C61   C     C_3   0.746224 0.069037 0.075704 0.043666
C62   C     C_3   0.253778 0.069036 0.924296 0.043678
C63   C     C_3   0.246223 0.569037 0.075704 0.043674
C64   C     C_3   0.753778 0.569032 0.924298 0.043678
C65   C     C_3   0.762075 0.110169 0.938406 0.032046
C66   C     C_3   0.237923 0.110176 0.061592 0.032046
C67   C     C_3   0.262077 0.610174 0.938408 0.032046
C68   C     C_3   0.737920 0.610179 0.061592 0.032047
C69   C     C_3   0.698627 0.034755 0.948669 -0.274738
C70   C     C_3   0.301372 0.034764 0.051335 -0.274726
C71   C     C_3   0.198628 0.534760 0.948667 -0.274733
C72   C     C_3   0.801369 0.534766 0.051338 -0.274716
C73   C     C_3   0.750705 0.224604 0.984786 -0.213414
C74   C     C_3   0.249293 0.224610 0.015208 -0.213434
C75   C     C_3   0.250707 0.724608 0.984790 -0.213426
C76   C     C_3   0.749292 0.724610 0.015206 -0.213444
C77   C     C_3   0.004270 0.481400 0.040336 -0.233284
C78   C     C_3   0.995731 0.481399 0.959662 -0.233287
C79   C     C_3   0.504270 0.981400 0.040336 -0.233285
C80   C     C_3   0.495731 0.981399 0.959662 -0.233287
C81   C     C_3   0.062646 0.279575 0.028927 -0.213718
C82   C     C_3   0.937356 0.279573 0.971073 -0.213720
C83   C     C_3   0.562645 0.779575 0.028927 -0.213720
C84   C     C_3   0.437356 0.779575 0.971073 -0.213722
C85   C     C_3   0.940494 0.298880 0.052738 -0.249856
C86   C     C_3   0.059509 0.298880 0.947261 -0.249844
C87   C     C_3   0.440493 0.798881 0.052738 -0.249849
C88   C     C_3   0.559509 0.798880 0.947260 -0.249841
C89   C     C_R   0.968422 0.341854 0.644897 0.529243
C90   C     C_R   0.031577 0.341853 0.355102 0.529236
C91   C     C_R   0.468422 0.841854 0.644897 0.529247
C92   C     C_R   0.531577 0.841853 0.355102 0.529241
C93   C     C_3   0.009498 0.353972 0.069700 0.045548
C94   C     C_3   0.990503 0.353971 0.930298 0.045547
C95   C     C_3   0.509498 0.853972 0.069700 0.045547
C96   C     C_3   0.490503 0.853971 0.930299 0.045547
C97   C     C_R   0.762319 0.528391 0.850042 0.536222
C98   C     C_R   0.237682 0.528397 0.149960 0.536187
C99   C     C_R   0.262318 0.028396 0.850040 0.536208
C100  C     C_R   0.737683 0.028399 0.149961 0.536149
C101  C     C_R   0.776183 0.138081 0.860825 0.543290
C102  C     C_R   0.223814 0.138088 0.139173 0.543309
C103  C     C_R   0.276185 0.638086 0.860827 0.543297
C104  C     C_R   0.723812 0.638093 0.139172 0.543326
C105  C     C_R   0.969532 0.353619 0.853348 0.526680
C106  C     C_R   0.030469 0.353620 0.146651 0.526649
C107  C     C_R   0.469532 0.853619 0.853348 0.526689
C108  C     C_R   0.530469 0.853620 0.146651 0.526668
C109  C     C_3   0.686537 0.133501 0.463545 -0.191535
C110  C     C_3   0.313463 0.133503 0.536455 -0.191531
C111  C     C_3   0.186537 0.633501 0.463545 -0.191536
C112  C     C_3   0.813463 0.633503 0.536455 -0.191531
C113  C     C_3   0.694583 0.156152 0.544467 0.168047
C114  C     C_3   0.305417 0.156153 0.455533 0.168048
C115  C     C_3   0.194583 0.656152 0.544467 0.168047
C116  C     C_3   0.805417 0.656153 0.455533 0.168047
C117  C     C_3   0.755144 0.944436 0.480380 -0.231403
C118  C     C_3   0.244856 0.944438 0.519622 -0.231401
C119  C     C_3   0.255144 0.444437 0.480379 -0.231404
C120  C     C_3   0.744856 0.444438 0.519622 -0.231400
Cr1   Cr    Cr6+3 0.885690 0.492860 0.745310 0.977836
Cr2   Cr    Cr6+3 0.114310 0.492860 0.254690 0.977836
Cr3   Cr    Cr6+3 0.385690 0.992860 0.745310 0.977836
Cr4   Cr    Cr6+3 0.614310 0.992860 0.254690 0.977836
Cr5   Cr    Cr6+3 0.729880 0.332270 0.748190 0.995554
Cr6   Cr    Cr6+3 0.270120 0.332270 0.251810 0.995538
Cr7   Cr    Cr6+3 0.229880 0.832270 0.748190 0.995552
Cr8   Cr    Cr6+3 0.770120 0.832270 0.251810 0.995533
Cr9   Cr    Cr6+3 0.888120 0.178590 0.753010 0.985427
Cr10  Cr    Cr6+3 0.111880 0.178590 0.246990 0.985441
Cr11  Cr    Cr6+3 0.388120 0.678590 0.753010 0.985423
Cr12  Cr    Cr6+3 0.611880 0.678590 0.246990 0.985432
H1    H     H_    0.638644 0.090222 0.451468 0.153298
H2    H     H_    0.361357 0.090226 0.548532 0.153301
H3    H     H_    0.138644 0.590222 0.451468 0.153298
H4    H     H_    0.861357 0.590226 0.548532 0.153301
H5    H     H_    0.862631 0.066682 0.541708 0.134773
H6    H     H_    0.137369 0.066682 0.458293 0.134772
H7    H     H_    0.362631 0.566682 0.541707 0.134773
H8    H     H_    0.637369 0.566682 0.458293 0.134772
H9    H     H_    0.808317 0.915716 0.471717 0.120530
H10   H     H_    0.191683 0.915717 0.528285 0.120531
H11   H     H_    0.308317 0.415716 0.471717 0.120530
H12   H     H_    0.691683 0.415717 0.528285 0.120531
H13   H     H_    0.789606 0.911165 0.589804 0.104445
H14   H     H_    0.210394 0.911165 0.410198 0.104442
H15   H     H_    0.289606 0.411165 0.589804 0.104444
H16   H     H_    0.710394 0.411165 0.410198 0.104441
H17   H     H_    0.047698 0.150525 0.443646 0.131085
H18   H     H_    0.952301 0.150526 0.556357 0.131087
H19   H     H_    0.547698 0.650525 0.443645 0.131085
H20   H     H_    0.452301 0.650526 0.556357 0.131087
H21   H     H_    0.960941 0.158799 0.432828 0.105128
H22   H     H_    0.039058 0.158800 0.567174 0.105123
H23   H     H_    0.460941 0.658799 0.432828 0.105124
H24   H     H_    0.539058 0.658800 0.567174 0.105121
H25   H     H_    0.616000 0.888787 0.457895 0.114807
H26   H     H_    0.384000 0.888788 0.542105 0.114806
H27   H     H_    0.116000 0.388787 0.457895 0.114807
H28   H     H_    0.884000 0.388788 0.542105 0.114806
H29   H     H_    0.599497 0.829025 0.577958 0.101737
H30   H     H_    0.400503 0.829025 0.422042 0.101738
H31   H     H_    0.099497 0.329025 0.577958 0.101738
H32   H     H_    0.900503 0.329025 0.422042 0.101739
H33   H     H_    0.938857 0.469278 0.414924 0.200570
H34   H     H_    0.061143 0.469278 0.585075 0.200571
H35   H     H_    0.438857 0.969278 0.414924 0.200572
H36   H     H_    0.561143 0.969278 0.585075 0.200572
H37   H     H_    0.948034 0.496685 0.534028 0.138498
H38   H     H_    0.051966 0.496684 0.465971 0.138496
H39   H     H_    0.448034 0.996685 0.534027 0.138498
H40   H     H_    0.551966 0.996684 0.465971 0.138495
H41   H     H_    0.817196 0.923973 0.057462 0.148411
H42   H     H_    0.182806 0.923972 0.942540 0.148400
H43   H     H_    0.317194 0.423972 0.057461 0.148405
H44   H     H_    0.682806 0.423970 0.942541 0.148396
H45   H     H_    0.683599 0.218311 0.434600 0.067025
H46   H     H_    0.316400 0.218314 0.565398 0.067023
H47   H     H_    0.183599 0.718311 0.434600 0.067026
H48   H     H_    0.816400 0.718314 0.565398 0.067023
H49   H     H_    0.858273 0.054784 0.078289 0.128243
H50   H     H_    0.141729 0.054781 0.921709 0.128250
H51   H     H_    0.358272 0.554782 0.078290 0.128248
H52   H     H_    0.641729 0.554779 0.921708 0.128253
H53   H     H_    0.866578 0.098307 0.964968 0.116179
H54   H     H_    0.133421 0.098307 0.035029 0.116169
H55   H     H_    0.366579 0.598308 0.964970 0.116175
H56   H     H_    0.633419 0.598307 0.035027 0.116164
H57   H     H_    0.662813 0.946955 0.046351 0.121339
H58   H     H_    0.337187 0.946953 0.953657 0.121335
H59   H     H_    0.162813 0.446955 0.046347 0.121338
H60   H     H_    0.837186 0.446949 0.953664 0.121332
H61   H     H_    0.707601 0.946112 0.929157 0.216337
H62   H     H_    0.292396 0.946125 0.070857 0.216380
H63   H     H_    0.207602 0.446120 0.929151 0.216352
H64   H     H_    0.792391 0.446132 0.070869 0.216431
H65   H     H_    0.700818 0.238304 0.088729 0.162821
H66   H     H_    0.299183 0.238307 0.911264 0.162843
H67   H     H_    0.200819 0.738307 0.088734 0.162838
H68   H     H_    0.799183 0.738305 0.911262 0.162853
H69   H     H_    0.785053 0.294616 0.971994 0.117410
H70   H     H_    0.214945 0.294623 0.027995 0.117402
H71   H     H_    0.285055 0.794620 0.972000 0.117404
H72   H     H_    0.714943 0.794623 0.027990 0.117401
H73   H     H_    0.699288 0.254830 0.969619 0.114168
H74   H     H_    0.300709 0.254837 0.030375 0.114179
H75   H     H_    0.199291 0.754835 0.969622 0.114173
H76   H     H_    0.800708 0.754840 0.030374 0.114183
H77   H     H_    0.643003 0.094145 0.038121 0.101899
H78   H     H_    0.356998 0.094145 0.961880 0.101897
H79   H     H_    0.143003 0.594147 0.038120 0.101898
H80   H     H_    0.856996 0.594140 0.961884 0.101895
H81   H     H_    0.704464 0.247184 0.553521 0.125535
H82   H     H_    0.295537 0.247184 0.446477 0.125535
H83   H     H_    0.204464 0.747184 0.553521 0.125536
H84   H     H_    0.795537 0.747184 0.446477 0.125536
H85   H     H_    0.654545 0.071891 0.918545 0.101718
H86   H     H_    0.345452 0.071908 0.081456 0.101685
H87   H     H_    0.154547 0.571901 0.918544 0.101704
H88   H     H_    0.845449 0.571917 0.081457 0.101651
H89   H     H_    0.048081 0.534519 0.055443 0.139108
H90   H     H_    0.951919 0.534517 0.944555 0.139109
H91   H     H_    0.548081 0.034519 0.055443 0.139108
H92   H     H_    0.451920 0.034518 0.944555 0.139109
H93   H     H_    0.960609 0.527758 0.064760 0.109086
H94   H     H_    0.039392 0.527759 0.935238 0.109087
H95   H     H_    0.460609 0.027758 0.064760 0.109085
H96   H     H_    0.539392 0.027758 0.935238 0.109087
H97   H     H_    0.613462 0.788369 0.051774 0.110032
H98   H     H_    0.386539 0.788370 0.948226 0.110038
H99   H     H_    0.113462 0.288369 0.051774 0.110035
H100  H     H_    0.886539 0.288369 0.948226 0.110042
H101  H     H_    0.600363 0.859371 0.931755 0.177814
H102  H     H_    0.399639 0.859373 0.068241 0.177840
H103  H     H_    0.100362 0.359373 0.931756 0.177825
H104  H     H_    0.899641 0.359374 0.068239 0.177865
H105  H     H_    0.934400 0.214449 0.081525 0.144940
H106  H     H_    0.065602 0.214449 0.918475 0.144949
H107  H     H_    0.434399 0.714449 0.081525 0.144946
H108  H     H_    0.565601 0.714448 0.918475 0.144950
H109  H     H_    0.953041 0.187750 0.961296 0.107366
H110  H     H_    0.046961 0.187753 0.038704 0.107368
H111  H     H_    0.453040 0.687752 0.961297 0.107364
H112  H     H_    0.546960 0.687753 0.038704 0.107366
H113  H     H_    0.720093 0.876245 0.462222 0.095406
H114  H     H_    0.279907 0.876247 0.537781 0.095406
H115  H     H_    0.220093 0.376245 0.462222 0.095406
H116  H     H_    0.779907 0.376247 0.537781 0.095406
H117  H     H_    0.699846 0.932474 0.580940 0.151243
H118  H     H_    0.300154 0.932473 0.419062 0.151242
H119  H     H_    0.199846 0.432474 0.580940 0.151241
H120  H     H_    0.800154 0.432473 0.419062 0.151239
H121  H     H_    0.854868 0.095000 0.422136 0.129055
H122  H     H_    0.145132 0.095001 0.577864 0.129052
H123  H     H_    0.354868 0.595000 0.422136 0.129053
H124  H     H_    0.645132 0.595001 0.577864 0.129051
H125  H     H_    0.803129 0.223796 0.429356 0.102392
H126  H     H_    0.196870 0.223797 0.570642 0.102394
H127  H     H_    0.303129 0.723796 0.429356 0.102393
H128  H     H_    0.696870 0.723798 0.570642 0.102394
H129  H     H_    0.841863 0.218963 0.549445 0.113197
H130  H     H_    0.158137 0.218963 0.450553 0.113198
H131  H     H_    0.341863 0.718963 0.549445 0.113197
H132  H     H_    0.658137 0.718963 0.450553 0.113198
O1    O     O_R   0.957210 0.449410 0.665480 -0.534724
O2    O     O_R   0.042790 0.449410 0.334520 -0.534727
O3    O     O_R   0.457210 0.949410 0.665480 -0.534723
O4    O     O_R   0.542790 0.949410 0.334520 -0.534725
O5    O     O_R   0.736260 0.212010 0.826560 -0.521344
O6    O     O_R   0.263740 0.212010 0.173440 -0.521347
O7    O     O_R   0.236260 0.712010 0.826560 -0.521344
O8    O     O_R   0.763740 0.712010 0.173440 -0.521350
O9    O     O_R   0.832520 0.095300 0.836000 -0.488293
O10   O     O_R   0.167480 0.095300 0.164000 -0.488281
O11   O     O_R   0.332520 0.595300 0.836000 -0.488290
O12   O     O_R   0.667480 0.595300 0.164000 -0.488275
O13   O     O_R   0.946380 0.253940 0.826940 -0.520999
O14   O     O_R   0.053620 0.253940 0.173060 -0.521007
O15   O     O_R   0.446380 0.753940 0.826940 -0.520998
O16   O     O_R   0.553620 0.753940 0.173060 -0.521005
O17   O     O_3   0.834560 0.334570 0.748840 -0.280572
O18   O     O_3   0.165440 0.334570 0.251160 -0.280571
O19   O     O_3   0.334560 0.834570 0.748840 -0.280571
O20   O     O_3   0.665440 0.834570 0.251160 -0.280569
O21   O     O_R   0.820730 0.541240 0.668250 -0.520309
O22   O     O_R   0.179270 0.541240 0.331750 -0.520308
O23   O     O_R   0.320730 0.041240 0.668250 -0.520309
O24   O     O_R   0.679270 0.041240 0.331750 -0.520308
O25   O     O_R   0.714240 0.455060 0.663710 -0.537042
O26   O     O_R   0.285760 0.455060 0.336290 -0.537051
O27   O     O_R   0.214240 0.955060 0.663710 -0.537043
O28   O     O_R   0.785760 0.955060 0.336290 -0.537053
O29   O     O_R   0.736780 0.204870 0.675910 -0.482811
O30   O     O_R   0.263220 0.204870 0.324090 -0.482820
O31   O     O_R   0.236780 0.704870 0.675910 -0.482810
O32   O     O_R   0.763220 0.704870 0.324090 -0.482819
O33   O     O_R   0.833070 0.087590 0.673490 -0.542498
O34   O     O_R   0.166930 0.087590 0.326510 -0.542495
O35   O     O_R   0.333070 0.587590 0.673490 -0.542498
O36   O     O_R   0.666930 0.587590 0.326510 -0.542495
O37   O     O_R   0.946890 0.246800 0.676300 -0.514176
O38   O     O_R   0.053110 0.246800 0.323700 -0.514170
O39   O     O_R   0.446890 0.746800 0.676300 -0.514177
O40   O     O_R   0.553110 0.746800 0.323700 -0.514174
O41   O     O_R   0.956650 0.457120 0.827980 -0.529538
O42   O     O_R   0.043350 0.457120 0.172020 -0.529525
O43   O     O_R   0.456650 0.957120 0.827980 -0.529541
O44   O     O_R   0.543350 0.957120 0.172020 -0.529532
O45   O     O_R   0.820220 0.548390 0.818890 -0.527249
O46   O     O_R   0.179780 0.548390 0.181110 -0.527232
O47   O     O_R   0.320220 0.048390 0.818890 -0.527242
O48   O     O_R   0.679780 0.048390 0.181110 -0.527216
O49   O     O_R   0.713680 0.462770 0.826210 -0.537365
O50   O     O_R   0.286320 0.462770 0.173790 -0.537379
O51   O     O_R   0.213680 0.962770 0.826210 -0.537371
O52   O     O_R   0.786320 0.962770 0.173790 -0.537393
O53   O     O_3   0.835050 0.934589 0.932318 -0.587726
C121  C     C_3   0.904856 0.903984 0.934776 -0.158425
H133  H     H_    0.924014 0.895585 0.990773 0.082369
H134  H     H_    0.935931 0.968831 0.905144 0.137378
H135  H     H_    0.911528 0.817825 0.908362 0.122898
O54   O     O_3   0.164950 0.934592 0.067683 -0.587721
C122  C     C_3   0.095145 0.903984 0.065224 -0.158430
H136  H     H_    0.075990 0.895573 0.009227 0.082371
H137  H     H_    0.064067 0.968835 0.094850 0.137374
H138  H     H_    0.088473 0.817830 0.091645 0.122899
O55   O     O_3   0.335050 0.434591 0.932318 -0.587727
C123  C     C_3   0.404856 0.403986 0.934776 -0.158428
H139  H     H_    0.424013 0.395585 0.990773 0.082370
H140  H     H_    0.435932 0.468833 0.905145 0.137377
H141  H     H_    0.411528 0.317828 0.908361 0.122897
O56   O     O_3   0.664949 0.434593 0.067684 -0.587716
C124  C     C_3   0.595144 0.403985 0.065225 -0.158438
H142  H     H_    0.575989 0.395574 0.009228 0.082373
H143  H     H_    0.564065 0.468835 0.094851 0.137372
H144  H     H_    0.588472 0.317830 0.091646 0.122897
O57   O     O_3   0.806173 0.248194 0.105167 -0.615797
C125  C     C_3   0.788968 0.289304 0.174529 -0.040130
H145  H     H_    0.769589 0.218023 0.208775 0.158375
H146  H     H_    0.749713 0.359365 0.171639 0.178065
C126  C     C_3   0.851736 0.339157 0.212218 -0.376911
H147  H     H_    0.869734 0.418917 0.184307 0.142956
H148  H     H_    0.839041 0.363476 0.268005 0.110045
H149  H     H_    0.893028 0.272737 0.213664 0.166038
O58   O     O_3   0.193830 0.248179 0.894821 -0.615795
C127  C     C_3   0.211044 0.289330 0.825471 -0.040136
H150  H     H_    0.230617 0.218163 0.791275 0.158342
H151  H     H_    0.250159 0.359601 0.828397 0.178068
C128  C     C_3   0.148233 0.338789 0.787682 -0.376916
H152  H     H_    0.130028 0.418421 0.815560 0.143059
H153  H     H_    0.160954 0.363189 0.731916 0.109955
H154  H     H_    0.107091 0.272114 0.786176 0.166067
O59   O     O_3   0.306172 0.748184 0.105174 -0.615797
C129  C     C_3   0.288963 0.789316 0.174529 -0.040139
H155  H     H_    0.269459 0.718109 0.208742 0.158357
H156  H     H_    0.249799 0.859514 0.171618 0.178066
C130  C     C_3   0.351758 0.838911 0.212282 -0.376922
H157  H     H_    0.369889 0.918589 0.184395 0.143026
H158  H     H_    0.339049 0.863277 0.268058 0.109984
H159  H     H_    0.392953 0.772328 0.213763 0.166061
O60   O     O_3   0.693831 0.748173 0.894818 -0.615795
C131  C     C_3   0.711046 0.789326 0.825469 -0.040149
H160  H     H_    0.730669 0.718189 0.791289 0.158345
H161  H     H_    0.750122 0.859652 0.828399 0.178065
C132  C     C_3   0.648226 0.838672 0.787652 -0.376939
H162  H     H_    0.629967 0.918270 0.815516 0.143097
H163  H     H_    0.660950 0.863087 0.731890 0.109924
H164  H     H_    0.607126 0.771933 0.786137 0.166083
O61   O     O_3   0.635939 0.122758 0.582434 -0.592218
C133  C     C_3   0.586016 0.211976 0.579266 -0.156990
H165  H     H_    0.572385 0.235266 0.523120 0.084939
H166  H     H_    0.603306 0.291095 0.609092 0.142126
H167  H     H_    0.539190 0.179640 0.605186 0.139284
O62   O     O_3   0.364061 0.122756 0.417568 -0.592227
C134  C     C_3   0.413980 0.211982 0.420723 -0.156987
H168  H     H_    0.427605 0.235304 0.476868 0.084934
H169  H     H_    0.396687 0.291085 0.390879 0.142149
H170  H     H_    0.460810 0.179638 0.394814 0.139278
O63   O     O_3   0.135939 0.622758 0.582434 -0.592219
C135  C     C_3   0.086016 0.711976 0.579266 -0.156991
H171  H     H_    0.072385 0.735266 0.523120 0.084940
H172  H     H_    0.103306 0.791095 0.609092 0.142127
H173  H     H_    0.039190 0.679640 0.605186 0.139285
O64   O     O_3   0.864061 0.622755 0.417568 -0.592230
C136  C     C_3   0.913980 0.711982 0.420723 -0.156987
H174  H     H_    0.927605 0.735305 0.476867 0.084934
H175  H     H_    0.896687 0.791085 0.390878 0.142151
H176  H     H_    0.960810 0.679638 0.394814 0.139278

loop_
_geom_bond_atom_site_label_1
_geom_bond_atom_site_label_2
_ccdc_geom_bond_type
C78   H94   S    
C130  H157  S    
C82   C94   S    
C119  H11   S    
C7    H127  S    
C120  H12   S    
C41   C61   S    
C116  H84   S    
C53   C69   S    
C56   H60   S    
O57   C125  S    
C43   C63   S    
C124  H142  S    
C44   C64   S    
C46   O30   A    
C70   H86   S    
C63   C98   S    
C31   H40   S    
C28   C40   S    
Cr12  O12   S    
C36   H36   S    
C30   C38   S    
C75   H75   S    
C56   C72   S    
C98   O46   A    
C8    H124  S    
C106  O14   A    
C21   H5    S    
C84   H98   S    
C18   C118  S    
C81   C86   S    
Cr4   O20   S    
C83   C88   S    
C92   O40   A    
C111  H47   S    
C91   O3    A    
C85   H105  S    
C41   C49   S    
C109  H1    S    
C122  H136  S    
Cr1   O1    S    
C18   H14   S    
C26   C38   S    
C14   C114  S    
C73   H69   S    
C83   H112  S    
Cr4   O4    S    
C24   H8    S    
C43   H51   S    
C55   H59   S    
C81   H110  S    
C15   C19   S    
C30   H37   S    
C47   O35   A    
C54   C70   S    
C23   H131  S    
C68   C72   S    
C69   H61   S    
C1    O25   A    
C98   O50   A    
C102  O10   A    
C31   H25   S    
Cr5   O49   S    
C64   C97   S    
C130  H159  S    
C36   H29   S    
C15   C115  S    
C20   C120  S    
Cr7   O31   S    
C124  H144  S    
Cr8   O32   S    
Cr1   O41   S    
C121  H135  S    
C57   H65   S    
Cr6   O6    S    
C46   O34   A    
C72   H64   S    
C134  H168  S    
C118  H114  S    
C57   C61   S    
C82   C85   S    
C59   C63   S    
C60   C64   S    
C132  H162  S    
C13   C45   S    
C66   C70   S    
C22   H130  S    
Cr9   O33   S    
C86   H106  S    
C49   O53   S    
C95   C108  S    
C60   H68   S    
C62   C99   S    
C92   O4    A    
C5    C21   S    
C108  O44   A    
C81   H99   S    
C110  H46   S    
C31   C36   S    
C48   O36   A    
C55   C71   S    
C76   H76   S    
C135  H171  S    
C136  H175  S    
C88   H108  S    
Cr7   O51   S    
Cr2   O2    S    
C128  H152  S    
C114  H82   S    
C65   C101  S    
C43   C51   S    
Cr11  O19   S    
C133  H165  S    
C67   C103  S    
C3    O27   A    
C88   H101  S    
C50   O54   S    
C37   C90   S    
Cr10  O34   S    
Cr11  O39   S    
C78   C94   S    
C100  O48   A    
C20   H120  S    
C131  H160  S    
C66   C74   S    
C25   H17   S    
C5    H121  S    
C119  H115  S    
O62   C134  S    
C121  H134  S    
C85   C93   S    
C106  O42   A    
C87   C95   S    
C56   C64   S    
C10   C110  S    
C47   O31   A    
C42   C62   S    
C113  O61   S    
C48   O32   A    
C89   O37   A    
C112  H48   S    
C44   C52   S    
C91   O39   A    
Cr7   O7    S    
Cr8   O8    S    
C1    C12   S    
Cr1   O17   S    
C112  H4    S    
C2    C11   S    
C126  H148  S    
Cr12  O16   S    
C87   H107  S    
C115  O63   S    
O56   C124  S    
C42   H42   S    
C132  H164  S    
C75   H71   S    
C25   C26   S    
C101  O5    A    
C60   O60   S    
C122  H137  S    
C103  O7    A    
C8    H128  S    
C5    C9    S    
C109  H45   S    
C93   C106  S    
C127  H151  S    
C104  O12   A    
C8    C12   S    
C5    H125  S    
C51   C67   S    
C42   C50   S    
C135  H173  S    
C78   H90   S    
C128  H154  S    
C125  H146  S    
Cr4   O44   S    
C61   C100  S    
C67   C75   S    
Cr8   O20   S    
C50   H54   S    
C112  C116  S    
C58   C74   S    
C127  C128  S    
C134  H170  S    
C21   H129  S    
C73   H73   S    
C54   H58   S    
C33   H33   S    
C44   H44   S    
Cr5   O17   S    
C123  H139  S    
C79   H91   S    
C68   C76   S    
C125  C126  S    
C13   C17   S    
C14   C22   S    
C99   O51   A    
C103  O11   A    
C19   H119  S    
C51   O55   S    
C7    C23   S    
C17   H117  S    
C8    C24   S    
C89   O1    A    
C40   C91   S    
Cr5   O25   S    
C110  H2    S    
C19   C119  S    
Cr8   O28   S    
C49   H53   S    
Cr1   O45   S    
C129  H155  S    
Cr2   O42   S    
C72   H88   S    
Cr3   O47   S    
C120  H116  S    
Cr6   O30   S    
C4    C9    S    
C53   H57   S    
C58   C62   S    
C88   C96   S    
C94   C105  S    
C77   H93   S    
Cr9   O9    S    
C12   C112  S    
Cr11  O35   S    
C1    O21   A    
O59   C129  S    
O63   C135  S    
C14   C46   S    
C77   C78   S    
C42   H50   S    
C3    O23   A    
Cr9   O37   S    
C114  O62   S    
C69   H85   S    
C55   C63   S    
C57   O57   S    
C6    C22   S    
C9    C117  S    
C66   C102  S    
C41   H41   S    
Cr6   O26   S    
C99   O47   A    
C15   C47   S    
Cr10  O10   S    
Cr12  O36   S    
Cr11  O15   S    
C17   C117  S    
C71   H63   S    
O54   C122  S    
C107  O15   A    
C130  H158  S    
Cr10  O38   S    
C9    C109  S    
C41   H49   S    
C123  H141  S    
C16   C116  S    
C100  O52   A    
C124  H143  S    
C27   H23   S    
C117  H9    S    
C58   O58   S    
C25   H21   S    
C26   H18   S    
C116  O64   S    
C54   C62   S    
C107  O43   A    
C11   C111  S    
C29   C34   S    
C19   H15   S    
C82   H109  S    
C45   O33   A    
C30   H28   S    
C104  O8    A    
C79   C95   S    
C80   H92   S    
C90   O38   A    
C70   H62   S    
Cr1   O21   S    
C80   H96   S    
Cr2   O18   S    
Cr3   O23   S    
Cr4   O24   S    
Cr12  O20   S    
C32   H39   S    
C39   C92   S    
C135  H172  S    
C136  H174  S    
C27   H19   S    
C102  O6    A    
C7    H123  S    
C68   C104  S    
C17   H13   S    
C6    C10   S    
C133  H166  S    
C117  H113  S    
C83   H97   S    
C22   H6    S    
C6    H126  S    
O55   C123  S    
C2    O26   A    
C131  H161  S    
C65   C69   S    
Cr6   O18   S    
C77   C93   S    
C60   C76   S    
Cr4   O48   S    
C84   H111  S    
C67   C71   S    
C111  H3    S    
C33   C37   S    
C133  H167  S    
C51   H55   S    
Cr3   O3    S    
C53   H77   S    
Cr12  O40   S    
C29   C37   S    
C59   O59   S    
C34   H34   S    
C131  C132  S    
C43   H43   S    
C97   O45   A    
C85   H104  S    
C105  O13   A    
C14   C18   S    
C35   C39   S    
C84   C87   S    
C113  H81   S    
C11   C119  S    
O64   C136  S    
C16   C48   S    
C4    O28   A    
C29   H27   S    
C126  H147  S    
C115  H83   S    
C7    C11   S    
C38   C89   S    
C4    O24   A    
C87   H102  S    
C49   C65   S    
C23   H7    S    
C90   O2    A    
Cr6   O50   S    
C56   H80   S    
C132  H163  S    
C57   C73   S    
Cr2   O46   S    
C65   C73   S    
C6    H122  S    
Cr3   O43   S    
C84   C96   S    
Cr7   O19   S    
C86   C94   S    
C25   C37   S    
C12   C120  S    
C27   C39   S    
C52   O56   S    
C35   H35   S    
Cr9   O13   S    
C29   H38   S    
C80   C96   S    
C44   H52   S    
C52   C68   S    
C16   C20   S    
C2    O22   A    
C136  H176  S    
C15   C23   S    
C128  H153  S    
C97   O49   A    
C101  O9    A    
C53   C61   S    
C79   H95   S    
C32   H26   S    
C134  H169  S    
C35   H30   S    
C13   C21   S    
C32   C35   S    
C36   C40   S    
C33   H32   S    
C123  H140  S    
C34   H31   S    
C59   H67   S    
Cr7   O27   S    
Cr8   O52   S    
C74   H70   S    
Cr5   O5    S    
Cr10  O14   S    
Cr11  O11   S    
C121  H133  S    
C10   C118  S    
C81   C93   S    
C54   H78   S    
C83   C95   S    
C24   H132  S    
C20   H16   S    
C82   H100  S    
Cr9   O17   S    
C50   C66   S    
C77   H89   S    
C28   H20   S    
C129  H156  S    
C26   H22   S    
C59   C75   S    
O61   C133  S    
C74   H74   S    
C126  H149  S    
C110  C114  S    
C58   H66   S    
C30   C33   S    
C34   C38   S    
C45   O29   A    
C96   C107  S    
C118  H10   S    
Cr5   O29   S    
C76   H72   S    
C109  C113  S    
C129  C130  S    
C52   H56   S    
O60   C131  S    
C71   H87   S    
C86   H103  S    
C122  H138  S    
Cr2   O22   S    
Cr10  O18   S    
C3    C10   S    
Cr3   O19   S    
C127  H150  S    
C18   H118  S    
C31   C39   S    
C32   C40   S    
O53   C121  S    
C55   H79   S    
C79   C80   S    
C16   C24   S    
C125  H145  S    
C27   C28   S    
C28   H24   S    
C111  C115  S    
O58   C127  S    
C108  O16   A    
C13   C113  S    
C105  O41   A    
