data_mof_unit_46399.cif
_audit_creation_date              2012-12-10T18:21:23-0500
_audit_creation_method            fapswitch 2.2
_symmetry_space_group_name_H-M    P1
_symmetry_Int_Tables_number       1
_space_group_crystal_system       triclinic
_cell_length_a                    14.942871
_cell_length_b                    14.019955
_cell_length_c                    10.63239
_cell_angle_alpha                 89.86319
_cell_angle_beta                  89.413201
_cell_angle_gamma                 89.935154
_cell_volume                      2227.34393607

loop_
_atom_site_label
_atom_site_type_symbol
_atom_type_description
_atom_site_fract_x
_atom_site_fract_y
_atom_site_fract_z
_atom_type_partial_charge
C1    C     C_R   0.326323 0.499936 0.503645 0.896974
C2    C     C_3   0.602379 0.481491 0.928789 0.219667
C3    C     C_R   0.814154 0.411111 0.523840 -0.256732
C4    C     C_R   0.769192 0.498549 0.520339 -0.073323
C5    C     C_R   0.814695 0.583954 0.538517 -0.266852
C6    C     C_R   0.906544 0.583040 0.552189 0.160116
C7    C     C_R   0.952945 0.494969 0.550718 0.014491
C8    C     C_R   0.906156 0.407781 0.542610 -0.039167
C9    C     C_R   0.952793 0.669277 0.561850 -0.230418
C10   C     C_R   0.045503 0.669367 0.561108 -0.220003
C11   C     C_R   0.092200 0.583204 0.550856 0.142727
C12   C     C_R   0.497604 0.500183 0.257708 0.839606
C13   C     C_R   0.046128 0.494975 0.549705 0.031127
C14   C     C_R   0.093303 0.407679 0.541000 -0.011517
C15   C     C_R   0.046846 0.319466 0.545258 0.043791
C16   C     C_R   0.952807 0.319825 0.546696 0.381744
C17   C     C_R   0.184260 0.584358 0.536984 -0.248720
C18   C     C_R   0.230447 0.498942 0.520273 -0.092603
C19   C     C_R   0.185863 0.411487 0.525022 -0.228835
C20   C     C_R   0.558250 0.798733 0.424122 -0.175418
C21   C     C_R   0.558395 0.201423 0.424345 -0.172470
C22   C     C_R   0.442187 0.796367 0.579322 0.522881
C23   C     C_R   0.441974 0.203523 0.579056 0.519014
C24   C     C_R   0.438929 0.898100 0.579881 -0.092317
C25   C     C_R   0.438859 0.101786 0.579847 -0.097127
C26   C     C_R   0.673649 0.499797 0.503264 0.860981
C27   C     C_R   0.499735 0.949273 0.502843 0.067039
C28   C     C_R   0.499732 0.050760 0.502867 0.068950
C29   C     C_R   0.560005 0.899104 0.424395 0.013566
C30   C     C_R   0.560069 0.101065 0.424513 0.013582
C31   C     C_R   0.375372 0.949956 0.650845 -0.193320
C32   C     C_R   0.375375 0.049768 0.650902 -0.215615
C33   C     C_R   0.620013 0.050177 0.347244 -0.181873
C34   C     C_R   0.619962 0.950143 0.347158 -0.190080
C35   C     C_R   0.500030 0.499975 0.742529 0.828939
C36   C     C_3   0.471469 0.600177 0.071124 -0.416478
C37   C     C_3   0.431748 0.425107 0.072775 -0.426255
C38   C     C_3   0.465504 0.597387 0.928585 -0.418647
C39   C     C_3   0.435536 0.422998 0.929247 -0.406247
C40   C     C_3   0.594303 0.474550 0.075384 -0.394030
C41   C     C_3   0.498602 0.500389 0.121536 0.138676
C42   C     C_3   0.502748 0.499943 0.879226 0.091800
H1    H     H_    0.521656 0.654657 0.098942 0.181266
H2    H     H_    0.448250 0.352755 0.109294 0.188477
H3    H     H_    0.080657 0.736907 0.564019 0.148364
H4    H     H_    0.219575 0.651927 0.536358 0.185682
H5    H     H_    0.224209 0.346829 0.512954 0.194786
H6    H     H_    0.603546 0.759004 0.363725 0.151935
H7    H     H_    0.603811 0.241269 0.364130 0.151767
H8    H     H_    0.323526 0.914595 0.705034 0.144215
H9    H     H_    0.323426 0.084974 0.704994 0.144861
H10   H     H_    0.666749 0.087784 0.286413 0.140359
H11   H     H_    0.666667 0.912657 0.286264 0.136990
H12   H     H_    0.405515 0.622222 0.111324 0.180119
H13   H     H_    0.362630 0.442764 0.105316 0.168368
H14   H     H_    0.394275 0.606055 0.900627 0.195295
H15   H     H_    0.367347 0.437463 0.892226 0.181349
H16   H     H_    0.501186 0.660051 0.888188 0.187115
H17   H     H_    0.452437 0.349841 0.897615 0.184869
H18   H     H_    0.643425 0.522116 0.121852 0.140531
H19   H     H_    0.608972 0.401588 0.109966 0.158060
H20   H     H_    0.777028 0.346190 0.507828 0.180186
H21   H     H_    0.779112 0.651444 0.538458 0.155848
H22   H     H_    0.917333 0.736731 0.565220 0.146689
N1    N     N_R   0.500070 0.750030 0.500050 -0.111287
N2    N     N_R   0.500070 0.249970 0.500050 -0.110733
O1    O     O_R   0.367860 0.580280 0.500020 -0.575370
O2    O     O_R   0.367860 0.419720 0.500020 -0.578469
O3    O     O_R   0.500000 0.580270 0.314790 -0.630871
O4    O     O_R   0.500000 0.419730 0.314790 -0.633106
O5    O     O_R   0.632160 0.580270 0.499960 -0.631623
O6    O     O_R   0.632160 0.419730 0.499960 -0.635656
O7    O     O_R   0.500030 0.580270 0.685200 -0.591866
O8    O     O_R   0.500030 0.419730 0.685200 -0.595900
Zn1   Zn    Zn3+2 0.500020 0.607200 0.499990 0.974928
Zn2   Zn    Zn3+2 0.500020 0.392800 0.499990 0.971170
C43   C     C_3   0.095862 0.224217 0.550114 -0.359184
C44   C     C_3   0.119846 0.189101 0.417416 -0.332430
C45   C     C_3   0.178966 0.100386 0.422285 -0.877399
H23   H     H_    0.243510 0.117406 0.467884 0.273282
H24   H     H_    0.144858 0.042443 0.475614 0.263729
H25   H     H_    0.193105 0.075038 0.325238 0.250180
H26   H     H_    0.057388 0.171834 0.366347 0.247376
H27   H     H_    0.155790 0.245530 0.363602 0.214651
H28   H     H_    0.156338 0.229623 0.609542 0.187316
H29   H     H_    0.054186 0.169196 0.598006 0.238375
O9    O     O_3   0.908815 0.233167 0.547215 -0.790323
H30   H     H_    0.854344 0.238945 0.600303 0.328427
O10   O     O_3   0.388215 0.741383 0.656274 -0.756838
H31   H     H_    0.378754 0.775306 0.736762 0.297597
O11   O     O_3   0.387633 0.258440 0.655406 -0.758741
H32   H     H_    0.377515 0.224265 0.735734 0.296803
C46   C     C_3   0.663530 0.569400 0.891116 -0.422326
C47   C     C_3   0.764720 0.559243 0.913956 -0.353792
C48   C     C_3   0.813829 0.652107 0.883602 -0.878273
H33   H     H_    0.801183 0.674382 0.785117 0.264767
H34   H     H_    0.791249 0.709634 0.948237 0.255626
H35   H     H_    0.886952 0.641586 0.895209 0.257096
H36   H     H_    0.777584 0.541321 0.013829 0.217692
H37   H     H_    0.793329 0.502904 0.852356 0.245805
H38   H     H_    0.655415 0.585511 0.789564 0.199841
H39   H     H_    0.641412 0.633567 0.943796 0.205550
C49   C     C_3   0.643287 0.387571 0.868488 -0.369004
C50   C     C_3   0.715672 0.333828 0.944124 -0.379000
C51   C     C_3   0.778920 0.278280 0.857622 -0.889987
H40   H     H_    0.740485 0.228577 0.797520 0.263768
H41   H     H_    0.817654 0.328277 0.797005 0.256945
H42   H     H_    0.826675 0.236287 0.914888 0.256484
H43   H     H_    0.755889 0.382133 0.002948 0.223910
H44   H     H_    0.682684 0.281871 0.008709 0.212649
H45   H     H_    0.590878 0.333958 0.850510 0.194796
H46   H     H_    0.670373 0.405947 0.773606 0.208657

loop_
_geom_bond_atom_site_label_1
_geom_bond_atom_site_label_2
_ccdc_geom_bond_type
C50   H44   S    
C12   O3    A    
C35   O8    A    
C46   C47   S    
C40   H18   S    
C21   N2    A    
C27   C29   A    
C9    H22   S    
C26   O6    A    
C48   H33   S    
C24   C27   A    
O6    Zn2   S    
C6    C9    A    
C21   H7    S    
C48   H35   S    
C7    C8    A    
C32   H9    S    
C43   C44   S    
C25   C28   A    
C51   H41   S    
C1    C18   S    
O8    Zn2   S    
C5    C6    A    
C47   H36   S    
C23   N2    A    
C38   C42   S    
C50   H43   S    
C19   H5    S    
C15   C16   A    
C39   H15   S    
C1    O2    A    
C5    H21   S    
C49   H45   S    
C18   C19   A    
C35   C42   S    
C38   H16   S    
C44   H26   S    
C11   C17   A    
C16   O9    S    
C9    C10   A    
C25   C32   A    
C43   H28   S    
C8    C16   A    
C13   C14   A    
C26   O5    A    
O7    Zn1   S    
C36   C41   S    
C50   C51   S    
C33   C34   A    
C39   C42   S    
C20   C29   A    
C51   H42   S    
C20   N1    A    
C17   H4    S    
C3    C8    A    
C46   H38   S    
O11   H32   S    
C45   H24   S    
C44   C45   S    
C29   C34   A    
C40   H19   S    
C49   H46   S    
C33   H10   S    
O9    H30   S    
C22   N1    A    
C12   C41   S    
C2    C40   S    
C31   C32   A    
C47   H37   S    
C39   H17   S    
C10   H3    S    
C17   C18   A    
C20   H6    S    
C40   C41   S    
C43   H29   S    
O4    Zn2   S    
C22   C24   A    
O1    Zn1   S    
C31   H8    S    
C3    C4    A    
C49   C50   S    
C21   C30   A    
C3    H20   S    
C12   O4    A    
C35   O7    A    
C30   C33   A    
C14   C19   A    
C2    C46   S    
C4    C5    A    
C46   H39   S    
C45   H25   S    
C4    C26   S    
C48   H34   S    
C6    C7    A    
O2    Zn2   S    
C51   H40   S    
N1    Zn1   S    
C37   H2    S    
C36   C38   S    
C24   C31   A    
C37   C39   S    
O5    Zn1   S    
C11   C13   A    
C15   C43   S    
C2    C49   S    
C2    C42   S    
C28   C30   A    
C1    O1    A    
C22   O10   S    
O3    Zn1   S    
C23   O11   S    
C23   C25   A    
C37   C41   S    
C47   C48   S    
C36   H12   S    
C10   C11   A    
C45   H23   S    
C37   H13   S    
C44   H27   S    
C7    C13   A    
C38   H14   S    
C34   H11   S    
C27   C28   A    
C14   C15   A    
C36   H1    S    
O10   H31   S    
N2    Zn2   S    
