data_mof_unit_19629.cif
_audit_creation_date              2012-12-10T18:33:32-0500
_audit_creation_method            fapswitch 2.2
_symmetry_space_group_name_H-M    P1
_symmetry_Int_Tables_number       1
_space_group_crystal_system       triclinic
_cell_length_a                    8.721964
_cell_length_b                    15.144836
_cell_length_c                    13.908543
_cell_angle_alpha                 90.873597
_cell_angle_beta                  98.493969
_cell_angle_gamma                 91.534485
_cell_volume                      1816.0712929

loop_
_atom_site_label
_atom_site_type_symbol
_atom_type_description
_atom_site_fract_x
_atom_site_fract_y
_atom_site_fract_z
_atom_type_partial_charge
C1    C     C_R   0.499371 0.330428 0.499263 0.873383
C2    C     C_R   0.491978 0.670644 0.500033 0.827604
C3    C     C_R   0.577757 0.567610 0.116598 -0.247846
C4    C     C_R   0.371156 0.463567 0.878883 -0.242247
C5    C     C_R   0.580279 0.564518 0.218085 0.107184
C6    C     C_R   0.377174 0.462517 0.778003 0.069296
C7    C     C_R   0.417182 0.436246 0.199170 0.190182
C8    C     C_R   0.620664 0.538586 0.805108 0.184694
C9    C     C_R   0.416360 0.435974 0.098016 -0.272547
C10   C     C_R   0.620422 0.537369 0.906081 -0.263659
C11   C     C_R   0.495271 0.502303 0.054252 0.122555
C12   C     C_R   0.494529 0.501389 0.945257 0.112502
C13   C     C_R   0.203614 0.500233 0.474912 0.950910
C14   C     C_R   0.796428 0.500783 0.525116 0.920615
C15   C     C_2   0.037361 0.500367 0.461303 -0.285515
C16   C     C_2   0.962742 0.501266 0.538772 -0.270739
C17   C     C_R   0.394428 0.092334 0.530267 -0.183411
C18   C     C_R   0.527165 0.909411 0.425979 -0.171533
C19   C     C_R   0.381493 0.183398 0.525922 -0.046947
C20   C     C_R   0.501946 0.818457 0.417886 -0.013871
C21   C     C_R   0.505243 0.234365 0.498465 -0.166172
C22   C     C_R   0.484600 0.769070 0.502111 -0.172969
C23   C     C_R   0.640268 0.193679 0.475965 -0.083741
C24   C     C_R   0.473265 0.815694 0.591007 -0.085524
C25   C     C_R   0.654658 0.101363 0.485226 -0.042072
C26   C     C_R   0.500607 0.908208 0.597515 -0.054419
C27   C     C_R   0.529104 0.051320 0.512089 0.024748
C28   C     C_R   0.527868 0.954203 0.514073 0.039445
Cu1   Cu    Cu3+1 0.500000 0.499990 0.596430 1.021625
Cu2   Cu    Cu3+1 0.500000 0.500010 0.403570 1.027346
H1    H     H_    0.639347 0.621625 0.087731 0.147062
H2    H     H_    0.269242 0.435473 0.904029 0.160031
H3    H     H_    0.354350 0.383047 0.054073 0.149568
H4    H     H_    0.719793 0.565323 0.953790 0.158710
N1    N     N_R   0.500000 0.500020 0.258690 -0.218843
N2    N     N_R   0.500000 0.499980 0.741310 -0.222161
O1    O     O_R   0.500010 0.371450 0.581430 -0.570812
O2    O     O_R   0.499990 0.628550 0.418570 -0.583886
O3    O     O_R   0.500010 0.371460 0.418560 -0.576734
O4    O     O_R   0.499990 0.628540 0.581440 -0.547917
O5    O     O_R   0.274840 0.499990 0.562640 -0.593972
O6    O     O_R   0.725160 0.500010 0.437360 -0.597655
O7    O     O_R   0.274840 0.500000 0.399770 -0.553070
O8    O     O_R   0.725160 0.500000 0.600230 -0.580609
H5    H     H_    0.976209 0.499498 0.387271 0.180517
H6    H     H_    0.023874 0.501978 0.612798 0.170990
H7    H     H_    0.297670 0.052065 0.547392 0.188962
H8    H     H_    0.538174 0.946975 0.361361 0.173172
C29   C     C_2   0.236474 0.222000 0.550214 0.862230
O9    O     O_2   0.190273 0.291664 0.515148 -0.588213
O10   O     O_R   0.150918 0.177089 0.612730 -0.727685
H9    H     H_    0.056383 0.210021 0.625869 0.367506
C30   C     C_2   0.483881 0.780399 0.317992 0.860328
O11   O     O_2   0.368620 0.735138 0.286496 -0.563366
O12   O     O_R   0.593879 0.801428 0.257693 -0.750731
H10   H     H_    0.566985 0.773670 0.190310 0.335297
C31   C     C_2   0.769979 0.249393 0.450486 0.895009
O13   O     O_2   0.848049 0.295389 0.513257 -0.615187
O14   O     O_R   0.798155 0.251963 0.354241 -0.666899
H11   H     H_    0.888172 0.293503 0.345902 0.360345
C32   C     C_2   0.425331 0.769539 0.675921 0.971365
O15   O     O_2   0.506499 0.775511 0.755481 -0.547634
O16   O     O_R   0.286383 0.719583 0.664375 -0.740627
H12   H     H_    0.266771 0.690514 0.726790 0.331465
C33   C     C_2   0.802465 0.057899 0.473445 0.863342
O17   O     O_2   0.852783 0.000889 0.530022 -0.531274
O18   O     O_R   0.884083 0.081698 0.398099 -0.714428
H13   H     H_    0.983121 0.047970 0.398881 0.342521
C34   C     C_2   0.496985 0.957962 0.690351 0.891745
O19   O     O_2   0.602627 0.010422 0.720945 -0.529180
O20   O     O_R   0.371293 0.946435 0.741214 -0.721422
H14   H     H_    0.381873 0.984544 0.802527 0.360454
H15   H     H_    0.646038 0.614511 0.264312 0.145229
H16   H     H_    0.281864 0.432007 0.729193 0.153380
C35   C     C_2   0.327228 0.365015 0.237497 0.886664
O21   O     O_2   0.199390 0.379305 0.259226 -0.582973
O22   O     O_R   0.384240 0.279564 0.242211 -0.729488
H17   H     H_    0.311904 0.235800 0.268806 0.341505
C36   C     C_2   0.755939 0.583178 0.773002 0.886584
O23   O     O_2   0.739229 0.647005 0.720350 -0.548742
O24   O     O_R   0.904839 0.554938 0.807921 -0.779717
H18   H     H_    0.988974 0.591047 0.782144 0.330365

loop_
_geom_bond_atom_site_label_1
_geom_bond_atom_site_label_2
_ccdc_geom_bond_type
O12   H10   S    
C1    C21   S    
C24   C32   S    
C13   O5    A    
O24   H18   S    
O22   H17   S    
Cu1   N2    S    
Cu2   N1    S    
C19   C21   A    
C24   C26   A    
C31   O14   S    
C15   C16   D    
Cu2   O2    S    
C7    C9    A    
C8    N2    A    
C32   O16   S    
C19   C29   S    
C29   O10   S    
C2    C22   S    
C8    C36   S    
C4    C12   A    
C18   C20   A    
C1    O1    A    
C14   O6    A    
O14   H11   S    
C9    H3    S    
C32   O15   D    
O18   H13   S    
C6    H16   S    
C30   O12   S    
C34   O20   S    
O10   H9    S    
C17   C27   A    
C25   C33   S    
C4    C6    A    
C16   H6    S    
C36   O24   S    
C7    C35   S    
C33   O18   S    
C30   O11   D    
C36   O23   D    
C35   O21   D    
Cu1   Cu2   S    
C9    C11   A    
C2    O2    A    
C18   C28   A    
C10   H4    S    
C3    H1    S    
C35   O22   S    
C4    H2    S    
C10   C12   A    
C20   C22   A    
C33   O17   D    
C13   C15   S    
Cu1   O8    S    
C14   C16   S    
Cu2   O7    S    
C15   H5    S    
C13   O7    A    
C14   O8    A    
C23   C31   S    
Cu1   O5    S    
C7    N1    A    
C17   H7    S    
C20   C30   S    
C3    C5    A    
C18   H8    S    
C11   C12   S    
C25   C27   A    
C26   C28   A    
C21   C23   A    
O20   H14   S    
C31   O13   D    
C5    N1    A    
Cu1   O4    S    
C17   C19   A    
C6    N2    A    
Cu2   O3    S    
C22   C24   A    
C23   C25   A    
C5    H15   S    
C34   O19   D    
C3    C11   A    
C1    O3    A    
O16   H12   S    
C2    O4    A    
C8    C10   A    
C29   O9    D    
Cu1   O1    S    
C27   C28   S    
C26   C34   S    
Cu2   O6    S    
