data_mof_unit_7509.cif
_audit_creation_date              2012-12-10T17:42:14-0500
_audit_creation_method            fapswitch 2.2
_symmetry_space_group_name_H-M    P1
_symmetry_Int_Tables_number       1
_space_group_crystal_system       triclinic
_cell_length_a                    15.085179
_cell_length_b                    13.835691
_cell_length_c                    10.750912
_cell_angle_alpha                 90.213418
_cell_angle_beta                  87.194803
_cell_angle_gamma                 89.950884
_cell_volume                      2241.15892775

loop_
_atom_site_label
_atom_site_type_symbol
_atom_type_description
_atom_site_fract_x
_atom_site_fract_y
_atom_site_fract_z
_atom_type_partial_charge
C1    C     C_R   0.328835 0.499974 0.499594 0.787716
C2    C     C_3   0.586566 0.552923 0.923688 0.756425
C3    C     C_R   0.815763 0.422319 0.465286 -0.296769
C4    C     C_R   0.767588 0.500837 0.516173 -0.068251
C5    C     C_R   0.812303 0.578817 0.572630 0.119041
C6    C     C_R   0.906045 0.581666 0.562347 0.095682
C7    C     C_R   0.953387 0.501403 0.510754 0.020470
C8    C     C_R   0.907900 0.420973 0.464647 0.108726
C9    C     C_R   0.954023 0.662520 0.602786 -0.208851
C10   C     C_R   0.046281 0.662657 0.595736 -0.221713
C11   C     C_R   0.092886 0.582145 0.548872 0.112919
C12   C     C_R   0.500079 0.499704 0.260074 0.784201
C13   C     C_R   0.046698 0.501039 0.506179 0.075672
C14   C     C_R   0.093913 0.419410 0.459331 0.109107
C15   C     C_R   0.047758 0.339682 0.414831 -0.217250
C16   C     C_R   0.955310 0.340794 0.416522 -0.197155
C17   C     C_R   0.185186 0.581509 0.544288 -0.253753
C18   C     C_R   0.232146 0.500076 0.500298 -0.065664
C19   C     C_R   0.186525 0.419039 0.457999 -0.255179
C20   C     C_R   0.441398 0.794769 0.579332 0.350927
C21   C     C_R   0.440390 0.205931 0.577994 0.333942
C22   C     C_R   0.558225 0.793399 0.421519 -0.041629
C23   C     C_R   0.558544 0.206057 0.421989 -0.044306
C24   C     C_R   0.559819 0.896237 0.419345 -0.008271
C25   C     C_R   0.559923 0.103231 0.419507 -0.006187
C26   C     C_R   0.670936 0.500187 0.506058 0.834838
C27   C     C_R   0.499964 0.948359 0.498312 0.058861
C28   C     C_R   0.499864 0.051721 0.498184 0.059735
C29   C     C_R   0.440165 0.897465 0.578209 0.001081
C30   C     C_R   0.439474 0.103229 0.577253 0.000821
C31   C     C_R   0.619589 0.948379 0.340303 -0.187893
C32   C     C_R   0.619704 0.050511 0.340477 -0.191576
C33   C     C_R   0.379304 0.050515 0.654806 -0.210969
C34   C     C_R   0.380031 0.950773 0.655884 -0.208286
C35   C     C_R   0.500411 0.500078 0.740167 0.804053
C36   C     C_3   0.417573 0.552484 0.078013 -0.370883
C37   C     C_3   0.500834 0.394183 0.070884 -0.402200
C38   C     C_3   0.417773 0.552974 0.934465 -0.441577
C39   C     C_3   0.498025 0.394702 0.928756 -0.476178
C40   C     C_3   0.585341 0.550879 0.068925 -0.460565
C41   C     C_3   0.500814 0.499196 0.122276 0.083002
C42   C     C_3   0.501559 0.500235 0.878490 0.119538
Cu1   Cu    Cu3+1 0.499990 0.597420 0.500010 0.946735
Cu2   Cu    Cu3+1 0.499990 0.402580 0.500010 0.930432
H1    H     H_    0.416204 0.628311 0.113029 0.186795
H2    H     H_    0.561470 0.355229 0.098228 0.170893
H3    H     H_    0.081254 0.725772 0.627687 0.141430
H4    H     H_    0.220358 0.643882 0.577198 0.150112
H5    H     H_    0.223055 0.356293 0.422874 0.155747
H6    H     H_    0.083145 0.276751 0.378186 0.141822
H7    H     H_    0.920810 0.278705 0.380756 0.139766
H8    H     H_    0.603882 0.752890 0.360445 0.135121
H9    H     H_    0.604500 0.246136 0.361362 0.128602
H10   H     H_    0.666465 0.910202 0.278354 0.134292
H11   H     H_    0.666684 0.088239 0.278682 0.131130
H12   H     H_    0.330199 0.084664 0.716907 0.151974
H13   H     H_    0.331860 0.917149 0.719468 0.150443
H14   H     H_    0.356347 0.516257 0.116347 0.161898
H15   H     H_    0.442235 0.353910 0.110661 0.191703
H16   H     H_    0.356690 0.516903 0.903371 0.151812
H17   H     H_    0.435460 0.359454 0.901980 0.188579
H18   H     H_    0.415729 0.628887 0.901472 0.207529
H19   H     H_    0.553446 0.350156 0.887504 0.190619
H20   H     H_    0.587241 0.625914 0.106567 0.172383
H21   H     H_    0.645400 0.513963 0.101870 0.132835
H22   H     H_    0.781292 0.362085 0.424531 0.155260
H23   H     H_    0.921159 0.727078 0.638509 0.154446
N1    N     N_R   0.499930 0.743810 0.499950 -0.181256
N2    N     N_R   0.499930 0.256190 0.499950 -0.181535
O1    O     O_R   0.370250 0.582280 0.500040 -0.591256
O2    O     O_R   0.370250 0.417720 0.500040 -0.591143
O3    O     O_R   0.499970 0.582270 0.317700 -0.587481
O4    O     O_R   0.499970 0.417730 0.317700 -0.590405
O5    O     O_R   0.629730 0.582260 0.499980 -0.582393
O6    O     O_R   0.629730 0.417740 0.499980 -0.583203
O7    O     O_R   0.500000 0.582270 0.682320 -0.555504
O8    O     O_R   0.500000 0.417730 0.682320 -0.600986
C43   C     C_3   0.377009 0.745814 0.671910 -0.797649
H24   H     H_    0.376153 0.667746 0.674999 0.265989
H25   H     H_    0.391514 0.769381 0.767644 0.200668
H26   H     H_    0.308177 0.766888 0.652050 0.174473
C44   C     C_3   0.373993 0.255759 0.667865 -0.805465
H27   H     H_    0.375578 0.333680 0.674896 0.272031
H28   H     H_    0.305525 0.237558 0.642223 0.196378
H29   H     H_    0.384457 0.230758 0.764063 0.182489
O9    O     O_3   0.585254 0.649972 0.884596 -0.735948
H30   H     H_    0.642928 0.679273 0.904779 0.328060
O10   O     O_3   0.664283 0.508870 0.871005 -0.774363
H31   H     H_    0.672702 0.445577 0.911699 0.303379
C45   C     C_3   0.762206 0.655054 0.650060 -0.778453
H32   H     H_    0.796052 0.669131 0.737711 0.218701
H33   H     H_    0.757812 0.723060 0.596213 0.216504
H34   H     H_    0.694998 0.631580 0.682017 0.294362

loop_
_geom_bond_atom_site_label_1
_geom_bond_atom_site_label_2
_ccdc_geom_bond_type
Cu1   O3    S    
C27   C29   A    
C23   N2    A    
C17   H4    S    
C6    C9    A    
C7    C8    A    
C25   C28   A    
C1    C18   S    
C1    O2    A    
Cu2   O8    S    
C38   C42   S    
C36   H14   S    
C5    C6    A    
C43   H25   S    
C15   C16   A    
Cu2   O2    S    
C18   C19   A    
C15   H6    S    
C35   C42   S    
Cu1   N1    S    
C34   H13   S    
C16   H7    S    
C2    O10   S    
C9    C10   A    
C32   H11   S    
C5    C45   S    
C33   H12   S    
C12   O3    A    
C8    C16   A    
C12   O4    A    
C36   C41   S    
C33   C34   A    
C39   C42   S    
C20   C29   A    
C39   H17   S    
C35   O7    A    
Cu2   N2    S    
C3    C8    A    
O9    H30   S    
C29   C34   A    
C35   O8    A    
C21   N2    A    
Cu1   O5    S    
Cu2   O6    S    
Cu1   Cu2   S    
C9    H23   S    
C12   C41   S    
C19   H5    S    
C45   H33   S    
C31   C32   A    
C24   C27   A    
C17   C18   A    
C36   H1    S    
O10   H31   S    
C22   N1    A    
C37   H15   S    
C38   H16   S    
C40   C41   S    
Cu1   O1    S    
C44   H28   S    
C40   H21   S    
C22   C24   A    
C3    H22   S    
C3    C4    A    
C10   H3    S    
C45   H34   S    
C22   H8    S    
Cu1   O7    S    
C11   C17   A    
C30   C33   A    
C43   H24   S    
C14   C19   A    
C20   N1    A    
C4    C5    A    
C4    C26   S    
C6    C7    A    
C44   H29   S    
C39   H19   S    
C21   C30   A    
C1    O1    A    
C40   H20   S    
C20   C43   S    
C36   C38   S    
C24   C31   A    
C37   C39   S    
C11   C13   A    
C43   H26   S    
C45   H32   S    
C2    C42   S    
C23   H9    S    
C28   C30   A    
C26   O5    A    
C2    O9    S    
C23   C25   A    
C31   H10   S    
C37   C41   S    
Cu2   O4    S    
C10   C11   A    
C2    C40   S    
C7    C13   A    
C21   C44   S    
C26   O6    A    
C44   H27   S    
C27   C28   A    
C14   C15   A    
C37   H2    S    
C13   C14   A    
C38   H18   S    
C25   C32   A    
