data_mof_unit_60588.cif
_audit_creation_date              2012-12-10T19:11:07-0500
_audit_creation_method            fapswitch 2.2
_symmetry_space_group_name_H-M    P1
_symmetry_Int_Tables_number       1
_space_group_crystal_system       triclinic
_cell_length_a                    24.43569
_cell_length_b                    24.435699
_cell_length_c                    43.005799
_cell_angle_alpha                 90.000025
_cell_angle_beta                  90.000023
_cell_angle_gamma                 89.996483
_cell_volume                      25678.8986779

loop_
_atom_site_label
_atom_site_type_symbol
_atom_type_description
_atom_site_fract_x
_atom_site_fract_y
_atom_site_fract_z
_atom_type_partial_charge
C1    C     C_R   0.771356 0.271310 0.249987 0.106037
C2    C     C_R   0.771348 0.728652 0.250000 0.100898
C3    C     C_R   0.394833 0.105167 0.250000 0.783343
C4    C     C_R   0.894831 0.394831 0.750000 0.801010
C5    C     C_R   0.105169 0.605166 0.250001 0.784314
C6    C     C_R   0.394836 0.105164 0.750000 0.803827
C7    C     C_R   0.605173 0.894827 0.250000 0.783281
C8    C     C_R   0.999991 0.500067 0.131293 -0.208859
C9    C     C_R   0.999996 0.500038 0.868714 -0.209384
C10   C     C_R   0.499990 0.000002 0.131283 -0.209672
C11   C     C_R   0.499995 0.000000 0.868703 -0.207842
C12   C     C_R   0.500000 0.000005 0.631297 -0.207843
C13   C     C_R   0.271332 0.771332 0.750000 0.105830
C14   C     C_R   0.499998 0.000010 0.368717 -0.209670
C15   C     C_R   0.999962 0.500004 0.631287 -0.209377
C16   C     C_R   0.999933 0.500009 0.368708 -0.208866
C17   C     C_R   0.807074 0.276615 0.275399 -0.165009
C18   C     C_R   0.176669 0.739652 0.737561 -0.162750
C19   C     C_R   0.739644 0.823282 0.262481 -0.164883
C20   C     C_R   0.276831 0.193117 0.724518 -0.165163
C21   C     C_R   0.192967 0.723340 0.275423 -0.165005
C22   C     C_R   0.823330 0.260348 0.737561 -0.162749
C23   C     C_R   0.276647 0.192955 0.275414 -0.165140
C24   C     C_R   0.728694 0.228652 0.249986 0.105283
C25   C     C_R   0.723170 0.806883 0.724518 -0.165159
C26   C     C_R   0.176718 0.260356 0.737518 -0.164876
C27   C     C_R   0.806883 0.723170 0.275482 -0.165150
C28   C     C_R   0.276633 0.807056 0.724591 -0.164882
C29   C     C_R   0.739664 0.176653 0.262433 -0.162916
C30   C     C_R   0.823282 0.739644 0.737518 -0.164875
C31   C     C_R   0.176678 0.260352 0.262446 -0.162841
C32   C     C_R   0.723366 0.192945 0.724590 -0.164881
C33   C     C_R   0.260368 0.823304 0.262458 -0.162667
C34   C     C_R   0.307055 0.776634 0.775410 -0.164880
C35   C     C_R   0.771310 0.728690 0.750000 0.109788
C36   C     C_R   0.676696 0.239632 0.237542 -0.162667
C37   C     C_R   0.239644 0.323281 0.762482 -0.164876
C38   C     C_R   0.776830 0.693117 0.224518 -0.165151
C39   C     C_R   0.692944 0.223366 0.775409 -0.164882
C40   C     C_R   0.323347 0.760336 0.237567 -0.162916
C41   C     C_R   0.760356 0.676718 0.762482 -0.164874
C42   C     C_R   0.239648 0.323322 0.237553 -0.162842
C43   C     C_R   0.676718 0.760356 0.237519 -0.164882
C44   C     C_R   0.306883 0.223169 0.775482 -0.165163
C45   C     C_R   0.776660 0.307034 0.224578 -0.165006
C46   C     C_R   0.228674 0.271326 0.250000 0.105117
C47   C     C_R   0.239652 0.676670 0.762439 -0.162750
C48   C     C_R   0.307045 0.223353 0.224586 -0.165139
C49   C     C_R   0.693117 0.776830 0.775482 -0.165159
C50   C     C_R   0.223384 0.692927 0.224601 -0.165010
C51   C     C_R   0.760348 0.323331 0.762439 -0.162751
C52   C     C_R   0.847597 0.316617 0.275291 -0.172581
C53   C     C_R   0.136547 0.699250 0.737349 -0.154443
C54   C     C_R   0.699245 0.863414 0.262684 -0.170737
C55   C     C_R   0.316838 0.152594 0.724623 -0.156881
C56   C     C_R   0.152429 0.683352 0.275307 -0.170979
C57   C     C_R   0.728667 0.228668 0.750000 0.105829
C58   C     C_R   0.863453 0.300750 0.737349 -0.154424
C59   C     C_R   0.316642 0.152423 0.275302 -0.172591
C60   C     C_R   0.683162 0.847406 0.724623 -0.156878
C61   C     C_R   0.136586 0.300756 0.737315 -0.170725
C62   C     C_R   0.847406 0.683162 0.275377 -0.156853
C63   C     C_R   0.316629 0.847586 0.724702 -0.170973
C64   C     C_R   0.699256 0.136536 0.262649 -0.154483
C65   C     C_R   0.863414 0.699244 0.737315 -0.170727
C66   C     C_R   0.136554 0.300756 0.262659 -0.153222
C67   C     C_R   0.683371 0.152414 0.724702 -0.170975
C68   C     C_R   0.271348 0.771305 0.250013 0.105282
C69   C     C_R   0.300764 0.863432 0.262667 -0.153149
C70   C     C_R   0.347586 0.816629 0.775298 -0.170976
C71   C     C_R   0.636567 0.199237 0.237333 -0.153150
C72   C     C_R   0.199244 0.363414 0.762684 -0.170724
C73   C     C_R   0.816838 0.652594 0.224623 -0.156850
C74   C     C_R   0.652414 0.183371 0.775298 -0.170974
C75   C     C_R   0.363463 0.800744 0.237350 -0.154483
C76   C     C_R   0.800756 0.636586 0.762684 -0.170725
C77   C     C_R   0.199244 0.363445 0.237341 -0.153222
C78   C     C_R   0.636586 0.800755 0.237316 -0.170737
C79   C     C_R   0.852489 0.352471 0.249995 -0.006879
C80   C     C_R   0.347406 0.183161 0.775377 -0.156880
C81   C     C_R   0.816648 0.347571 0.224693 -0.170979
C82   C     C_R   0.199250 0.636547 0.762651 -0.154423
C83   C     C_R   0.347577 0.183358 0.224698 -0.172591
C84   C     C_R   0.652594 0.816838 0.775377 -0.156877
C85   C     C_R   0.183383 0.652403 0.224709 -0.172581
C86   C     C_R   0.800749 0.363453 0.762651 -0.154442
C87   C     C_R   0.147524 0.647524 0.750000 -0.003977
C88   C     C_R   0.647536 0.852464 0.250000 -0.003503
C89   C     C_R   0.228672 0.728673 0.750000 0.105484
C90   C     C_R   0.352490 0.147510 0.750000 -0.021570
C91   C     C_R   0.147529 0.647510 0.250005 -0.006879
C92   C     C_R   0.852476 0.352476 0.750000 -0.003978
C93   C     C_R   0.352482 0.147518 0.250000 -0.006712
C94   C     C_R   0.647510 0.852490 0.750000 -0.021571
C95   C     C_R   0.147536 0.352464 0.750000 -0.003512
C96   C     C_R   0.852490 0.647510 0.250000 -0.021598
C97   C     C_R   0.352480 0.852480 0.750000 -0.006996
C98   C     C_R   0.647533 0.147515 0.249994 -0.004749
C99   C     C_R   0.852464 0.647536 0.750000 -0.003513
C100  C     C_R   0.728690 0.771310 0.250000 0.109797
C101  C     C_R   0.147524 0.352476 0.250000 -0.005386
C102  C     C_R   0.647520 0.147520 0.750000 -0.006996
C103  C     C_R   0.352485 0.852467 0.250006 -0.004750
C104  C     C_R   0.499996 0.000024 0.468509 0.336116
C105  C     C_R   0.499999 0.000020 0.531513 0.335950
C106  C     C_R   0.999809 0.500033 0.468494 0.335975
C107  C     C_R   0.999828 0.500035 0.531497 0.336210
C108  C     C_R   0.999965 0.500171 0.968503 0.336210
C109  C     C_R   0.999967 0.500191 0.031506 0.335978
C110  C     C_R   0.499980 0.000001 0.968487 0.335950
C111  C     C_R   0.271348 0.228652 0.750000 0.100913
C112  C     C_R   0.499975 0.000004 0.031491 0.336116
C113  C     C_R   0.957302 0.525992 0.114523 0.351129
C114  C     C_R   0.042729 0.525862 0.885495 0.350817
C115  C     C_R   0.474241 0.957230 0.114494 0.350660
C116  C     C_R   0.473995 0.042625 0.885484 0.350764
C117  C     C_R   0.042674 0.474201 0.114491 0.349479
C118  C     C_R   0.957249 0.474262 0.885509 0.350840
C119  C     C_R   0.525729 0.042777 0.114492 0.350103
C120  C     C_R   0.525989 0.957376 0.885487 0.350751
C121  C     C_R   0.457374 0.026004 0.614516 0.350764
C122  C     C_R   0.228690 0.728644 0.250013 0.106037
C123  C     C_R   0.542769 0.025759 0.385506 0.350659
C124  C     C_R   0.974130 0.457276 0.614505 0.350811
C125  C     C_R   0.974014 0.542702 0.385477 0.351134
C126  C     C_R   0.542625 0.974012 0.614513 0.350751
C127  C     C_R   0.457223 0.974270 0.385508 0.350102
C128  C     C_R   0.025745 0.542746 0.614491 0.350835
C129  C     C_R   0.025791 0.457322 0.385509 0.349484
C130  C     C_R   0.957330 0.525157 0.082071 -0.187601
C131  C     C_R   0.042676 0.525030 0.917947 -0.187892
C132  C     C_R   0.475118 0.957271 0.082043 -0.188059
C133  C     C_R   0.771327 0.271328 0.750000 0.105483
C134  C     C_R   0.474870 0.042592 0.917935 -0.187676
C135  C     C_R   0.042628 0.475126 0.082042 -0.188375
C136  C     C_R   0.957274 0.475192 0.917960 -0.187895
C137  C     C_R   0.524841 0.042739 0.082041 -0.188302
C138  C     C_R   0.525104 0.957409 0.917938 -0.187619
C139  C     C_R   0.457408 0.025129 0.582065 -0.187677
C140  C     C_R   0.542729 0.024883 0.417957 -0.188058
C141  C     C_R   0.974962 0.457328 0.582054 -0.187890
C142  C     C_R   0.974850 0.542674 0.417930 -0.187603
C143  C     C_R   0.542592 0.974897 0.582062 -0.187619
C144  C     C_R   0.271334 0.228666 0.250000 0.106252
C145  C     C_R   0.457262 0.975159 0.417959 -0.188302
C146  C     C_R   0.024816 0.542722 0.582041 -0.187893
C147  C     C_R   0.024867 0.457367 0.417959 -0.188376
C148  C     C_R   0.999974 0.500161 0.065678 -0.056917
C149  C     C_R   0.999968 0.500136 0.934331 -0.056681
C150  C     C_R   0.499977 0.000005 0.065664 -0.056650
C151  C     C_R   0.499985 0.000000 0.934315 -0.057195
C152  C     C_R   0.499999 0.000015 0.565685 -0.057194
C153  C     C_R   0.499995 0.000023 0.434336 -0.056651
C154  C     C_R   0.999864 0.500032 0.565669 -0.056681
C155  C     C_R   0.728652 0.771348 0.750000 0.100910
C156  C     C_R   0.999838 0.500026 0.434322 -0.056915
C157  C     C_R   0.999987 0.500001 0.334277 0.890031
C158  C     C_R   0.999996 0.500000 0.665721 0.891313
C159  C     C_R   0.500000 0.000002 0.334280 0.890489
C160  C     C_R   0.500000 0.000001 0.665724 0.890200
C161  C     C_R   0.499999 0.000000 0.834275 0.890202
C162  C     C_R   0.499998 0.000000 0.165719 0.890487
C163  C     C_R   1.000000 0.500004 0.834279 0.891298
C164  C     C_R   0.999999 0.500013 0.165723 0.890045
C165  C     C_R   0.894836 0.605164 0.250000 0.803837
C166  C     C_R   0.228690 0.271310 0.750000 0.109788
C167  C     C_R   0.105173 0.394827 0.750000 0.783283
C168  C     C_R   0.394833 0.894829 0.250001 0.801805
C169  C     C_R   0.605168 0.105168 0.750000 0.785243
C170  C     C_R   0.105169 0.394831 0.250000 0.802664
C171  C     C_R   0.894827 0.605173 0.750000 0.783287
C172  C     C_R   0.605171 0.105167 0.249999 0.801806
C173  C     C_R   0.394832 0.894832 0.750000 0.785242
C174  C     C_R   0.105169 0.605169 0.750000 0.801011
C175  C     C_R   0.894834 0.394831 0.249999 0.784313
C176  C     C_R   0.605164 0.894836 0.750000 0.803825
Cl1   Cl    Cl    0.904021 0.562668 0.132759 -0.586449
Cl2   Cl    Cl    0.596194 0.062261 0.367304 -0.572344
Cl3   Cl    Cl    0.937579 0.403898 0.632719 -0.572147
Cl4   Cl    Cl    0.937347 0.595989 0.367242 -0.586443
Cl5   Cl    Cl    0.595825 0.937195 0.632733 -0.586512
Cl6   Cl    Cl    0.403794 0.937768 0.367310 -0.573082
Cl7   Cl    Cl    0.062351 0.596107 0.632686 -0.572137
Cl8   Cl    Cl    0.062484 0.404009 0.367320 -0.573377
Cl9   Cl    Cl    0.096114 0.562405 0.867282 -0.572141
Cl10  Cl    Cl    0.437740 0.903805 0.132696 -0.572344
Cl11  Cl    Cl    0.437182 0.095824 0.867260 -0.586566
Cl12  Cl    Cl    0.095980 0.437501 0.132680 -0.573382
Cl13  Cl    Cl    0.903881 0.437665 0.867315 -0.572130
Cl14  Cl    Cl    0.562231 0.096207 0.132690 -0.573080
Cl15  Cl    Cl    0.562807 0.904177 0.867267 -0.586514
Cl16  Cl    Cl    0.404174 0.062816 0.632739 -0.586564
H1    H     H_    0.924503 0.545336 0.069598 0.196616
H2    H     H_    0.575621 0.044929 0.430441 0.196538
H3    H     H_    0.954853 0.424469 0.569574 0.196549
H4    H     H_    0.954677 0.575504 0.430403 0.196614
H5    H     H_    0.575368 0.954660 0.569577 0.196662
H6    H     H_    0.424368 0.955118 0.430445 0.196575
H7    H     H_    0.044892 0.575588 0.569551 0.196549
H8    H     H_    0.045005 0.424543 0.430454 0.196673
H9    H     H_    0.803293 0.250316 0.295546 0.144215
H10   H     H_    0.166733 0.779667 0.728340 0.139716
H11   H     H_    0.779640 0.833180 0.271742 0.139683
H12   H     H_    0.075539 0.545133 0.930426 0.196549
H13   H     H_    0.250664 0.197047 0.704323 0.146059
H14   H     H_    0.196749 0.749632 0.295572 0.144254
H15   H     H_    0.833266 0.220334 0.728340 0.139717
H16   H     H_    0.250357 0.196745 0.295565 0.144240
H17   H     H_    0.749336 0.802953 0.704323 0.146060
H18   H     H_    0.166820 0.220361 0.728257 0.139683
H19   H     H_    0.802954 0.749337 0.295676 0.146069
H20   H     H_    0.250334 0.803276 0.704443 0.144241
H21   H     H_    0.779676 0.166715 0.271658 0.139428
H22   H     H_    0.833180 0.779639 0.728257 0.139684
H23   H     H_    0.455072 0.924378 0.069559 0.196537
H24   H     H_    0.166748 0.220342 0.271674 0.139857
H25   H     H_    0.749665 0.196724 0.704443 0.144244
H26   H     H_    0.220356 0.833234 0.271685 0.140150
H27   H     H_    0.303276 0.750335 0.795557 0.144244
H28   H     H_    0.666766 0.279644 0.228315 0.140150
H29   H     H_    0.279639 0.333180 0.771743 0.139684
H30   H     H_    0.750663 0.697046 0.204324 0.146069
H31   H     H_    0.696724 0.249666 0.795557 0.144241
H32   H     H_    0.333284 0.720325 0.228341 0.139427
H33   H     H_    0.720361 0.666820 0.771743 0.139684
H34   H     H_    0.454628 0.075368 0.930418 0.196623
H35   H     H_    0.279658 0.333252 0.228326 0.139857
H36   H     H_    0.666820 0.720360 0.228258 0.139682
H37   H     H_    0.302953 0.249335 0.795677 0.146059
H38   H     H_    0.750367 0.303251 0.204428 0.144254
H39   H     H_    0.279666 0.666733 0.771660 0.139718
H40   H     H_    0.303255 0.249643 0.204435 0.144240
H41   H     H_    0.697047 0.750664 0.795677 0.146061
H42   H     H_    0.249683 0.696708 0.204453 0.144215
H43   H     H_    0.720333 0.333267 0.771660 0.139717
H44   H     H_    0.874575 0.319997 0.295185 0.169592
H45   H     H_    0.075450 0.454982 0.069547 0.196674
H46   H     H_    0.096719 0.708731 0.727690 0.167238
H47   H     H_    0.708711 0.903226 0.272368 0.164893
H48   H     H_    0.320387 0.125770 0.704669 0.188974
H49   H     H_    0.125446 0.679974 0.295198 0.169803
H50   H     H_    0.903281 0.291269 0.727689 0.167241
H51   H     H_    0.320029 0.125448 0.295197 0.169603
H52   H     H_    0.679613 0.874230 0.704669 0.188972
H53   H     H_    0.096775 0.291290 0.727631 0.164907
H54   H     H_    0.874231 0.679614 0.295330 0.189007
H55   H     H_    0.320006 0.874568 0.704810 0.169791
H56   H     H_    0.924403 0.455122 0.930449 0.196548
H57   H     H_    0.708729 0.096712 0.272315 0.167248
H58   H     H_    0.903225 0.708710 0.727631 0.164907
H59   H     H_    0.096732 0.291282 0.272326 0.168970
H60   H     H_    0.679994 0.125432 0.704810 0.169792
H61   H     H_    0.291282 0.903255 0.272331 0.169036
H62   H     H_    0.374568 0.820006 0.795190 0.169792
H63   H     H_    0.596744 0.208718 0.227669 0.169035
H64   H     H_    0.208710 0.403225 0.772369 0.164908
H65   H     H_    0.820386 0.625769 0.204670 0.189007
H66   H     H_    0.625432 0.179994 0.795190 0.169791
H67   H     H_    0.544881 0.075632 0.069555 0.196575
H68   H     H_    0.403288 0.791271 0.227684 0.167248
H69   H     H_    0.791290 0.596775 0.772368 0.164908
H70   H     H_    0.208718 0.403268 0.227674 0.168968
H71   H     H_    0.596774 0.791289 0.227632 0.164894
H72   H     H_    0.374230 0.179613 0.795331 0.188974
H73   H     H_    0.820025 0.374554 0.204802 0.169801
H74   H     H_    0.208731 0.596719 0.772310 0.167242
H75   H     H_    0.374552 0.179971 0.204803 0.169604
H76   H     H_    0.625770 0.820387 0.795331 0.188972
H77   H     H_    0.180002 0.625426 0.204815 0.169590
H78   H     H_    0.545342 0.924633 0.930423 0.196663
H79   H     H_    0.791269 0.403281 0.772310 0.167240
H80   H     H_    0.424631 0.045370 0.569582 0.196623
N1    N     N_R   0.047805 0.499982 0.015473 -0.157046
N2    N     N_R   0.452157 0.000021 0.484541 -0.157227
N3    N     N_R   0.999921 0.547874 0.515465 -0.156970
N4    N     N_R   0.000002 0.452195 0.484527 -0.157044
N5    N     N_R   0.452159 0.000311 0.515481 -0.157188
N6    N     N_R   0.547836 0.000026 0.484540 -0.156908
N7    N     N_R   0.999719 0.452196 0.515466 -0.156923
N8    N     N_R   0.999620 0.547873 0.484525 -0.157120
N9    N     N_R   0.952126 0.500094 0.984536 -0.156967
N10   N     N_R   0.499978 0.047843 0.015459 -0.157226
N11   N     N_R   0.500270 0.952163 0.984520 -0.157116
N12   N     N_R   0.952127 0.500396 0.015475 -0.157122
N13   N     N_R   0.047804 0.500265 0.984534 -0.156920
N14   N     N_R   0.499975 0.952164 0.015460 -0.156908
N15   N     N_R   0.499688 0.047841 0.984519 -0.157188
N16   N     N_R   0.547837 0.999731 0.515480 -0.157116
O1    O     O_3   1.000000 0.500000 0.250000 -0.510178
O2    O     O_R   0.000000 0.454510 0.680680 -0.593397
O3    O     O_R   0.454510 0.000000 0.319320 -0.595361
O4    O     O_R   0.545490 0.000000 0.680680 -0.596250
O5    O     O_R   0.500000 0.954510 0.819320 -0.596250
O6    O     O_R   0.500000 0.045490 0.180680 -0.595360
O7    O     O_R   0.045490 0.500000 0.819320 -0.593393
O8    O     O_R   0.954510 0.500000 0.180680 -0.596281
O9    O     O_R   0.500000 0.045490 0.819320 -0.596246
O10   O     O_R   0.500000 0.954510 0.180680 -0.592955
O11   O     O_R   0.954510 0.500000 0.819320 -0.593413
O12   O     O_3   0.000000 0.500000 0.750000 -0.510580
O13   O     O_R   0.045490 0.500000 0.180680 -0.594950
O14   O     O_R   0.936000 0.609460 0.268180 -0.627981
O15   O     O_R   0.064000 0.390540 0.731820 -0.642243
O16   O     O_R   0.390540 0.936000 0.268180 -0.626866
O17   O     O_R   0.609460 0.064000 0.731820 -0.640914
O18   O     O_R   0.064000 0.390540 0.268180 -0.627137
O19   O     O_R   0.936000 0.609460 0.731820 -0.642244
O20   O     O_R   0.609460 0.064000 0.268180 -0.628742
O21   O     O_R   0.390540 0.936000 0.731820 -0.640913
O22   O     O_R   0.064000 0.609460 0.731820 -0.628549
O23   O     O_3   0.500000 0.000000 0.250000 -0.510459
O24   O     O_R   0.936000 0.390540 0.268180 -0.642895
O25   O     O_R   0.609460 0.936000 0.731820 -0.628044
O26   O     O_R   0.390540 0.064000 0.268180 -0.642537
O27   O     O_R   0.936000 0.390540 0.731820 -0.628524
O28   O     O_R   0.064000 0.609460 0.268180 -0.640552
O29   O     O_R   0.390540 0.064000 0.731820 -0.628042
O30   O     O_R   0.609460 0.936000 0.268180 -0.642222
O31   O     O_R   0.436000 0.109460 0.768180 -0.628041
O32   O     O_R   0.564000 0.890540 0.231820 -0.642221
O33   O     O_R   0.890540 0.436000 0.768180 -0.628549
O34   O     O_3   0.500000 0.000000 0.750000 -0.510021
O35   O     O_R   0.109460 0.564000 0.231820 -0.642899
O36   O     O_R   0.564000 0.890540 0.768180 -0.628044
O37   O     O_R   0.436000 0.109460 0.231820 -0.642536
O38   O     O_R   0.109460 0.564000 0.768180 -0.628524
O39   O     O_R   0.890540 0.436000 0.231820 -0.640555
O40   O     O_R   0.564000 0.109460 0.231820 -0.626866
O41   O     O_R   0.436000 0.890540 0.768180 -0.640914
O42   O     O_R   0.109460 0.436000 0.231820 -0.627137
O43   O     O_R   0.890540 0.564000 0.768180 -0.642242
O44   O     O_R   0.436000 0.890540 0.231820 -0.628742
O45   O     O_R   1.000000 0.454510 0.319320 -0.594946
O46   O     O_R   0.564000 0.109460 0.768180 -0.640914
O47   O     O_R   0.890540 0.564000 0.231820 -0.627982
O48   O     O_R   0.109460 0.436000 0.768180 -0.642241
O49   O     O_R   0.000000 0.545490 0.680680 -0.593418
O50   O     O_R   0.545490 0.000000 0.319320 -0.592955
O51   O     O_R   0.454510 0.000000 0.680680 -0.596246
O52   O     O_R   1.000000 0.545490 0.319320 -0.596277
Zn1   Zn    Zn3+2 0.935020 0.500000 0.224040 1.023245
Zn2   Zn    Zn3+2 0.564980 1.000000 0.275960 1.023886
Zn3   Zn    Zn3+2 0.000000 0.435020 0.724040 1.023819
Zn4   Zn    Zn3+2 1.000000 0.564980 0.275960 1.023247
Zn5   Zn    Zn3+2 0.564980 0.000000 0.724040 1.023264
Zn6   Zn    Zn3+2 0.435020 1.000000 0.275960 1.023373
Zn7   Zn    Zn3+2 0.000000 0.564980 0.724040 1.023803
Zn8   Zn    Zn3+2 1.000000 0.435020 0.275960 1.023485
Zn9   Zn    Zn3+2 0.064980 0.500000 0.775960 1.023821
Zn10  Zn    Zn3+2 0.500000 0.935020 0.224040 1.023886
Zn11  Zn    Zn3+2 0.500000 0.064980 0.775960 1.023266
Zn12  Zn    Zn3+2 0.064980 0.500000 0.224040 1.023484
Zn13  Zn    Zn3+2 0.935020 0.500000 0.775960 1.023804
Zn14  Zn    Zn3+2 0.500000 0.064980 0.224040 1.023373
Zn15  Zn    Zn3+2 0.500000 0.935020 0.775960 1.023264
Zn16  Zn    Zn3+2 0.435020 0.000000 0.724040 1.023266

loop_
_geom_bond_atom_site_label_1
_geom_bond_atom_site_label_2
_ccdc_geom_bond_type
C113  Cl1   S    
N1    N13   A    
C77   C101  A    
C121  Cl16  S    
O40   Zn14  S    
N9    N12   A    
C9    C114  A    
C172  O40   A    
C20   C55   A    
C73   H65   S    
C141  C154  A    
C174  O38   A    
C12   C126  A    
C82   C87   A    
C83   C93   A    
C139  C152  A    
O43   Zn13  S    
C132  C150  A    
C48   C144  A    
C51   H43   S    
C39   C74   A    
C5    O28   A    
O19   Zn7   S    
O39   Zn1   S    
C50   C122  A    
C25   C60   A    
O12   Zn3   S    
C107  N3    A    
C162  O10   A    
C36   C71   A    
C33   C69   A    
C69   C103  A    
C29   C64   A    
C10   C162  S    
C75   C103  A    
C57   C133  S    
C147  H8    S    
C32   C57   A    
C53   C87   A    
C123  Cl2   S    
C17   C52   A    
O14   Zn4   S    
O21   Zn16  S    
C143  H5    S    
C105  N16   A    
C97   C173  S    
C3    O26   A    
O11   Zn13  S    
C65   C99   A    
C113  C130  A    
C115  Cl10  S    
C34   H27   S    
C135  H45   S    
O34   Zn15  S    
C20   C111  A    
C163  O11   A    
C29   H21   S    
C7    C88   S    
C146  C154  A    
O46   Zn11  S    
C172  O20   A    
C19   H11   S    
C173  O21   A    
C101  C170  S    
C112  N10   A    
C17   H9    S    
C131  H12   S    
O26   Zn6   S    
O12   Zn7   S    
C127  C145  A    
C169  O17   A    
C3    O37   A    
C171  O43   A    
C131  C149  A    
C120  C138  A    
C158  O2    A    
C117  C135  A    
C104  N2    A    
O5    Zn15  S    
C118  C136  A    
C52   H44   S    
C157  O52   A    
C138  H78   S    
O41   Zn15  S    
C87   C174  S    
O10   Zn10  S    
C18   C89   A    
C49   C155  A    
C45   C81   A    
C168  O44   A    
O17   Zn5   S    
C22   C58   A    
C31   H24   S    
C138  C151  A    
C63   H55   S    
N3    N8    A    
C37   H29   S    
C41   C76   A    
C54   C88   A    
C175  O39   A    
C134  C151  A    
C129  C147  A    
O33   Zn13  S    
O3    Zn6   S    
C164  O13   A    
C167  O15   A    
C168  O16   A    
C160  O51   A    
C142  C156  A    
O45   Zn8   S    
C126  C143  A    
C130  H1    S    
C167  O48   A    
C70   H62   S    
C23   C59   A    
C136  H56   S    
C24   C36   A    
C114  Cl9   S    
C49   C84   A    
C35   C155  S    
C86   H79   S    
C55   C90   A    
C141  H3    S    
C118  Cl13  S    
O34   Zn16  S    
C157  O45   A    
C50   H42   S    
C58   H50   S    
C10   C119  A    
C12   C121  A    
C31   C46   A    
C104  C153  S    
C52   C79   A    
C16   C125  A    
C50   C85   A    
C98   C172  S    
N10   N15   A    
C65   H58   S    
N11   N14   A    
C81   H73   S    
C9    C118  A    
C66   C101  A    
C128  Cl7   S    
C20   H13   S    
C11   C120  A    
C160  O4    A    
C8    C117  A    
O34   Zn5   S    
C159  O3    A    
C115  C132  A    
C137  H67   S    
C116  Cl11  S    
C15   C124  A    
C22   C133  A    
C15   C158  S    
C3    C93   S    
C8    C164  S    
C120  Cl15  S    
C46   C144  S    
C6    C90   S    
C21   H14   S    
C44   H37   S    
C28   C63   A    
C27   C62   A    
O12   Zn13  S    
C2    C38   A    
O24   Zn8   S    
C26   H18   S    
C71   H63   S    
C5    C91   S    
C32   C67   A    
C19   C54   A    
O18   Zn8   S    
C106  C156  S    
O51   Zn16  S    
C4    O33   A    
C112  C150  S    
C124  C141  A    
C45   H38   S    
O47   Zn1   S    
C43   H36   S    
C169  O46   A    
C117  Cl12  S    
C95   C167  S    
C163  O7    A    
C139  H80   S    
C1    C17   A    
C48   C83   A    
C14   C159  S    
C174  O22   A    
O23   Zn2   S    
O36   Zn15  S    
O32   Zn10  S    
C145  H6    S    
C63   C97   A    
C67   H60   S    
C128  C146  A    
O35   Zn12  S    
C170  O18   A    
O23   Zn14  S    
C137  C150  A    
C30   C65   A    
O29   Zn16  S    
C1    C24   S    
C127  Cl6   S    
C96   C165  S    
C126  Cl5   S    
O48   Zn9   S    
O13   Zn12  S    
C58   C92   A    
C4    O27   A    
C108  N9    A    
C33   C68   A    
O34   Zn11  S    
C60   C94   A    
O4    Zn5   S    
C62   C96   A    
N2    N5    A    
C114  C131  A    
C80   H72   S    
C119  Cl14  S    
O6    Zn14  S    
C158  O49   A    
C136  C149  A    
C43   C78   A    
O30   Zn2   S    
N6    N16   A    
C26   C61   A    
C54   H47   S    
O23   Zn6   S    
C62   H54   S    
C116  C134  A    
C11   C161  S    
C84   H76   S    
C42   C46   A    
C85   H77   S    
C21   C122  A    
C9    C163  S    
C24   C29   A    
C124  Cl3   S    
C18   C53   A    
O44   Zn10  S    
C165  O14   A    
C56   C91   A    
C110  N15   A    
C175  O24   A    
C13   C28   A    
C2    C27   A    
C55   H48   S    
C34   C70   A    
C70   C97   A    
C140  C153  A    
C74   C102  A    
O37   Zn14  S    
C64   C98   A    
C107  N7    A    
O16   Zn6   S    
C165  O47   A    
C39   H31   S    
C159  O50   A    
C72   H64   S    
C51   C86   A    
O28   Zn4   S    
C41   H33   S    
C7    O32   A    
C60   H52   S    
C77   H70   S    
O42   Zn12  S    
C44   C80   A    
O38   Zn9   S    
C106  N4    A    
C43   C100  A    
C173  O41   A    
C110  C151  S    
O1    Zn8   S    
C68   C122  S    
C33   H26   S    
C14   C127  A    
O15   Zn3   S    
C30   H22   S    
N4    N7    A    
C5    O35   A    
C125  Cl4   S    
C18   H10   S    
C132  H23   S    
C84   C94   A    
C12   C160  S    
C147  C156  A    
C8    C113  A    
C143  C152  A    
C129  Cl8   S    
C15   C128  A    
C23   C144  A    
C170  O42   A    
C164  O8    A    
C78   C88   A    
C105  C152  S    
C66   H59   S    
C16   C157  S    
C161  O5    A    
O52   Zn4   S    
C21   C56   A    
C19   C100  A    
C61   C95   A    
C28   H20   S    
C40   C75   A    
C38   H30   S    
O20   Zn2   S    
C13   C34   A    
C176  O36   A    
C121  C139  A    
C74   H66   S    
C22   H15   S    
O2    Zn3   S    
O27   Zn3   S    
C64   H57   S    
C44   C111  A    
C99   C171  S    
C40   C68   A    
C37   C72   A    
C73   C96   A    
C140  H2    S    
C109  N1    A    
C94   C176  S    
C4    C92   S    
C6    O31   A    
C31   C66   A    
C76   H69   S    
C7    O30   A    
C23   H16   S    
C25   C155  A    
C105  N5    A    
C78   H71   S    
C161  O9    A    
C36   H28   S    
C85   C91   A    
C69   H61   S    
C42   H35   S    
C76   C99   A    
C171  O19   A    
O25   Zn5   S    
C30   C35   A    
C40   H32   S    
C134  H34   S    
C47   H39   S    
C61   H53   S    
C39   C57   A    
O31   Zn11  S    
C59   H51   S    
C47   C82   A    
C146  H7    S    
O1    Zn1   S    
O7    Zn9   S    
C49   H41   S    
C108  N13   A    
C72   C95   A    
C16   C129  A    
O12   Zn9   S    
C32   H25   S    
C145  C153  A    
C102  C169  S    
C2    C100  S    
C103  C168  S    
C47   C89   A    
C112  N14   A    
O23   Zn10  S    
C35   C41   A    
C71   C98   A    
C130  C148  A    
C119  C137  A    
C79   C175  S    
C82   H74   S    
C1    C45   A    
C104  N6    A    
C79   C81   A    
C109  N12   A    
C110  N11   A    
C56   H49   S    
O50   Zn2   S    
C123  C140  A    
C48   H40   S    
O8    Zn1   S    
C11   C116  A    
C125  C142  A    
C27   H19   S    
C111  C166  S    
C25   H17   S    
C42   C77   A    
C6    O29   A    
C109  C148  S    
C106  N8    A    
O1    Zn12  S    
O1    Zn4   S    
C26   C166  A    
C14   C123  A    
C13   C89   S    
C53   H46   S    
C37   C166  A    
C83   H75   S    
O22   Zn7   S    
C86   C92   A    
C51   C133  A    
O9    Zn11  S    
C80   C90   A    
C107  C154  S    
C108  C149  S    
O49   Zn7   S    
C176  O25   A    
C75   H68   S    
C135  C148  A    
C142  H4    S    
C59   C93   A    
C162  O6    A    
C10   C115  A    
C67   C102  A    
C38   C73   A    
