data_mof_unit_14604.cif
_audit_creation_date              2012-12-11T14:32:54-0500
_audit_creation_method            fapswitch 2.2
_symmetry_space_group_name_H-M    P1
_symmetry_Int_Tables_number       1
_space_group_crystal_system       triclinic
_cell_length_a                    6.951081
_cell_length_b                    13.801373
_cell_length_c                    17.999039
_cell_angle_alpha                 111.935227
_cell_angle_beta                  95.370347
_cell_angle_gamma                 90.02669
_cell_volume                      1593.52013607

loop_
_atom_site_label
_atom_site_type_symbol
_atom_type_description
_atom_site_fract_x
_atom_site_fract_y
_atom_site_fract_z
_atom_type_partial_charge
O1    O     O_R   0.484560 0.544530 0.414330 -0.534927
O2    O     O_R   0.197040 0.638810 0.585080 -0.541955
O3    O     O_R   0.026800 0.455470 0.585670 -0.544217
C1    C     C_R   0.373461 0.678674 0.609747 0.772208
O4    O     O_R   0.155000 0.556150 0.414940 -0.540114
O5    O     O_R   0.984450 0.372220 0.414320 -0.542732
C2    C     C_R   0.317642 0.564801 0.386460 0.821757
O6    O     O_R   0.526900 0.627780 0.585680 -0.538091
O7    O     O_3   0.339170 0.439750 0.499990 -0.388006
V1    V     V_3+5 0.064350 0.511180 0.500000 1.396318
O8    O     O_R   0.654880 0.361190 0.414920 -0.548994
C3    C     C_R   0.817509 0.324722 0.386552 0.738204
O9    O     O_R   0.696930 0.443850 0.585060 -0.545492
C4    C     C_R   0.871608 0.416906 0.601091 0.687071
V2    V     V_3+5 0.564340 0.488820 0.500000 1.390028
O10   O     O_3   0.839390 0.560250 0.500010 -0.372687
C5    C     C_R   0.038734 0.848656 0.816967 -0.042781
C6    C     C_R   0.901867 0.374276 0.664770 -0.027774
C7    C     C_R   0.909513 0.803156 0.677854 -0.121636
C8    C     C_R   0.968003 0.773514 0.742363 -0.164424
C9    C     C_R   0.044238 0.953984 0.827182 -0.206326
C10   C     C_R   0.977598 0.986333 0.763319 0.094897
C11   C     C_R   0.914772 0.908727 0.687521 0.095940
C12   C     C_R   0.971537 0.093255 0.772668 0.071479
C13   C     C_R   0.926934 0.121783 0.704322 0.071418
C14   C     C_R   0.871451 0.041084 0.629355 -0.196923
C15   C     C_R   0.857962 0.937102 0.622117 -0.223273
C16   C     C_R   0.997781 0.172312 0.849408 -0.202848
C17   C     C_R   0.000285 0.275803 0.859351 -0.177224
C18   C     C_R   0.984071 0.306338 0.793222 0.115454
C19   C     C_R   0.934504 0.230154 0.714448 0.082442
C20   C     C_R   0.008512 0.412442 0.804436 -0.047920
C21   C     C_R   0.961884 0.444829 0.740893 -0.211743
C22   C     C_R   0.893270 0.266533 0.650117 -0.225848
H1    H     H_    0.809110 0.877821 0.563914 0.153421
H2    H     H_    0.854870 0.213923 0.588844 0.093354
H3    H     H_    0.977690 0.526820 0.750039 0.075598
H4    H     H_    0.007534 0.331034 0.920582 0.175013
H5    H     H_    0.858039 0.743608 0.620406 0.157746
H6    H     H_    0.956817 0.691894 0.734166 0.094422
H7    H     H_    0.102454 0.008382 0.885551 0.098930
H8    H     H_    0.831567 0.056156 0.575505 0.131193
H9    H     H_    0.007288 0.156834 0.904016 0.124860
H10   H     H_    0.114649 0.222689 0.308076 0.152631
H11   H     H_    0.833855 0.035638 0.194508 0.153276
C23   C     C_2   0.134504 0.036752 0.183617 -0.347534
C24   C     C_2   0.972281 0.077937 0.217221 -0.127417
H12   H     H_    0.675841 0.179184 0.295660 0.126004
C25   C     C_2   0.813949 0.221653 0.318873 -0.343686
C26   C     C_2   0.976210 0.180412 0.285336 -0.128406
H13   H     H_    0.272596 0.079249 0.206803 0.125548
C27   C     C_R   0.407602 0.787053 0.672599 -0.079921
C28   C     C_R   0.539422 0.475451 0.825509 -0.063710
C29   C     C_R   0.517289 0.890738 0.811256 -0.120922
C30   C     C_R   0.476086 0.794474 0.749756 -0.185640
C31   C     C_R   0.389337 0.880834 0.655858 -0.032735
C32   C     C_R   0.440422 0.983237 0.719402 0.019668
C33   C     C_R   0.496310 0.983877 0.797817 0.120314
C34   C     C_R   0.442136 0.084867 0.711015 0.064494
C35   C     C_R   0.480231 0.180917 0.781113 0.077590
C36   C     C_R   0.517987 0.173455 0.856637 -0.168407
C37   C     C_R   0.530808 0.077519 0.864247 -0.208985
C38   C     C_R   0.419962 0.095299 0.635670 -0.201552
C39   C     C_R   0.405558 0.191964 0.628830 -0.210685
C40   C     C_R   0.435224 0.284446 0.696135 0.122778
C41   C     C_R   0.484125 0.281627 0.773305 0.080070
C42   C     C_R   0.425640 0.379818 0.685423 -0.121858
C43   C     C_R   0.476511 0.473786 0.749098 -0.170919
C44   C     C_R   0.538560 0.379751 0.838170 -0.162846
H14   H     H_    0.567735 0.076714 0.923901 0.115438
H15   H     H_    0.581429 0.384535 0.898570 0.107170
H16   H     H_    0.466942 0.545784 0.738419 0.091314
H17   H     H_    0.381784 0.194298 0.569117 0.117424
H18   H     H_    0.566098 0.892333 0.870686 0.140614
H19   H     H_    0.495841 0.724697 0.763067 0.096582
H20   H     H_    0.542615 0.241230 0.911593 0.126177
H21   H     H_    0.426944 0.031195 0.579696 0.140719
H22   H     H_    0.380851 0.381472 0.626728 0.147649
H23   H     H_    0.334153 0.667316 0.194578 0.158227
H24   H     H_    0.614997 0.590971 0.308123 0.151603
C45   C     C_2   0.314244 0.602134 0.318852 -0.303115
C46   C     C_2   0.476543 0.610990 0.285372 -0.120534
H25   H     H_    0.772969 0.636155 0.206862 0.127078
C47   C     C_2   0.634832 0.655969 0.183696 -0.339837
C48   C     C_2   0.472621 0.647258 0.217289 -0.114463
H26   H     H_    0.176142 0.621950 0.295661 0.120733
O11   O     O_R   0.421600 0.630430 0.917010 -0.534094
O12   O     O_R   0.793840 0.702190 0.087630 -0.541050
O13   O     O_R   0.964010 0.886170 0.088190 -0.538346
C49   C     C_R   0.631231 0.693193 0.116018 0.773656
O14   O     O_R   0.751460 0.619510 0.917500 -0.559548
O15   O     O_R   0.921330 0.802900 0.916840 -0.545134
C50   C     C_R   0.574921 0.579591 0.892785 0.702808
O16   O     O_R   0.464290 0.713700 0.088350 -0.528873
O17   O     O_3   0.609200 0.818520 0.002630 -0.379111
V3    V     V_3+5 0.884140 0.747190 0.002530 1.394240
O18   O     O_R   0.251150 0.814630 0.917340 -0.548717
C51   C     C_R   0.074452 0.818797 0.887233 0.670375
O19   O     O_R   0.293530 0.897310 0.087470 -0.544824
C52   C     C_R   0.130923 0.933723 0.115885 0.759346
V4    V     V_3+5 0.384070 0.769710 0.002370 1.403406
O20   O     O_3   0.109180 0.698190 0.002460 -0.366914
C53   C     C_2   0.093008 0.494625 0.878886 0.399138
H27   H     H_    0.088889 0.572825 0.879668 0.103063
O21   O     O_2   0.178897 0.477975 0.934970 -0.549509
C54   C     C_2   0.306330 0.867604 0.573725 0.272227
H28   H     H_    0.193541 0.917256 0.565009 0.079836
O22   O     O_2   0.366152 0.802134 0.514479 -0.547724

loop_
_geom_bond_atom_site_label_1
_geom_bond_atom_site_label_2
_ccdc_geom_bond_type
C33   C37   A    
O12   V3    S    
C13   C19   A    
V4    O20   S    
V3    O20   S    
C4    C6    S    
O2    C1    A    
O17   V3    S    
C1    O6    A    
C28   C44   A    
C3    C25   S    
O15   C51   A    
C14   C15   A    
C1    C27   S    
H25   C47   S    
C16   C17   A    
O5    C3    A    
C18   C19   A    
C8    H6    S    
C32   C34   A    
C41   C44   A    
C54   H28   S    
V2    O10   S    
O18   C51   A    
O15   V3    S    
C5    C8    A    
C31   C32   A    
C37   H14   S    
C23   C24   D    
C44   H15   S    
C28   C43   A    
O14   V3    S    
C29   H18   S    
O8    V2    S    
C7    C8    A    
O16   V4    S    
C40   C42   A    
C17   H4    S    
C39   H17   S    
O1    V2    S    
C11   C15   A    
C5    C51   S    
C45   H26   S    
C27   C30   A    
C30   H19   S    
C38   H21   S    
C35   C41   A    
C34   C35   A    
O11   V4    S    
O9    C4    A    
C42   H22   S    
C47   C49   S    
C49   O16   A    
C24   C26   S    
H11   C24   S    
C36   H20   S    
C19   C22   A    
O13   C52   A    
C28   C50   S    
C42   C43   A    
C12   C13   A    
H24   C46   S    
O4    C2    A    
C15   H1    S    
C13   C14   A    
C23   H13   S    
C45   C46   D    
C35   C36   A    
C7    C11   A    
C17   C18   A    
O14   C50   A    
O19   C52   A    
C43   H16   S    
C29   C33   A    
C20   C53   S    
C53   O21   D    
C47   C48   D    
C6    C22   A    
C31   C54   S    
O3    C4    A    
C7    H5    S    
C9    H7    S    
H12   C25   S    
O19   V4    S    
O12   C49   A    
C40   C41   A    
O6    V2    S    
O9    V2    S    
C10   C12   A    
O2    V1    S    
H23   C48   S    
C14   H8    S    
O7    V1    S    
H10   C26   S    
C23   C52   S    
C29   C30   A    
C2    C45   S    
O1    C2    A    
C12   C16   A    
O5    V1    S    
O8    C3    A    
C46   C48   S    
C16   H9    S    
C34   C38   A    
C20   C21   A    
O13   V3    S    
O7    V2    S    
O4    V1    S    
O3    V1    S    
V1    O10   S    
C39   C40   A    
C18   C20   A    
C32   C33   A    
C54   O22   D    
O11   C50   A    
C22   H2    S    
C36   C37   A    
C6    C21   A    
C21   H3    S    
C38   C39   A    
C27   C31   A    
C25   C26   D    
C53   H27   S    
C10   C11   A    
C9    C10   A    
O18   V4    S    
O17   V4    S    
C5    C9    A    
