data_mof_unit_63102.cif
_audit_creation_date              2013-03-05T15:49:15-0500
_audit_creation_method            fapswitch 2.2
_symmetry_space_group_name_H-M    P1
_symmetry_Int_Tables_number       1
_space_group_crystal_system       triclinic
_cell_length_a                    30.241627
_cell_length_b                    30.241752
_cell_length_c                    23.669257
_cell_angle_alpha                 89.995041
_cell_angle_beta                  90.029903
_cell_angle_gamma                 90.071244
_cell_volume                      21646.9308021

loop_
_atom_site_label
_atom_site_type_symbol
_atom_site_description
_atom_site_fract_x
_atom_site_fract_y
_atom_site_fract_z
_atom_type_partial_charge
O1    O     O_R   0.564850 0.037600 0.500050 -0.556712
O2    O     O_R   0.962400 0.564850 0.500050 -0.570399
O3    O     O_R   0.435150 0.962400 0.500050 -0.557156
O4    O     O_R   0.037600 0.435150 0.500050 -0.557860
O5    O     O_R   0.564850 0.962400 0.499950 -0.557083
O6    O     O_R   0.962400 0.435150 0.499950 -0.555455
O7    O     O_R   0.435150 0.037600 0.499950 -0.556817
O8    O     O_R   0.037600 0.564850 0.499950 -0.546108
O9    O     O_R   0.064850 0.537600 0.000050 -0.555410
O10   O     O_R   0.462400 0.064850 0.000050 -0.556069
O11   O     O_R   0.935150 0.462400 0.000050 -0.545536
O12   O     O_R   0.537600 0.935150 0.000050 -0.557431
O13   O     O_R   0.064850 0.462400 0.999950 -0.557543
O14   O     O_R   0.462400 0.935150 0.999950 -0.556484
O15   O     O_R   0.935150 0.537600 0.999950 -0.571028
O16   O     O_R   0.537600 0.064850 0.999950 -0.556550
C1    C     C_R   0.585446 0.000032 0.500099 0.903865
C2    C     C_R   0.000043 0.585341 0.499868 0.904766
C3    C     C_R   0.414555 0.999984 0.499892 0.904039
C4    C     C_R   0.999969 0.414556 0.499897 0.904207
C5    C     C_R   0.085436 0.500023 0.999989 0.902850
C6    C     C_R   0.500024 0.085439 0.000001 0.902450
C7    C     C_R   0.914659 0.499949 0.000077 0.905889
C8    C     C_R   0.499983 0.914556 0.000115 0.903905
O17   O     O_R   0.499980 0.037590 0.581430 -0.562836
O18   O     O_R   0.962410 0.499980 0.581430 -0.574256
O19   O     O_R   0.500020 0.962410 0.581430 -0.563644
O20   O     O_R   0.037590 0.500020 0.581430 -0.551317
O21   O     O_R   0.499980 0.962410 0.418570 -0.563123
O22   O     O_R   0.962410 0.500020 0.418570 -0.557271
O23   O     O_R   0.500020 0.037590 0.418570 -0.563174
O24   O     O_R   0.037590 0.499980 0.418570 -0.566750
O25   O     O_R   0.999980 0.537590 0.081430 -0.556103
O26   O     O_R   0.462410 0.999980 0.081430 -0.562717
O27   O     O_R   0.000020 0.462410 0.081430 -0.568181
O28   O     O_R   0.537590 0.000020 0.081430 -0.563366
O29   O     O_R   0.999980 0.462410 0.918570 -0.547942
O30   O     O_R   0.462410 0.000020 0.918570 -0.563051
O31   O     O_R   0.000020 0.537590 0.918570 -0.577029
O32   O     O_R   0.537590 0.999980 0.918570 -0.563091
C9    C     C_R   0.500015 0.999999 0.608081 0.871725
C10   C     C_R   0.000004 0.500044 0.608082 0.875399
C11   C     C_R   0.499987 0.000002 0.391919 0.871738
C12   C     C_R   0.999987 0.500140 0.391918 0.866158
C13   C     C_R   0.999903 0.500004 0.108082 0.869431
C14   C     C_R   0.500009 0.000003 0.108081 0.870421
C15   C     C_R   0.999941 0.500006 0.891918 0.872341
C16   C     C_R   0.499991 0.000017 0.891919 0.871259
Cu1   Cu    Cu3+1 0.500000 0.044510 0.500000 1.150923
Cu2   Cu    Cu3+1 0.955490 0.500000 0.500000 1.146625
Cu3   Cu    Cu3+1 0.500000 0.955490 0.500000 1.148356
Cu4   Cu    Cu3+1 0.044510 0.500000 0.500000 1.153372
Cu5   Cu    Cu3+1 0.000000 0.544510 0.000000 1.145117
Cu6   Cu    Cu3+1 0.455490 0.000000 0.000000 1.151080
Cu7   Cu    Cu3+1 0.000000 0.455490 0.000000 1.155617
Cu8   Cu    Cu3+1 0.544510 0.000000 0.000000 1.150109
C17   C     C_1   0.500006 0.999999 0.668966 -0.022644
C18   C     C_1   0.000002 0.500069 0.668966 -0.015248
C19   C     C_1   0.499996 0.000006 0.331034 -0.022320
C20   C     C_1   0.999945 0.500191 0.331036 -0.019072
C21   C     C_1   0.999847 0.500033 0.168965 -0.017877
C22   C     C_1   0.500026 0.000006 0.168966 -0.022533
C23   C     C_1   0.999918 0.500023 0.831035 -0.016421
C24   C     C_1   0.499975 0.000018 0.831034 -0.023013
C25   C     C_1   0.499993 0.000004 0.720051 0.082712
C26   C     C_1   0.999974 0.500067 0.720051 0.089241
C27   C     C_1   0.500009 0.000007 0.279949 0.083011
C28   C     C_1   0.999893 0.500171 0.279950 0.090401
C29   C     C_1   0.999847 0.500098 0.220051 0.090194
C30   C     C_1   0.500023 0.000007 0.220051 0.083087
C31   C     C_1   0.999933 0.500044 0.779950 0.089342
C32   C     C_1   0.499978 0.000013 0.779949 0.082624
C33   C     C_R   0.842722 0.984429 0.453053 -0.141230
C34   C     C_R   0.003802 0.842373 0.449097 -0.147602
C35   C     C_R   0.157227 0.018817 0.454611 -0.150575
C36   C     C_R   0.981193 0.157200 0.454549 -0.141735
C37   C     C_R   0.842826 0.018962 0.545317 -0.146546
C38   C     C_R   0.015521 0.157263 0.546963 -0.138809
C39   C     C_R   0.157241 0.984389 0.546946 -0.143956
C40   C     C_R   0.994769 0.842341 0.550701 -0.147373
C41   C     C_R   0.342721 0.482900 0.953753 -0.145520
C42   C     C_R   0.517366 0.342799 0.953935 -0.142247
C43   C     C_R   0.657654 0.499822 0.948886 -0.139941
C44   C     C_R   0.484317 0.657227 0.953100 -0.144786
C45   C     C_R   0.342802 0.517167 0.046171 -0.145262
C46   C     C_R   0.518765 0.657241 0.045442 -0.146210
C47   C     C_R   0.657674 0.497137 0.051103 -0.139767
C48   C     C_R   0.482696 0.342746 0.046088 -0.145011
C49   C     C_R   0.865778 0.001024 0.499589 -0.108514
C50   C     C_R   0.999474 0.865502 0.499938 -0.114397
C51   C     C_R   0.134227 0.000965 0.500394 -0.109751
C52   C     C_R   0.999019 0.134226 0.500363 -0.106945
C53   C     C_R   0.365781 0.500022 0.999968 -0.106266
C54   C     C_R   0.500017 0.365789 0.000006 -0.106243
C55   C     C_R   0.634516 0.499086 0.000013 -0.114944
C56   C     C_R   0.500915 0.634227 0.999646 -0.107632
C57   C     C_R   0.796536 0.021251 0.544851 0.011015
C58   C     C_R   0.995582 0.796029 0.551651 0.008698
C59   C     C_R   0.203542 0.985118 0.548377 0.010820
C60   C     C_R   0.014740 0.203557 0.548421 0.012228
C61   C     C_R   0.796425 0.985208 0.451591 0.011682
C62   C     C_R   0.978911 0.203490 0.455001 0.011792
C63   C     C_R   0.203524 0.021053 0.455042 0.010817
C64   C     C_R   0.002455 0.796071 0.448020 0.008309
C65   C     C_R   0.296515 0.519031 0.045960 0.010508
C66   C     C_R   0.480873 0.296454 0.045881 0.010624
C67   C     C_R   0.703974 0.495616 0.051903 0.010016
C68   C     C_R   0.520997 0.703538 0.045016 0.010917
C69   C     C_R   0.296427 0.481075 0.953947 0.010651
C70   C     C_R   0.485041 0.703526 0.951674 0.011393
C71   C     C_R   0.703951 0.498418 0.947980 0.009933
C72   C     C_R   0.519241 0.296513 0.954167 0.010040
C73   C     C_R   0.773128 0.003017 0.498356 0.035716
C74   C     C_R   0.998805 0.772702 0.499800 0.036287
C75   C     C_R   0.226885 0.002857 0.501566 0.035116
C76   C     C_R   0.997034 0.226877 0.501579 0.036380
C77   C     C_R   0.273112 0.500062 0.999950 0.035985
C78   C     C_R   0.500066 0.273124 0.000028 0.036323
C79   C     C_R   0.727306 0.497511 0.999968 0.036320
C80   C     C_R   0.502794 0.726884 0.998487 0.035218
C81   C     C_R   0.773049 0.040136 0.590434 0.298714
C82   C     C_R   0.992554 0.772480 0.603094 0.296114
C83   C     C_R   0.227068 0.967461 0.594761 0.295512
C84   C     C_R   0.032311 0.227103 0.594868 0.297541
C85   C     C_R   0.772856 0.967528 0.405226 0.295936
C86   C     C_R   0.960132 0.227000 0.409332 0.300719
C87   C     C_R   0.227059 0.039855 0.409399 0.299378
C88   C     C_R   0.005982 0.772564 0.396601 0.296101
C89   C     C_R   0.273054 0.538462 0.091185 0.301546
C90   C     C_R   0.461262 0.272917 0.090963 0.300778
C91   C     C_R   0.727523 0.493246 0.103419 0.297763
C92   C     C_R   0.539811 0.727088 0.090662 0.299298
C93   C     C_R   0.272874 0.461663 0.908714 0.300470
C94   C     C_R   0.467375 0.727036 0.905286 0.297451
C95   C     C_R   0.727467 0.498918 0.896388 0.296402
C96   C     C_R   0.538887 0.273037 0.909104 0.298258
C97   C     C_R   0.726888 0.039261 0.590159 -0.148584
C98   C     C_R   0.991504 0.726344 0.602237 -0.144772
C99   C     C_R   0.273149 0.965435 0.592669 -0.147437
C100  C     C_R   0.034305 0.273192 0.592805 -0.144749
C101  C     C_R   0.726769 0.965528 0.407307 -0.146762
C102  C     C_R   0.960992 0.273162 0.409620 -0.148472
C103  C     C_R   0.273216 0.038958 0.409663 -0.149598
C104  C     C_R   0.007240 0.726430 0.397460 -0.143307
C105  C     C_R   0.226904 0.538038 0.090650 -0.149317
C106  C     C_R   0.461721 0.226770 0.090445 -0.148198
C107  C     C_R   0.773656 0.494819 0.102794 -0.141641
C108  C     C_R   0.538928 0.773245 0.090389 -0.148537
C109  C     C_R   0.226725 0.462115 0.909240 -0.147295
C110  C     C_R   0.465363 0.773118 0.907369 -0.147837
C111  C     C_R   0.773594 0.500559 0.897166 -0.142656
C112  C     C_R   0.538456 0.226886 0.909635 -0.147198
C113  C     C_R   0.703191 0.020945 0.544783 -0.045464
C114  C     C_R   0.994541 0.702723 0.551334 -0.042296
C115  C     C_R   0.296773 0.982071 0.546229 -0.045345
C116  C     C_R   0.017719 0.296796 0.546326 -0.044835
C117  C     C_R   0.703187 0.982212 0.453718 -0.045348
C118  C     C_R   0.979191 0.296837 0.455088 -0.044614
C119  C     C_R   0.296865 0.020701 0.455083 -0.045734
C120  C     C_R   0.003138 0.702765 0.448215 -0.040871
C121  C     C_R   0.203204 0.519753 0.045268 -0.045397
C122  C     C_R   0.480216 0.203142 0.045207 -0.045741
C123  C     C_R   0.797261 0.497779 0.051875 -0.040159
C124  C     C_R   0.520672 0.796879 0.044958 -0.045577
C125  C     C_R   0.203114 0.480409 0.954622 -0.045536
C126  C     C_R   0.482021 0.796758 0.953805 -0.045391
C127  C     C_R   0.797226 0.500721 0.948233 -0.040956
C128  C     C_R   0.519959 0.203200 0.954868 -0.045414
C129  C     C_R   0.726464 0.002158 0.498890 -0.020624
C130  C     C_R   0.998674 0.726034 0.499762 -0.024118
C131  C     C_R   0.273546 0.001973 0.501019 -0.021104
C132  C     C_R   0.997882 0.273541 0.501058 -0.019750
C133  C     C_R   0.226442 0.500076 0.999946 -0.020025
C134  C     C_R   0.500082 0.226454 0.000035 -0.019866
C135  C     C_R   0.773960 0.498714 0.000028 -0.023914
C136  C     C_R   0.501924 0.773545 0.999025 -0.020792
C137  C     C_R   0.656637 0.020719 0.544691 0.274908
C138  C     C_R   0.994973 0.656189 0.551204 0.277843
C139  C     C_R   0.343277 0.980339 0.544968 0.273368
C140  C     C_R   0.019448 0.343303 0.545075 0.273871
C141  C     C_R   0.656681 0.980468 0.454990 0.273370
C142  C     C_R   0.979395 0.343391 0.455198 0.275837
C143  C     C_R   0.343416 0.020490 0.455185 0.275065
C144  C     C_R   0.003955 0.656240 0.448468 0.274976
C145  C     C_R   0.156667 0.520387 0.044664 0.275098
C146  C     C_R   0.479588 0.156605 0.044595 0.274932
C147  C     C_R   0.843796 0.498355 0.051743 0.275953
C148  C     C_R   0.520484 0.843432 0.044841 0.274874
C149  C     C_R   0.156577 0.479775 0.955236 0.274747
C150  C     C_R   0.480311 0.843263 0.955051 0.273371
C151  C     C_R   0.843758 0.501358 0.948428 0.277628
C152  C     C_R   0.520584 0.156663 0.955475 0.274601
C153  C     C_R   0.633730 0.000215 0.500053 -0.256694
C154  C     C_R   0.000255 0.633429 0.499934 -0.246588
C155  C     C_R   0.366274 0.000061 0.499881 -0.256740
C156  C     C_R   0.999790 0.366274 0.499934 -0.256048
C157  C     C_R   0.133703 0.500073 0.999958 -0.255930
C158  C     C_R   0.500076 0.133711 0.000028 -0.256318
C159  C     C_R   0.866575 0.499584 0.000070 -0.247106
C160  C     C_R   0.500055 0.866274 0.000133 -0.256696
H1    H     H_    0.861324 0.969489 0.419050 0.206115
H2    H     H_    0.008764 0.860857 0.410523 0.210937
H3    H     H_    0.138574 0.030735 0.418734 0.207083
H4    H     H_    0.969328 0.138533 0.418637 0.207806
H5    H     H_    0.861510 0.030904 0.581178 0.207643
H6    H     H_    0.030384 0.138647 0.581036 0.205418
H7    H     H_    0.138598 0.969505 0.580989 0.206691
H8    H     H_    0.990137 0.860811 0.589344 0.210985
H9    H     H_    0.361340 0.470622 0.918074 0.207053
H10   H     H_    0.529784 0.361472 0.918345 0.208374
H11   H     H_    0.639211 0.502451 0.909900 0.211630
H12   H     H_    0.469430 0.638572 0.919051 0.204856
H13   H     H_    0.361479 0.529429 0.081861 0.207181
H14   H     H_    0.530693 0.638598 0.081319 0.207082
H15   H     H_    0.639243 0.497648 0.090213 0.212655
H16   H     H_    0.470261 0.361380 0.081670 0.206835
H17   H     H_    0.709732 0.053517 0.625870 0.232763
H18   H     H_    0.989856 0.709126 0.642268 0.231383
H19   H     H_    0.290379 0.951894 0.628809 0.232169
H20   H     H_    0.047785 0.290437 0.628990 0.232256
H21   H     H_    0.709505 0.951960 0.371188 0.232191
H22   H     H_    0.946817 0.290336 0.373847 0.231679
H23   H     H_    0.290408 0.053158 0.373913 0.232697
H24   H     H_    0.010758 0.709240 0.357618 0.233574
H25   H     H_    0.209765 0.552827 0.126022 0.231561
H26   H     H_    0.446785 0.209574 0.125704 0.232353
H27   H     H_    0.790909 0.492372 0.142742 0.232418
H28   H     H_    0.553141 0.790450 0.126138 0.232744
H29   H     H_    0.209516 0.447334 0.873867 0.232559
H30   H     H_    0.451818 0.790335 0.871223 0.231944
H31   H     H_    0.790820 0.500369 0.857099 0.231747
H32   H     H_    0.553410 0.209735 0.874386 0.232486
O33   O     O_R   0.999990 0.935150 0.547130 -0.577223
O34   O     O_R   0.064850 0.999990 0.547130 -0.570520
O35   O     O_R   0.000010 0.064850 0.547130 -0.569703
O36   O     O_R   0.935150 0.000010 0.547130 -0.577458
O37   O     O_R   0.999990 0.064850 0.452870 -0.575252
O38   O     O_R   0.064850 0.000010 0.452870 -0.578231
O39   O     O_R   0.000010 0.935150 0.452870 -0.577527
O40   O     O_R   0.935150 0.999990 0.452870 -0.568980
O41   O     O_R   0.499990 0.435150 0.047130 -0.575481
O42   O     O_R   0.564850 0.499990 0.047130 -0.577176
O43   O     O_R   0.500010 0.564850 0.047130 -0.576317
O44   O     O_R   0.435150 0.500010 0.047130 -0.575460
O45   O     O_R   0.499990 0.564850 0.952870 -0.573252
O46   O     O_R   0.564850 0.500010 0.952870 -0.575571
O47   O     O_R   0.500010 0.435150 0.952870 -0.573914
O48   O     O_R   0.435150 0.499990 0.952870 -0.577724
C161  C     C_R   0.999860 0.914055 0.499993 0.805870
C162  C     C_R   0.085854 0.000070 0.500041 0.806352
C163  C     C_R   0.999931 0.085855 0.500027 0.812050
C164  C     C_R   0.914146 0.000083 0.499957 0.809763
C165  C     C_R   0.500000 0.414154 0.000001 0.815653
C166  C     C_R   0.585954 0.499968 0.000011 0.814952
C167  C     C_R   0.500053 0.585854 0.999971 0.808348
C168  C     C_R   0.414151 0.500001 0.999988 0.810951
Cu9   Cu    Cu3+1 0.000000 0.000000 0.555810 1.085029
Cu10  Cu    Cu3+1 0.000000 0.000000 0.444190 1.080285
Cu11  Cu    Cu3+1 0.500000 0.500000 0.055810 1.076348
Cu12  Cu    Cu3+1 0.500000 0.500000 0.944190 1.080501
N1    N     N_R   0.795302 0.061196 0.636877 0.130828
O49   O     O_R   0.823847 0.092542 0.627289 -0.302598
O50   O     O_R   0.781127 0.055165 0.688205 -0.276674
N2    N     N_R   0.991836 0.794613 0.656810 0.127021
O51   O     O_R   0.023095 0.822416 0.669848 -0.300752
O52   O     O_R   0.965310 0.780841 0.696367 -0.277729
N3    N     N_R   0.204955 0.952025 0.644760 0.128619
O53   O     O_R   0.177298 0.977731 0.671052 -0.297179
O54   O     O_R   0.218447 0.916148 0.669717 -0.271591
N4    N     N_R   0.047688 0.205003 0.644903 0.128087
O55   O     O_R   0.021965 0.177237 0.671100 -0.295627
O56   O     O_R   0.083513 0.218596 0.669983 -0.272836
N5    N     N_R   0.794932 0.952036 0.355260 0.128634
O57   O     O_R   0.822688 0.977698 0.328949 -0.294778
O58   O     O_R   0.781329 0.916153 0.330344 -0.270464
N6    N     N_R   0.939191 0.204770 0.362784 0.130954
O59   O     O_R   0.907817 0.176225 0.372216 -0.304589
O60   O     O_R   0.945358 0.218969 0.311487 -0.277261
N7    N     N_R   0.204862 0.060856 0.362906 0.130268
O61   O     O_R   0.176438 0.092255 0.372416 -0.311267
O62   O     O_R   0.218996 0.054718 0.311588 -0.277900
N8    N     N_R   0.007630 0.794769 0.342959 0.128649
O63   O     O_R   0.976721 0.822680 0.329222 -0.296784
O64   O     O_R   0.034734 0.781054 0.304055 -0.278330
N9    N     N_R   0.295323 0.559822 0.137384 0.130272
O65   O     O_R   0.323719 0.591237 0.127446 -0.314242
O66   O     O_R   0.281187 0.554063 0.188780 -0.278395
N10   N     N_R   0.439680 0.295104 0.136986 0.130381
O67   O     O_R   0.408287 0.323399 0.126792 -0.309583
O68   O     O_R   0.445219 0.280973 0.188431 -0.276662
N11   N     N_R   0.705391 0.488086 0.156739 0.130320
O69   O     O_R   0.677366 0.455888 0.163935 -0.306616
O70   O     O_R   0.719267 0.509875 0.200734 -0.267908
N12   N     N_R   0.560815 0.704906 0.137165 0.131498
O71   O     O_R   0.592210 0.676475 0.127669 -0.308994
O72   O     O_R   0.554684 0.719060 0.188479 -0.274128
N13   N     N_R   0.295044 0.440288 0.862520 0.130424
O73   O     O_R   0.323344 0.408852 0.872466 -0.308938
O74   O     O_R   0.280892 0.446057 0.811121 -0.275806
N14   N     N_R   0.451921 0.704907 0.855287 0.126742
O75   O     O_R   0.477621 0.677246 0.828990 -0.305581
O76   O     O_R   0.416036 0.718392 0.830329 -0.275640
N15   N     N_R   0.705309 0.496668 0.842731 0.127916
O77   O     O_R   0.677365 0.464874 0.832636 -0.290977
O78   O     O_R   0.719072 0.520904 0.800829 -0.276042
N16   N     N_R   0.560472 0.295291 0.863088 0.131976
O79   O     O_R   0.591817 0.323714 0.873293 -0.299652
O80   O     O_R   0.554981 0.281127 0.811647 -0.271181
N17   N     N_R   0.632405 0.040439 0.590353 0.120880
O81   O     O_R   0.606955 0.016216 0.622078 -0.367965
O82   O     O_R   0.633751 0.083009 0.598108 -0.291144
N18   N     N_R   0.990134 0.631803 0.602913 0.103663
O83   O     O_R   0.021910 0.606375 0.620636 -0.357832
O84   O     O_R   0.953073 0.633227 0.630737 -0.309290
N19   N     N_R   0.367384 0.959707 0.590110 0.121347
O85   O     O_R   0.393842 0.983009 0.621641 -0.368560
O86   O     O_R   0.363994 0.917323 0.598503 -0.290821
N20   N     N_R   0.040036 0.367439 0.590264 0.121349
O87   O     O_R   0.016713 0.393862 0.621705 -0.366991
O88   O     O_R   0.082409 0.364133 0.598766 -0.289391
N21   N     N_R   0.632526 0.959779 0.409891 0.121459
O89   O     O_R   0.606105 0.983037 0.378330 -0.368343
O90   O     O_R   0.635825 0.917388 0.401578 -0.290043
N22   N     N_R   0.959759 0.367648 0.409465 0.120723
O91   O     O_R   0.984032 0.393150 0.377869 -0.368053
O92   O     O_R   0.917208 0.366274 0.401518 -0.292442
N23   N     N_R   0.367697 0.040170 0.409490 0.120834
O93   O     O_R   0.393108 0.015922 0.377829 -0.367722
O94   O     O_R   0.366439 0.082729 0.401646 -0.292762
N24   N     N_R   0.007555 0.631902 0.396573 0.099005
O95   O     O_R   0.042188 0.607619 0.386794 -0.331382
O96   O     O_R   0.975015 0.631944 0.360599 -0.320046
N25   N     N_R   0.132500 0.540730 0.089929 0.121264
O97   O     O_R   0.106799 0.517013 0.121945 -0.367664
O98   O     O_R   0.134296 0.583340 0.097149 -0.292939
N26   N     N_R   0.459062 0.132368 0.089714 0.121439
O99   O     O_R   0.482657 0.106740 0.121928 -0.366842
O100  O     O_R   0.416419 0.134029 0.096607 -0.291637
N27   N     N_R   0.868146 0.498092 0.103863 0.100127
O101  O     O_R   0.893752 0.464955 0.116291 -0.341552
O102  O     O_R   0.866206 0.531892 0.137767 -0.312431
N28   N     N_R   0.540184 0.867727 0.090532 0.120984
O103  O     O_R   0.515951 0.893155 0.122191 -0.366871
O104  O     O_R   0.582745 0.866456 0.098384 -0.292776
N29   N     N_R   0.132319 0.459432 0.909975 0.121322
O105  O     O_R   0.106672 0.483157 0.877941 -0.365832
O106  O     O_R   0.133988 0.416820 0.902764 -0.291076
N30   N     N_R   0.459677 0.867355 0.909899 0.121168
O107  O     O_R   0.482977 0.893804 0.878380 -0.369731
O108  O     O_R   0.417289 0.863975 0.901499 -0.289187
N31   N     N_R   0.868076 0.503920 0.896419 0.101488
O109  O     O_R   0.893805 0.471603 0.881232 -0.350753
O110  O     O_R   0.866077 0.539453 0.865539 -0.312071
N32   N     N_R   0.541108 0.132483 0.910355 0.121615
O111  O     O_R   0.517510 0.106811 0.878129 -0.365998
O112  O     O_R   0.583751 0.134246 0.903465 -0.291820

loop_
_geom_bond_atom_site_label_1
_geom_bond_atom_site_label_2
_geom_bond_distance
_ccdc_geom_bond_type
C41   H9    1.081291 S    
C42   C54   1.396197 A    
C90   C106  1.395729 A    
O25   C13   1.299944 A    
C68   C80   1.419373 A    
N11   O69   1.301362 A    
C10   C18   1.441086 S    
N15   O78   1.301377 A    
C85   N5    1.437219 S    
N25   O97   1.300753 A    
C37   C49   1.396183 A    
N8    O63   1.301354 A    
C137  C153  1.406763 A    
C14   C22   1.441084 S    
C39   C59   1.400747 A    
C72   C96   1.412983 A    
O18   Cu2   1.938607 S    
C58   C74   1.419077 A    
O39   C161  1.284879 A    
C149  C157  1.406333 A    
C61   C73   1.418987 A    
C114  C130  1.415065 A    
C66   C90   1.412961 A    
O24   Cu4   1.938609 S    
C117  C129  1.414514 A    
C100  H20   1.082088 S    
C143  N23   1.436230 S    
N22   O91   1.300764 A    
Cu1   Cu3   2.692118 S    
Cu2   Cu4   2.692107 S    
O3    C3    1.296737 A    
C152  C158  1.406392 A    
C104  C120  1.403762 A    
C89   C105  1.395751 A    
C140  C156  1.406355 A    
C106  C122  1.404150 A    
C98   C114  1.403861 A    
C33   C61   1.400709 A    
C66   C78   1.419293 A    
C35   C63   1.401658 A    
O34   C162  1.283143 A    
C102  C118  1.404361 A    
C96   C112  1.395790 A    
C6    C158  1.459820 S    
C113  C137  1.407889 A    
C142  N22   1.436234 S    
N24   O95   1.300777 A    
O33   C161  1.285255 A    
C90   N10   1.436937 S    
O17   C9    1.300060 A    
N28   O103  1.300752 A    
C139  C155  1.406366 A    
C33   H1    1.081451 S    
O27   Cu7   1.938733 S    
C60   C84   1.413022 A    
C37   H5    1.081297 S    
C141  N21   1.436202 S    
N15   O77   1.301373 A    
C64   C88   1.413657 A    
C44   H12   1.081444 S    
N16   O79   1.301342 A    
C97   C113  1.404363 A    
C87   C103  1.396165 A    
C88   C104  1.395894 A    
C119  C131  1.414188 A    
C100  C116  1.404127 A    
C101  C117  1.404144 A    
C23   C31   1.209149 T    
O26   Cu6   1.938607 S    
O7    C3    1.296232 A    
N4    O56   1.301298 A    
O27   C13   1.300247 A    
O6    C4    1.296322 A    
N14   O75   1.301336 A    
O31   C15   1.299970 A    
C77   C133  1.411365 A    
O32   C16   1.300036 A    
C86   N6    1.437064 S    
C35   H3    1.081290 S    
C46   C68   1.401672 A    
C5    C157  1.459651 S    
N26   O99   1.300741 A    
C124  C148  1.407838 A    
C128  C152  1.407598 A    
C65   C89   1.412988 A    
C127  C151  1.407298 A    
C110  H30   1.082087 S    
C91   N11   1.437248 S    
C34   C50   1.398214 A    
C89   N9    1.436938 S    
N9    O66   1.301257 A    
C15   C23   1.441055 S    
C116  C140  1.407679 A    
C118  C132  1.414199 A    
C105  C121  1.404137 A    
C39   H7    1.081446 S    
O11   C7    1.294289 A    
N30   O107  1.300725 A    
N7    O62   1.301277 A    
C9    C17   1.441091 S    
O4    C4    1.296629 A    
C96   N16   1.436969 S    
C47   C67   1.401139 A    
C8    C160  1.460125 S    
N21   O89   1.300720 A    
O44   C168  1.283580 A    
C97   H17   1.081927 S    
O37   Cu10  1.971928 S    
O5    Cu3   1.972014 S    
C145  C157  1.406311 A    
C101  H21   1.082090 S    
C51   C162  1.463114 S    
C49   C164  1.463085 S    
C2    C154  1.454248 S    
N31   O109  1.300794 A    
C108  H28   1.081934 S    
C88   N8    1.437116 S    
C123  C135  1.415086 A    
C46   H14   1.081292 S    
C53   C168  1.462776 S    
O43   C167  1.284245 A    
C140  N20   1.436219 S    
C128  C134  1.414443 A    
O45   C167  1.283153 A    
C22   C30   1.209146 T    
O23   C11   1.300077 A    
C137  N17   1.436231 S    
N11   O70   1.301372 A    
N1    O49   1.301341 A    
C111  C127  1.403868 A    
C148  C160  1.406739 A    
C110  C126  1.404132 A    
C83   C99   1.395911 A    
C41   C53   1.396218 A    
N18   O83   1.300801 A    
C71   C79   1.418768 A    
Cu9   Cu10  2.641965 S    
O14   C8    1.296721 A    
O45   Cu12  1.971928 S    
N20   O88   1.300982 A    
O2    Cu2   1.972021 S    
C19   C27   1.209144 T    
C45   C53   1.396248 A    
C111  H31   1.082268 S    
C85   C101  1.395892 A    
N2    O51   1.301365 A    
C47   C55   1.398372 A    
C61   C85   1.413020 A    
C91   C107  1.395977 A    
O26   C14   1.300045 A    
O29   C15   1.300208 A    
C63   C87   1.413042 A    
O8    Cu4   1.972538 S    
C39   C51   1.396324 A    
C35   C51   1.396180 A    
C36   H4    1.081290 S    
O38   C162  1.284259 A    
N13   O74   1.301258 A    
O36   C164  1.284286 A    
O19   Cu3   1.938733 S    
N17   O82   1.300989 A    
C36   C62   1.401734 A    
C48   C54   1.396168 A    
C108  C124  1.404347 A    
C151  N31   1.436311 S    
C109  C125  1.404148 A    
N23   O94   1.300990 A    
C107  H27   1.082288 S    
C38   C52   1.396324 A    
C116  C132  1.414525 A    
N10   O68   1.301258 A    
O16   Cu8   1.972538 S    
C143  C155  1.406731 A    
C99   C115  1.404143 A    
O6    Cu2   1.972541 S    
C40   H8    1.081004 S    
C70   C94   1.413031 A    
O41   C165  1.283602 A    
O18   C10   1.299899 A    
C34   C64   1.401041 A    
O21   Cu3   1.938699 S    
C58   C82   1.413496 A    
C47   H15   1.080942 S    
N27   O102  1.300998 A    
C138  N18   1.436336 S    
C120  C144  1.407266 A    
C62   C86   1.413055 A    
N3    O53   1.301336 A    
C25   C32   1.417744 S    
O12   C8    1.296238 A    
O1    C1    1.296336 A    
C27   C30   1.417746 S    
C109  H29   1.081981 S    
C107  C123  1.403873 A    
C144  C154  1.404332 A    
N5    O58   1.301300 A    
C68   C92   1.413050 A    
O29   Cu7   1.938699 S    
C99   H19   1.082088 S    
N6    O59   1.301336 A    
C78   C134  1.411371 A    
N22   O92   1.300987 A    
N32   O111  1.300746 A    
O40   Cu10  1.972011 S    
C112  H32   1.081975 S    
O42   Cu11  1.972008 S    
C60   C76   1.418966 A    
O22   C12   1.300032 A    
O47   Cu12  1.971895 S    
C150  C160  1.406362 A    
O10   C6    1.296361 A    
C138  C154  1.404471 A    
N24   O96   1.300973 A    
O15   Cu5   1.972015 S    
C127  C135  1.415097 A    
C59   C75   1.418989 A    
N12   O71   1.301339 A    
N28   O104  1.300992 A    
C16   C24   1.441091 S    
O5    C1    1.296671 A    
C76   C132  1.411470 A    
C121  C145  1.407574 A    
C79   C135  1.411307 A    
O48   Cu12  1.972011 S    
C80   C136  1.411459 A    
C115  C139  1.407722 A    
C28   C29   1.417786 S    
O32   Cu8   1.938609 S    
N16   O80   1.301257 A    
N7    O61   1.301336 A    
N29   O106  1.300977 A    
C141  C153  1.406392 A    
O22   Cu2   1.938826 S    
N19   O85   1.300719 A    
O21   C11   1.300090 A    
C65   C77   1.419256 A    
C117  C141  1.407690 A    
O23   Cu1   1.938736 S    
C67   C79   1.418809 A    
C112  C128  1.404181 A    
C147  N27   1.436401 S    
N25   O98   1.300973 A    
C48   H16   1.081303 S    
C50   C161  1.468348 S    
C82   C98   1.395723 A    
N26   O100  1.300977 A    
C54   C165  1.462625 S    
O3    Cu3   1.972533 S    
C73   C129  1.411468 A    
O46   C166  1.285150 A    
C69   C93   1.412981 A    
C86   C102  1.396226 A    
O8    C2    1.294532 A    
C147  C159  1.404508 A    
C42   C72   1.401013 A    
C69   C77   1.419292 A    
C63   C75   1.419362 A    
C38   H6    1.081445 S    
N9    O65   1.301330 A    
O28   Cu8   1.938824 S    
C121  C133  1.414464 A    
N27   O101  1.300793 A    
O30   Cu6   1.938826 S    
C146  N26   1.436134 S    
C84   N4    1.437212 S    
C152  N32   1.436128 S    
O43   Cu11  1.971891 S    
C55   C166  1.468866 S    
C46   C56   1.396183 A    
C75   C131  1.411457 A    
C41   C69   1.401025 A    
O40   C164  1.283105 A    
C125  C149  1.407529 A    
C114  C138  1.407332 A    
C38   C60   1.400680 A    
C43   C71   1.400959 A    
C144  N24   1.436248 S    
C145  N25   1.436144 S    
O11   Cu7   1.972533 S    
O16   C6    1.296449 A    
C40   C58   1.401005 A    
N8    O64   1.301355 A    
C84   C100  1.395874 A    
C17   C25   1.209147 T    
C95   N15   1.437229 S    
N31   O110  1.300997 A    
C103  C119  1.404333 A    
C106  H26   1.081974 S    
C94   N14   1.437202 S    
C33   C49   1.396308 A    
N23   O93   1.300756 A    
N3    O54   1.301303 A    
C71   C95   1.413538 A    
O31   Cu5   1.938736 S    
C105  H25   1.081976 S    
C12   C20   1.441032 S    
C95   C111  1.395873 A    
C13   C21   1.441055 S    
N18   O84   1.301009 A    
C124  C136  1.414188 A    
C62   C76   1.419365 A    
O17   Cu1   1.938698 S    
O46   Cu12  1.971794 S    
C83   N3    1.437208 S    
C20   C28   1.209163 T    
N2    O52   1.301344 A    
C113  C129  1.414197 A    
C93   N13   1.436934 S    
N4    O55   1.301341 A    
C146  C158  1.406372 A    
C125  C133  1.414427 A    
C150  N30   1.436207 S    
O13   Cu7   1.972014 S    
O34   Cu9   1.972008 S    
C72   C78   1.419286 A    
C3    C155  1.460128 S    
C42   H10   1.081306 S    
O2    C2    1.295452 A    
N13   O73   1.301332 A    
O39   Cu10  1.971895 S    
C1    C153  1.460200 S    
O35   C163  1.283106 A    
N17   O81   1.300760 A    
O36   Cu9   1.971798 S    
O4    Cu4   1.972024 S    
C151  C159  1.404405 A    
C103  H23   1.081930 S    
C81   C97   1.396213 A    
C94   C110  1.395892 A    
C7    C159  1.454173 S    
C123  C147  1.407385 A    
C44   C56   1.396309 A    
C81   N1    1.437071 S    
C18   C26   1.209149 T    
C26   C31   1.417759 S    
C92   N12   1.437067 S    
N21   O90   1.300982 A    
C57   C81   1.413051 A    
N14   O76   1.301299 A    
O15   C7    1.295667 A    
O44   Cu11  1.971798 S    
C45   C65   1.400979 A    
N30   O108  1.300981 A    
Cu5   Cu7   2.692118 S    
O25   Cu5   1.938698 S    
Cu6   Cu8   2.692107 S    
N19   O86   1.300982 A    
O13   C5    1.296306 A    
C92   C108  1.396183 A    
C93   C109  1.395749 A    
O7    Cu1   1.972015 S    
C67   C91   1.413607 A    
C70   C80   1.418986 A    
N1    O50   1.301278 A    
O33   Cu9   1.971930 S    
C34   H2    1.080946 S    
C44   C70   1.400726 A    
C126  C150  1.407710 A    
N20   O87   1.300724 A    
C45   H13   1.081294 S    
C48   C66   1.400982 A    
O19   C9    1.300110 A    
C122  C146  1.407529 A    
O35   Cu9   1.971891 S    
C43   C55   1.398336 A    
N5    O57   1.301341 A    
O24   C12   1.300154 A    
O28   C14   1.300116 A    
C118  C142  1.407904 A    
O12   Cu8   1.972024 S    
C36   C52   1.396200 A    
C64   C74   1.418973 A    
O47   C165  1.283566 A    
O14   Cu6   1.972541 S    
N6    O60   1.301275 A    
N32   O112  1.300976 A    
O42   C166  1.285266 A    
C142  C156  1.406740 A    
C57   C73   1.419364 A    
Cu11  Cu12  2.641965 S    
O9    C5    1.296421 A    
C59   C83   1.413032 A    
C52   C163  1.463144 S    
C21   C29   1.209162 T    
C74   C130  1.411323 A    
C148  N28   1.436224 S    
O41   Cu11  1.971930 S    
O30   C16   1.300126 A    
C56   C167  1.463101 S    
C149  N29   1.436130 S    
O48   C168  1.283669 A    
C122  C134  1.414427 A    
C11   C19   1.441096 S    
C126  C136  1.414530 A    
C87   N7    1.437058 S    
N10   O67   1.301331 A    
N12   O72   1.301276 A    
O20   Cu4   1.938824 S    
C82   N2    1.437068 S    
O20   C10   1.300273 A    
C4    C156  1.460121 S    
O38   Cu10  1.971794 S    
C24   C32   1.209146 T    
C40   C50   1.397963 A    
O10   Cu6   1.972021 S    
C104  H24   1.082217 S    
C139  N19   1.436194 S    
C115  C131  1.414525 A    
O9    Cu5   1.972529 S    
C98   H18   1.082237 S    
C120  C130  1.415131 A    
O37   C163  1.284319 A    
C37   C57   1.401706 A    
C119  C143  1.407822 A    
N29   O105  1.300739 A    
O1    Cu1   1.972529 S    
C102  H22   1.081926 S    
C43   H11   1.080959 S    
