data_mof_unit_48553.cif
_audit_creation_date              2012-10-26T19:04:21-0400
_audit_creation_method            fapswitch 2.2
_symmetry_space_group_name_H-M    P1
_symmetry_Int_Tables_number       1
_space_group_crystal_system       triclinic
_cell_length_a                    15.047089
_cell_length_b                    15.65415
_cell_length_c                    9.605154
_cell_angle_alpha                 89.912183
_cell_angle_beta                  87.541617
_cell_angle_gamma                 90.081578
_cell_volume                      2260.40068063

loop_
_atom_site_label
_atom_site_type_symbol
_atom_type_description
_atom_site_fract_x
_atom_site_fract_y
_atom_site_fract_z
_atom_type_partial_charge
C1    C     C_R   0.381562 0.879917 0.503622 0.531498
C2    C     C_R   0.709937 0.230355 0.378003 -0.150527
C3    C     C_R   0.236845 0.296011 0.383332 -0.129432
C4    C     C_R   0.209868 0.730421 0.378007 -0.150429
C5    C     C_R   0.675164 0.804524 0.494794 -0.001706
C6    C     C_R   0.665555 0.203246 0.499558 -0.022641
C7    C     C_R   0.175151 0.304516 0.494795 -0.001688
C8    C     C_R   0.165535 0.703262 0.499573 -0.022664
C9    C     C_R   0.661884 0.960929 0.127128 0.091353
C10   C     C_R   0.161888 0.460930 0.127126 0.091287
C11   C     C_R   0.724191 0.914594 0.044825 -0.162748
C12   C     C_R   0.383171 0.121177 0.503182 0.532706
C13   C     C_R   0.224212 0.414617 0.044820 -0.162801
C14   C     C_R   0.727386 0.927764 0.902630 -0.162607
C15   C     C_R   0.227400 0.427785 0.902627 -0.162665
C16   C     C_R   0.659972 0.973688 0.844043 -0.057263
C17   C     C_R   0.159976 0.473698 0.844041 -0.057305
C18   C     C_R   0.578850 0.987187 0.919308 0.161771
C19   C     C_R   0.078851 0.487187 0.919307 0.161759
C20   C     C_R   0.579235 0.984127 0.068370 0.134163
C21   C     C_R   0.079234 0.484127 0.068369 0.134176
C22   C     C_R   0.424381 0.010950 0.079062 0.015012
C23   C     C_R   0.881566 0.379914 0.503622 0.531502
C24   C     C_R   0.924381 0.510951 0.079062 0.015030
C25   C     C_R   0.610364 0.125579 0.499086 0.550243
C26   C     C_R   0.614102 0.877187 0.498250 0.567785
C27   C     C_R   0.110357 0.625584 0.499088 0.550160
C28   C     C_R   0.114098 0.377184 0.498251 0.567783
C29   C     C_R   0.424228 0.009117 0.931393 0.037918
C30   C     C_R   0.924228 0.509119 0.931393 0.037921
C31   C     C_R   0.272898 0.176720 0.768653 0.016690
C32   C     C_R   0.283387 0.812042 0.779379 0.015733
C33   C     C_R   0.772890 0.676707 0.768638 0.016693
C34   C     C_R   0.883175 0.621180 0.503181 0.532719
C35   C     C_R   0.783353 0.312083 0.779361 0.015752
C36   C     C_R   0.199810 0.164939 0.861996 -0.136301
C37   C     C_R   0.216940 0.812276 0.886165 -0.122850
C38   C     C_R   0.699793 0.664905 0.861954 -0.136298
C39   C     C_R   0.716885 0.312350 0.886113 -0.122855
C40   C     C_R   0.615471 0.690243 0.825283 -0.115279
C41   C     C_R   0.631695 0.284632 0.860940 -0.116514
C42   C     C_R   0.115486 0.190288 0.825347 -0.115287
C43   C     C_R   0.131747 0.784558 0.861020 -0.116521
C44   C     C_R   0.605954 0.736004 0.702393 -0.081592
C45   C     C_R   0.305144 0.237263 0.388909 -0.160611
C46   C     C_R   0.614446 0.249262 0.732625 -0.082566
C47   C     C_R   0.105962 0.236034 0.702445 -0.081606
C48   C     C_R   0.114473 0.749222 0.732692 -0.082572
C49   C     C_R   0.679426 0.749186 0.609440 -0.000236
C50   C     C_R   0.680567 0.246715 0.624578 0.010316
C51   C     C_R   0.179423 0.249192 0.609461 -0.000241
C52   C     C_R   0.180573 0.746701 0.624611 0.010303
C53   C     C_R   0.259106 0.204956 0.630485 0.014490
C54   C     C_R   0.261528 0.791348 0.639255 0.011522
C55   C     C_R   0.759108 0.704955 0.630475 0.014492
C56   C     C_R   0.281568 0.785064 0.383937 -0.153656
C57   C     C_R   0.761518 0.291361 0.639238 0.011543
C58   C     C_R   0.318030 0.191165 0.511537 -0.010515
C59   C     C_R   0.311068 0.814343 0.512486 -0.015824
C60   C     C_R   0.818042 0.691175 0.511537 -0.010510
C61   C     C_R   0.811086 0.314328 0.512484 -0.015820
C62   C     C_1   0.356608 0.190295 0.832355 0.194798
C63   C     C_1   0.372219 0.811539 0.829263 0.214308
C64   C     C_1   0.856589 0.690290 0.832366 0.194797
C65   C     C_1   0.872175 0.311557 0.829284 0.214346
C66   C     C_2   0.711270 0.023057 0.207569 0.609766
C67   C     C_R   0.805176 0.737292 0.388924 -0.160620
C68   C     C_2   0.211247 0.523036 0.207655 0.609908
C69   C     C_R   0.781633 0.285001 0.383939 -0.153697
C70   C     C_R   0.736880 0.796044 0.383353 -0.129472
Cu1   Cu    Cu3+1 0.499990 0.000000 0.640660 0.962940
Cu2   Cu    Cu3+1 0.999990 0.500000 0.640660 0.962884
Cu3   Cu    Cu3+1 0.500010 0.000000 0.359340 0.976717
Cu4   Cu    Cu3+1 0.000010 0.500000 0.359340 0.976708
H1    H     H_    0.349170 0.229240 0.297601 0.143232
H2    H     H_    0.861811 0.515246 0.880574 0.107944
H3    H     H_    0.208943 0.141342 0.966598 0.106674
H4    H     H_    0.232171 0.830221 0.991586 0.111248
H5    H     H_    0.708917 0.641299 0.966552 0.106680
H6    H     H_    0.732096 0.330317 0.991532 0.111247
H7    H     H_    0.558944 0.680169 0.896869 0.150530
H8    H     H_    0.580526 0.285854 0.943583 0.149226
H9    H     H_    0.058966 0.180234 0.896956 0.150549
H10   H     H_    0.080594 0.785757 0.943689 0.149215
H11   H     H_    0.541012 0.759039 0.677054 0.154063
H12   H     H_    0.313898 0.804331 0.285898 0.154509
H13   H     H_    0.548211 0.226445 0.715342 0.169593
H14   H     H_    0.041019 0.259078 0.677127 0.154098
H15   H     H_    0.048233 0.726410 0.715430 0.169621
H16   H     H_    0.732081 0.834524 0.291644 0.158333
H17   H     H_    0.687932 0.210928 0.278006 0.196886
H18   H     H_    0.232028 0.334467 0.291598 0.158350
H19   H     H_    0.187818 0.711043 0.278007 0.196842
H20   H     H_    0.362245 0.019796 0.138062 0.112810
H21   H     H_    0.862244 0.519798 0.138062 0.112822
H22   H     H_    0.784549 0.890613 0.088580 0.125391
H23   H     H_    0.849215 0.729279 0.297628 0.143228
H24   H     H_    0.284570 0.390644 0.088581 0.125449
H25   H     H_    0.785839 0.046643 0.372909 0.329107
H26   H     H_    0.285760 0.546581 0.373089 0.329109
H27   H     H_    0.814000 0.304231 0.285907 0.154551
H28   H     H_    0.785724 0.909164 0.840002 0.136914
H29   H     H_    0.285742 0.409191 0.839995 0.136911
H30   H     H_    0.673510 0.996031 0.740255 0.189626
H31   H     H_    0.173511 0.496038 0.740250 0.189626
H32   H     H_    0.361810 0.015241 0.880574 0.107943
N1    N     N_R   0.501200 0.000000 0.147910 -0.253240
N2    N     N_R   0.001200 0.500000 0.147910 -0.253234
N3    N     N_R   0.501270 0.000000 0.852040 -0.228487
N4    N     N_R   0.001270 0.500000 0.852040 -0.228498
N5    N     N_1   0.422305 0.202328 0.887336 -0.351828
N6    N     N_1   0.442161 0.811196 0.874543 -0.324091
N7    N     N_1   0.922277 0.702330 0.887370 -0.351840
N8    N     N_1   0.942109 0.311191 0.874594 -0.324126
O1    O     O_R   0.409820 0.909830 0.618810 -0.501271
O2    O     O_R   0.590170 0.909830 0.618760 -0.519241
O3    O     O_R   0.090170 0.590170 0.618760 -0.526964
O4    O     O_R   0.090170 0.409830 0.618760 -0.519258
O5    O     O_R   0.590190 0.090180 0.381190 -0.474181
O6    O     O_R   0.590190 0.909820 0.381190 -0.488013
O7    O     O_R   0.090190 0.590180 0.381190 -0.474170
O8    O     O_R   0.090190 0.409820 0.381190 -0.488039
O9    O     O_2   0.730236 0.091677 0.153509 -0.558350
O10   O     O_R   0.748571 0.999437 0.332738 -0.706836
O11   O     O_2   0.230140 0.591714 0.153721 -0.558307
O12   O     O_R   0.409820 0.090170 0.618810 -0.506236
O13   O     O_R   0.248596 0.499347 0.332762 -0.706877
O14   O     O_R   0.909820 0.409830 0.618810 -0.501279
O15   O     O_R   0.909820 0.590170 0.618810 -0.506236
O16   O     O_R   0.409840 0.909830 0.381240 -0.510487
O17   O     O_R   0.409840 0.090170 0.381240 -0.513702
O18   O     O_R   0.909840 0.409830 0.381240 -0.510485
O19   O     O_R   0.909840 0.590170 0.381240 -0.513691
O20   O     O_R   0.590170 0.090170 0.618760 -0.526928

loop_
_geom_bond_atom_site_label_1
_geom_bond_atom_site_label_2
_ccdc_geom_bond_type
C44   C49   A    
C33   C55   A    
Cu3   O17   S    
Cu3   O5    S    
C12   O17   A    
Cu4   O18   S    
H26   O13   S    
C65   N8    T    
C36   C42   A    
C18   N3    A    
C4    C8    A    
Cu1   O20   S    
C27   O7    A    
Cu2   O15   S    
C39   C41   A    
C70   H16   S    
Cu2   O14   S    
C29   N3    A    
C22   C29   A    
C26   O6    A    
C3    C7    A    
C36   H3    S    
C1    C59   S    
C11   C14   A    
C28   O8    A    
C14   H28   S    
C6    C25   S    
C12   O12   A    
C38   H5    S    
C35   C65   S    
C22   N1    A    
Cu4   O19   S    
C63   N6    T    
C13   H24   S    
C11   H22   S    
C9    C66   S    
C16   H30   S    
C62   N5    T    
C60   C67   A    
Cu2   O3    S    
C23   O18   A    
C41   C46   A    
Cu1   O12   S    
C24   N2    A    
C2    C69   A    
C43   C48   A    
C8    C52   A    
C40   C44   A    
C18   C20   A    
C20   N1    A    
C12   C58   S    
Cu3   O6    S    
C55   C60   A    
C4    C56   A    
C34   C60   S    
C43   H10   S    
C22   H20   S    
C31   C62   S    
C5    C49   A    
C2    C6    A    
C25   O5    A    
C32   C54   A    
C52   C54   A    
C24   C30   A    
C54   C59   A    
C27   O3    A    
C10   C21   A    
Cu2   N4    S    
C45   C58   A    
C34   O15   A    
Cu2   Cu4   S    
C1    O16   A    
C24   H21   S    
Cu1   Cu3   S    
C47   C51   A    
C34   O19   A    
C49   C55   A    
C3    C45   A    
C31   C53   A    
C7    C28   S    
C5    C26   S    
C3    H18   S    
C51   C53   A    
C37   C43   A    
C35   C39   A    
C5    C70   A    
C17   H31   S    
C30   H2    S    
C9    C20   A    
C56   H12   S    
C23   C61   S    
Cu1   O1    S    
C32   C37   A    
C6    C50   A    
C25   O20   A    
C9    C11   A    
C68   O13   S    
Cu4   O8    S    
C30   N4    A    
C10   C68   S    
C48   H15   S    
C13   C15   A    
C14   C16   A    
C29   H32   S    
C44   H11   S    
C46   H13   S    
C19   N4    A    
C61   C69   A    
C15   C17   A    
Cu3   O16   S    
C64   N7    T    
C19   C21   A    
C31   C36   A    
C50   C57   A    
C40   H7    S    
C42   H9    S    
C32   C63   S    
C10   C13   A    
C53   C58   A    
C57   C61   A    
C69   H27   S    
C37   H4    S    
C46   C50   A    
C33   C38   A    
C56   C59   A    
C45   H1    S    
C35   C57   A    
C67   C70   A    
C47   H14   S    
C7    C51   A    
C28   O4    A    
C39   H6    S    
C38   C40   A    
C33   C64   S    
C41   H8    S    
Cu1   N3    S    
C17   C19   A    
Cu1   O2    S    
C66   O10   S    
C42   C47   A    
C2    H17   S    
C26   O2    A    
C21   N2    A    
Cu3   N1    S    
C67   H23   S    
Cu4   N2    S    
C4    H19   S    
C48   C52   A    
Cu4   O7    S    
C16   C18   A    
Cu2   O4    S    
C8    C27   S    
C66   O9    D    
C23   O14   A    
C1    O1    A    
C15   H29   S    
C68   O11   D    
H25   O10   S    
