data_mof_unit_62135.cif
_audit_creation_date              2012-12-10T20:12:36-0500
_audit_creation_method            fapswitch 2.2
_symmetry_space_group_name_H-M    P1
_symmetry_Int_Tables_number       1
_space_group_crystal_system       triclinic
_cell_length_a                    19.343683
_cell_length_b                    18.395313
_cell_length_c                    10.860251
_cell_angle_alpha                 90.545159
_cell_angle_beta                  90.754327
_cell_angle_gamma                 90.764278
_cell_volume                      3863.57666401

loop_
_atom_site_label
_atom_site_type_symbol
_atom_type_description
_atom_site_fract_x
_atom_site_fract_y
_atom_site_fract_z
_atom_type_partial_charge
C1    C     C_R   0.365271 0.500035 0.502213 0.951346
C2    C     C_3   0.572346 0.466324 0.927844 0.579735
C3    C     C_R   0.748565 0.443478 0.465015 -0.027613
C4    C     C_R   0.744086 0.559942 0.576092 0.020363
C5    C     C_R   0.820510 0.443954 0.479207 0.355315
C6    C     C_R   0.815936 0.559864 0.589880 0.348511
C7    C     C_R   0.853537 0.502184 0.541075 -0.046601
C8    C     C_R   0.710126 0.501677 0.513226 -0.111998
C9    C     C_R   0.964216 0.544155 0.457154 0.038606
C10   C     C_R   0.963677 0.468651 0.641551 0.040023
C11   C     C_R   0.036313 0.545160 0.459374 0.373707
C12   C     C_R   0.035959 0.469231 0.643384 0.379134
C13   C     C_R   0.071671 0.506723 0.551315 -0.043555
C14   C     C_R   0.928560 0.505272 0.547419 0.112025
C15   C     C_R   0.175911 0.449450 0.470366 0.385806
C16   C     C_R   0.187353 0.555210 0.605973 0.476217
C17   C     C_R   0.502317 0.500230 0.257483 0.934081
C18   C     C_R   0.247495 0.449250 0.454535 -0.011822
C19   C     C_R   0.258646 0.555882 0.590075 0.000732
C20   C     C_R   0.289668 0.501549 0.515663 -0.182768
C21   C     C_R   0.146445 0.502467 0.545673 -0.062153
C22   C     C_R   0.552555 0.721513 0.566599 -0.090539
C23   C     C_R   0.549534 0.280940 0.574113 -0.104032
C24   C     C_R   0.559540 0.797545 0.575634 0.370918
C25   C     C_R   0.556514 0.205148 0.583708 0.376145
C26   C     C_R   0.511247 0.841801 0.515576 0.048620
C27   C     C_R   0.511700 0.158678 0.515724 -0.010214
C28   C     C_R   0.457128 0.808065 0.449085 -0.266885
C29   C     C_R   0.461394 0.190091 0.440245 -0.319995
C30   C     C_R   0.451829 0.731948 0.442819 0.546073
C31   C     C_R   0.456419 0.265928 0.433161 0.555727
C32   C     C_R   0.548136 0.961464 0.425744 0.089922
C33   C     C_R   0.548539 0.038337 0.425497 0.021414
C34   C     C_R   0.516253 0.077586 0.521063 -0.043832
C35   C     C_R   0.515787 0.922995 0.521122 -0.028531
C36   C     C_R   0.634590 0.500497 0.501975 0.967820
C37   C     C_R   0.485030 0.038879 0.617716 0.369123
C38   C     C_R   0.484867 0.962063 0.617780 0.330634
C39   C     C_R   0.499793 0.500727 0.742611 1.000211
C40   C     C_3   0.489335 0.584461 0.072184 0.305273
C41   C     C_3   0.444265 0.446443 0.069536 0.378286
C42   C     C_3   0.500971 0.586907 0.928117 0.386582
C43   C     C_3   0.432566 0.460817 0.927940 0.280224
C44   C     C_3   0.579599 0.477111 0.073918 0.111332
C45   C     C_3   0.504165 0.501753 0.121102 -0.314990
C46   C     C_3   0.501067 0.503086 0.878642 -0.356938
H1    H     H_    0.589128 0.687760 0.614083 0.176709
H2    H     H_    0.584346 0.316520 0.625750 0.234562
H3    H     H_    0.418729 0.840884 0.403038 0.213043
H4    H     H_    0.426248 0.155682 0.386517 0.217588
N1    N     N_R   0.499980 0.689440 0.500020 -0.137001
N2    N     N_R   0.499980 0.310560 0.500020 -0.167992
O1    O     O_R   0.398180 0.560840 0.500010 -0.610661
O2    O     O_R   0.398180 0.439160 0.500010 -0.569138
O3    O     O_R   0.499990 0.560810 0.314820 -0.574381
O4    O     O_R   0.499990 0.439190 0.314820 -0.559078
O5    O     O_R   0.601820 0.560790 0.500050 -0.619856
O6    O     O_R   0.601820 0.439210 0.500050 -0.615471
O7    O     O_R   0.500010 0.560810 0.685230 -0.601428
O8    O     O_R   0.500010 0.439190 0.685230 -0.624090
Zn1   Zn    Zn3+2 0.500000 0.581210 0.500040 1.037586
Zn2   Zn    Zn3+2 0.500000 0.418790 0.500040 1.038183
Cl1   Cl    Cl    0.541304 0.656684 0.148379 -0.597279
Cl2   Cl    Cl    0.466462 0.352255 0.091276 -0.508237
Cl3   Cl    Cl    0.082148 0.593047 0.345042 -0.477219
Cl4   Cl    Cl    0.081537 0.421775 0.758913 -0.466013
Cl5   Cl    Cl    0.122799 0.384187 0.392365 -0.468581
Cl6   Cl    Cl    0.149158 0.622750 0.699013 -0.390990
N3    N     N_3   0.277047 0.398301 0.371175 -0.347950
H5    H     H_    0.262654 0.346087 0.399211 0.280766
H6    H     H_    0.255889 0.406789 0.283486 0.247573
N4    N     N_3   0.298020 0.612752 0.650145 -0.296604
H7    H     H_    0.315962 0.648780 0.583806 0.266888
H8    H     H_    0.339950 0.590016 0.695748 0.279636
Cl7   Cl    Cl    0.628741 0.835355 0.662375 -0.493113
Cl8   Cl    Cl    0.621904 0.170432 0.679627 -0.448480
Cl9   Cl    Cl    0.380773 0.694186 0.363221 -0.566094
Cl10  Cl    Cl    0.393856 0.301187 0.335852 -0.500282
N5    N     N_3   0.579980 0.921778 0.327878 -0.383647
H9    H     H_    0.556412 0.936529 0.244777 0.241588
H10   H     H_    0.632125 0.937281 0.325036 0.249457
N6    N     N_3   0.581879 0.075674 0.326758 -0.410219
H11   H     H_    0.619510 0.110945 0.364481 0.234744
H12   H     H_    0.545096 0.106598 0.280225 0.228390
Cl11  Cl    Cl    0.444026 0.086765 0.737539 -0.400205
Cl12  Cl    Cl    0.444231 0.914457 0.738071 -0.397494
N7    N     N_3   0.417604 0.604637 0.098707 -0.345239
H13   H     H_    0.407188 0.597010 0.191231 0.241634
H14   H     H_    0.410632 0.660383 0.086145 0.313931
N8    N     N_3   0.379626 0.450643 0.140928 -0.375785
H15   H     H_    0.344338 0.411326 0.107516 0.280112
H16   H     H_    0.353444 0.499256 0.136652 0.224338
Cl13  Cl    Cl    0.437412 0.646068 0.854419 -0.509234
Cl14  Cl    Cl    0.354545 0.512243 0.902769 -0.564554
N9    N     N_3   0.567110 0.624196 0.900607 -0.422157
H17   H     H_    0.578182 0.622646 0.807179 0.235163
H18   H     H_    0.564089 0.679902 0.919653 0.284085
N10   N     N_3   0.414466 0.392042 0.862062 -0.341036
H19   H     H_    0.454935 0.356834 0.848235 0.283541
H20   H     H_    0.391636 0.401541 0.775911 0.233072
N11   N     N_3   0.633323 0.531968 0.106803 -0.371347
H21   H     H_    0.636916 0.577726 0.052739 0.287376
H22   H     H_    0.631389 0.546581 0.199979 0.211692
N12   N     N_3   0.606820 0.411375 0.134767 -0.358451
H23   H     H_    0.611338 0.416491 0.230278 0.204701
H24   H     H_    0.592077 0.359198 0.107999 0.306610
Cl15  Cl    Cl    0.580397 0.372714 0.880116 -0.516168
Cl16  Cl    Cl    0.648124 0.500042 0.849907 -0.582419
N13   N     N_3   0.714424 0.384982 0.399136 -0.423545
H25   H     H_    0.725242 0.336283 0.443893 0.257300
H26   H     H_    0.734271 0.382376 0.310144 0.243938
N14   N     N_3   0.705362 0.618541 0.627620 -0.407004
H27   H     H_    0.721645 0.667025 0.586959 0.247116
H28   H     H_    0.715940 0.622036 0.722134 0.272182
Cl17  Cl    Cl    0.869412 0.372160 0.416670 -0.505070
Cl18  Cl    Cl    0.858915 0.632528 0.668457 -0.506308
N15   N     N_3   0.926342 0.581330 0.362858 -0.401082
H29   H     H_    0.940671 0.560359 0.277243 0.259570
H30   H     H_    0.940085 0.636465 0.366866 0.265478
N16   N     N_3   0.925197 0.430484 0.733260 -0.375204
H31   H     H_    0.939166 0.451822 0.819753 0.259256
H32   H     H_    0.938923 0.375727 0.730192 0.266855

loop_
_geom_bond_atom_site_label_1
_geom_bond_atom_site_label_2
_ccdc_geom_bond_type
O6    Zn2   S    
C15   C18   A    
N7    H13   S    
N11   H21   S    
C27   C29   A    
C42   Cl13  S    
C9    N15   S    
C19   C20   A    
N1    Zn1   S    
C43   N10   S    
C31   N2    A    
C4    C8    A    
N12   H24   S    
C44   N12   S    
C2    C46   S    
C16   C21   A    
C40   Cl1   S    
C38   Cl12  S    
C40   N7    S    
C37   Cl11  S    
C30   N1    A    
C24   C26   A    
C36   O6    A    
N15   H30   S    
C42   C46   S    
N10   H19   S    
C34   C37   A    
C2    Cl15  S    
C43   Cl14  S    
O8    Zn2   S    
C8    C36   S    
C2    Cl16  S    
N3    H6    S    
C1    O1    A    
N14   H27   S    
N6    H12   S    
C30   Cl9   S    
O1    Zn1   S    
C7    C14   S    
N9    H17   S    
C2    C44   S    
C16   Cl6   S    
C33   N6    S    
C17   O3    A    
C18   C20   A    
C18   N3    S    
C40   C42   S    
C22   H1    S    
C4    N14   S    
C39   O7    A    
N11   H22   S    
C5    Cl17  S    
C41   C43   S    
C19   N4    S    
N14   H28   S    
N12   H23   S    
N16   H32   S    
C29   H4    S    
C27   C34   S    
C40   C45   S    
O7    Zn1   S    
C42   N9    S    
C32   C35   A    
C35   C38   A    
N4    H8    S    
C3    C8    A    
C10   C14   A    
N5    H10   S    
C9    C14   A    
O2    Zn2   S    
C12   Cl4   S    
C23   N2    A    
C1    O2    A    
C37   C38   A    
C28   H3    S    
N8    H16   S    
C15   Cl5   S    
C33   C34   A    
C13   C21   S    
C9    C11   A    
C17   O4    A    
C6    Cl18  S    
C10   C12   A    
C39   C46   S    
C4    C6    A    
C36   O5    A    
N10   H20   S    
N7    H14   S    
O4    Zn2   S    
N16   H31   S    
C31   Cl10  S    
C5    C7    A    
C1    C20   S    
C23   H2    S    
C44   C45   S    
C17   C45   S    
N4    H7    S    
C3    C5    A    
C44   N11   S    
N9    H18   S    
C24   Cl7   S    
O5    Zn1   S    
C6    C7    A    
C25   C27   A    
C26   C28   A    
C25   Cl8   S    
C32   C33   A    
N13   H26   S    
C29   C31   A    
N2    Zn2   S    
N15   H29   S    
C32   N5    S    
C11   C13   A    
N8    H15   S    
C3    N13   S    
C16   C19   A    
C39   O8    A    
O3    Zn1   S    
C28   C30   A    
C41   N8    S    
C22   C24   A    
C23   C25   A    
N3    H5    S    
C43   C46   S    
C10   N16   S    
N5    H9    S    
C26   C35   S    
C15   C21   A    
C12   C13   A    
N6    H11   S    
C41   C45   S    
C41   Cl2   S    
N13   H25   S    
C11   Cl3   S    
C22   N1    A    
