data_mof_unit_44804.cif
_audit_creation_date              2012-10-26T20:17:39-0400
_audit_creation_method            fapswitch 2.2
_symmetry_space_group_name_H-M    P1
_symmetry_Int_Tables_number       1
_space_group_crystal_system       triclinic
_cell_length_a                    27.707151
_cell_length_b                    8.724793
_cell_length_c                    7.416012
_cell_angle_alpha                 102.132271
_cell_angle_beta                  94.289946
_cell_angle_gamma                 93.10175
_cell_volume                      1743.29989493

loop_
_atom_site_label
_atom_site_type_symbol
_atom_type_description
_atom_site_fract_x
_atom_site_fract_y
_atom_site_fract_z
_atom_type_partial_charge
C1    C     C_R   0.495776 0.200565 0.456101 0.561335
C2    C     C_R   0.873860 0.434608 0.617819 0.019337
C3    C     C_R   0.355570 0.514238 0.509646 0.000310
C4    C     C_R   0.645078 0.501536 0.492874 -0.014613
C5    C     C_R   0.976738 0.456460 0.639454 0.011952
C6    C     C_R   0.025178 0.586614 0.373682 0.012261
C7    C     C_R   0.973603 0.577221 0.365594 0.012059
C8    C     C_R   0.028291 0.469804 0.650551 0.012132
C9    C     C_R   0.949741 0.511865 0.498335 0.030920
C10   C     C_R   0.052161 0.532941 0.516226 0.031858
C11   C     C_R   0.950924 0.388008 0.764134 -0.151053
C12   C     C_R   0.503582 0.799370 0.544491 0.544632
C13   C     C_R   0.051048 0.648466 0.244039 -0.153141
C14   C     C_R   0.900608 0.377047 0.752799 -0.122890
C15   C     C_R   0.101370 0.655513 0.252698 -0.128084
C16   C     C_R   0.407765 0.503575 0.502740 0.535889
C17   C     C_R   0.592409 0.500669 0.497784 0.539161
C18   C     C_R   0.057135 0.422200 0.792157 -0.153361
C19   C     C_R   0.944711 0.630765 0.228622 -0.149978
C20   C     C_2   0.485906 0.035382 0.443077 -0.030108
C21   C     C_2   0.512516 0.964779 0.560443 -0.032069
C22   C     C_R   0.181720 0.493636 0.665415 0.390923
C23   C     C_R   0.103710 0.541585 0.523938 -0.029772
C24   C     C_R   0.820063 0.555789 0.354473 0.394997
C25   C     C_R   0.178882 0.603205 0.396764 0.381497
C26   C     C_R   0.823028 0.427737 0.608696 0.378074
C27   C     C_R   0.287701 0.654799 0.627279 -0.067937
C28   C     C_R   0.715233 0.401425 0.346084 -0.073067
C29   C     C_R   0.337619 0.643876 0.623120 -0.156448
C30   C     C_R   0.665141 0.404062 0.347116 -0.167767
C31   C     C_R   0.323516 0.394354 0.403425 -0.137464
C32   C     C_R   0.675401 0.600321 0.634782 -0.130502
C33   C     C_R   0.273443 0.398848 0.415391 0.045261
C34   C     C_R   0.898183 0.502116 0.490194 -0.030082
C35   C     C_R   0.726192 0.603847 0.632066 0.045047
C36   C     C_R   0.255475 0.533335 0.523662 0.258189
C37   C     C_R   0.745860 0.498996 0.487884 0.241120
C38   C     C_3   0.240598 0.256171 0.319981 -0.260913
C39   C     C_3   0.230773 0.251786 0.113358 -0.280788
C40   C     C_3   0.200390 0.102690 0.014069 -0.445055
C41   C     C_3   0.760281 0.718673 0.775477 -0.233137
C42   C     C_3   0.735797 0.844326 0.908540 -0.310973
C43   C     C_3   0.773385 0.961410 0.033749 -0.422396
C44   C     C_3   0.442396 0.950750 0.311491 -0.253405
C45   C     C_R   0.131053 0.489410 0.664334 0.021930
C46   C     C_3   0.400286 0.053394 0.283639 -0.319191
C47   C     C_3   0.356135 0.953288 0.176026 -0.453458
C48   C     C_3   0.556137 0.042218 0.695090 -0.250265
C49   C     C_3   0.599642 0.085418 0.593866 -0.301016
C50   C     C_3   0.640811 0.174226 0.730746 -0.433869
C51   C     C_R   0.870777 0.560032 0.354612 0.024108
C52   C     C_R   0.107388 0.431634 0.798299 -0.124482
C53   C     C_R   0.894443 0.622880 0.224162 -0.121273
C54   C     C_R   0.128085 0.601410 0.390605 0.016296
Cu1   Cu    Cu3+1 0.505380 0.517380 0.684380 0.924494
Cu2   Cu    Cu3+1 0.494620 0.482620 0.315620 0.922101
H1    H     H_    0.337568 0.294961 0.315767 0.103770
H2    H     H_    0.273955 0.756954 0.712239 0.122112
H3    H     H_    0.882731 0.324401 0.852401 0.163769
H4    H     H_    0.119275 0.702545 0.148925 0.164976
H5    H     H_    0.968260 0.340022 0.872436 0.113128
H6    H     H_    0.033731 0.691660 0.131834 0.113754
H7    H     H_    0.042284 0.377483 0.902352 0.114284
H8    H     H_    0.959542 0.680885 0.122261 0.113207
H9    H     H_    0.219975 0.997029 0.026353 0.171660
H10   H     H_    0.164980 0.095968 0.074100 0.153795
H11   H     H_    0.193449 0.104094 0.865001 0.172024
H12   H     H_    0.658783 0.675848 0.744207 0.113914
H13   H     H_    0.210671 0.355115 0.096978 0.244574
H14   H     H_    0.265562 0.257279 0.048546 0.183785
H15   H     H_    0.257958 0.148212 0.339939 0.145080
H16   H     H_    0.205515 0.254543 0.382951 0.163762
H17   H     H_    0.798149 0.899644 0.114424 0.192297
H18   H     H_    0.795017 0.026319 0.949840 0.170710
H19   H     H_    0.754675 0.047367 0.132101 0.146636
H20   H     H_    0.712331 0.909912 0.827889 0.157865
H21   H     H_    0.713291 0.787296 0.997374 0.182938
H22   H     H_    0.782079 0.651402 0.859290 0.212909
H23   H     H_    0.462404 0.377111 0.948577 0.239595
H24   H     H_    0.785652 0.780065 0.700105 0.153040
H25   H     H_    0.366140 0.886005 0.041238 0.158814
H26   H     H_    0.341844 0.869935 0.257041 0.176634
H27   H     H_    0.326951 0.029593 0.148272 0.138460
H28   H     H_    0.389938 0.114732 0.420885 0.155144
H29   H     H_    0.411144 0.142017 0.203980 0.193157
H30   H     H_    0.455442 0.900081 0.174894 0.170149
H31   H     H_    0.426025 0.853761 0.368027 0.171455
H32   H     H_    0.628992 0.288226 0.805402 0.179281
H33   H     H_    0.652027 0.103825 0.833167 0.136117
H34   H     H_    0.537616 0.622816 0.051424 0.239639
H35   H     H_    0.672533 0.197881 0.655027 0.173203
H36   H     H_    0.613070 0.976019 0.513595 0.152322
H37   H     H_    0.589193 0.159755 0.495173 0.175875
H38   H     H_    0.545966 0.143978 0.798329 0.182725
H39   H     H_    0.568951 0.959713 0.781057 0.143052
H40   H     H_    0.127657 0.392323 0.908799 0.157916
H41   H     H_    0.874144 0.666784 0.117323 0.154025
H42   H     H_    0.642053 0.327325 0.236560 0.120298
H43   H     H_    0.362227 0.737857 0.704825 0.109464
H44   H     H_    0.730465 0.323500 0.234513 0.132400
N1    N     N_R   0.204318 0.546355 0.530502 -0.399498
N2    N     N_R   0.797415 0.493012 0.482688 -0.401309
N3    N     N_2   0.486510 0.456430 0.038510 -0.259876
N4    N     N_2   0.513490 0.543570 0.961490 -0.260719
O1    O     O_R   0.503500 0.286120 0.619780 -0.513793
O2    O     O_2   0.793603 0.615644 0.228944 -0.526594
O3    O     O_2   0.799321 0.357709 0.725745 -0.516172
O4    O     O_2   0.202652 0.659559 0.269340 -0.506577
O5    O     O_R   0.496500 0.713880 0.380220 -0.516008
O6    O     O_R   0.494410 0.256780 0.308360 -0.508991
O7    O     O_R   0.505590 0.743220 0.691640 -0.506700
O8    O     O_R   0.434810 0.514700 0.655690 -0.498131
O9    O     O_R   0.565190 0.485300 0.344310 -0.502177
O10   O     O_R   0.425720 0.485350 0.344280 -0.505228
O11   O     O_R   0.574280 0.514650 0.655720 -0.505766
O12   O     O_2   0.208294 0.442478 0.797631 -0.523501

loop_
_geom_bond_atom_site_label_1
_geom_bond_atom_site_label_2
_ccdc_geom_bond_type
C43   H17   S    
Cu1   Cu2   S    
C23   C45   A    
C48   H39   S    
Cu1   O8    S    
C27   C29   A    
C15   H4    S    
C25   N1    A    
C41   H24   S    
C17   O9    A    
C14   H3    S    
C17   O11   A    
C34   C51   A    
C22   N1    A    
C48   H38   S    
Cu1   O1    S    
C35   C37   A    
C5    C11   A    
C37   N2    S    
C11   C14   A    
C18   H7    S    
C33   C36   A    
C41   C42   S    
C47   H26   S    
C3    C29   A    
C46   C47   S    
C13   H6    S    
C40   H11   S    
Cu2   O9    S    
C31   C33   A    
C47   H27   S    
C44   H31   S    
C50   H32   S    
C32   H12   S    
C21   C48   S    
C19   C53   A    
C24   C51   A    
C22   O12   S    
C40   H10   S    
C31   H1    S    
H23   N3    S    
C44   H30   S    
Cu2   O6    S    
C12   O5    A    
C20   C44   S    
C44   C46   S    
C43   H19   S    
C38   H16   S    
C29   H43   S    
C18   C52   A    
C32   C35   A    
C25   C54   A    
C39   C40   S    
C45   C52   A    
C53   H41   S    
Cu1   N4    S    
C8    C18   A    
C36   N1    S    
C51   C53   A    
C15   C54   A    
C5    C9    A    
C1    O6    A    
C50   H33   S    
C19   H8    S    
C39   H13   S    
C2    C26   A    
C3    C31   A    
H34   N4    S    
C4    C32   A    
C35   C41   S    
C46   H28   S    
C4    C17   S    
C48   C49   S    
C7    C19   A    
C40   H9    S    
C13   C15   A    
C9    C34   A    
C10   C23   A    
C24   O2    S    
C42   C43   S    
C49   H36   S    
Cu2   O5    S    
C41   H22   S    
C16   O8    A    
C23   C54   A    
C7    C9    A    
C38   H15   S    
C1    C20   S    
Cu1   O7    S    
C2    C34   A    
Cu2   N3    S    
C11   H5    S    
C27   H2    S    
C16   O10   A    
C26   O3    S    
C6    C10   A    
C5    C8    A    
C6    C7    A    
C27   C36   A    
C30   H42   S    
C42   H20   S    
C33   C38   S    
C46   H29   S    
C28   C30   A    
C26   N2    A    
C6    C13   A    
C28   H44   S    
C38   C39   S    
Cu1   O11   S    
C28   C37   A    
C43   H18   S    
C12   C21   S    
C39   H14   S    
C52   H40   S    
C24   N2    A    
C47   H25   S    
C2    C14   A    
C50   H35   S    
C22   C45   A    
C20   C21   D    
C42   H21   S    
C8    C10   A    
C49   C50   S    
N3    N4    D    
Cu2   O10   S    
C49   H37   S    
C12   O7    A    
C4    C30   A    
C3    C16   S    
C25   O4    S    
C1    O1    A    
