data_mof_unit_65293.cif
_audit_creation_date              2012-12-10T17:28:57-0500
_audit_creation_method            fapswitch 2.2
_symmetry_space_group_name_H-M    P1
_symmetry_Int_Tables_number       1
_space_group_crystal_system       triclinic
_cell_length_a                    18.706166
_cell_length_b                    18.760102
_cell_length_c                    18.606958
_cell_angle_alpha                 109.341151
_cell_angle_beta                  109.414185
_cell_angle_gamma                 109.730501
_cell_volume                      5022.05850354

loop_
_atom_site_label
_atom_site_type_symbol
_atom_type_description
_atom_site_fract_x
_atom_site_fract_y
_atom_site_fract_z
_atom_type_partial_charge
C1    C     C_R   0.619414 0.499655 0.620200 0.820291
C2    C     C_R   0.380584 0.500344 0.379800 0.820268
C3    C     C_3   0.257041 0.223931 0.409515 -0.335888
C4    C     C_3   0.742749 0.776159 0.590345 -0.335579
C5    C     C_3   0.308947 0.311247 0.498100 0.072556
C6    C     C_3   0.691047 0.688750 0.501891 0.072612
C7    C     C_3   0.188582 0.189528 0.499549 0.109464
C8    C     C_3   0.811419 0.810451 0.500429 0.109354
C9    C     C_3   0.172899 0.268021 0.513747 -0.342927
C10   C     C_3   0.827243 0.732065 0.486503 -0.342674
C11   C     C_3   0.186268 0.152069 0.410037 0.253112
C12   C     C_3   0.813561 0.847994 0.589837 0.252983
C13   C     C_3   0.709462 0.559154 0.783069 -0.393825
C14   C     C_3   0.290523 0.440831 0.216929 -0.393817
C15   C     C_3   0.777862 0.553840 0.852072 -0.437089
C16   C     C_3   0.222129 0.446150 0.147926 -0.437090
C17   C     C_3   0.657184 0.403177 0.671375 0.254730
C18   C     C_3   0.342821 0.596818 0.328614 0.254738
C19   C     C_3   0.773123 0.532037 0.684154 -0.483204
C20   C     C_3   0.226880 0.467977 0.315855 -0.483192
C21   C     C_3   0.687700 0.498597 0.688807 0.058850
C22   C     C_3   0.312299 0.501401 0.311192 0.058850
C23   C     C_R   0.378145 0.380106 0.498195 0.786333
C24   C     C_R   0.621847 0.619894 0.501797 0.786335
C25   C     C_3   0.810340 0.496325 0.807737 0.066977
C26   C     C_3   0.189660 0.503675 0.192263 0.066970
C27   C     C_3   0.729482 0.401230 0.741488 -0.050410
C28   C     C_3   0.270522 0.598767 0.258505 -0.050410
C29   C     C_3   0.846602 0.535685 0.757307 -0.363725
C30   C     C_3   0.153400 0.464325 0.242700 -0.363717
C31   C     C_3   0.999404 0.311839 0.809746 0.040685
C32   C     C_3   0.000593 0.688162 0.190252 0.040685
C33   C     C_R   0.001457 0.121058 0.620386 0.835056
C34   C     C_R   0.998540 0.878939 0.379614 0.835074
C35   C     C_R   0.120088 0.120500 0.500354 0.755026
C36   C     C_R   0.879912 0.879479 0.499626 0.754839
C37   C     C_R   0.002021 0.619807 0.122062 0.840662
C38   C     C_R   0.997976 0.380193 0.877936 0.840657
C39   C     C_R   0.879957 0.497893 0.877881 0.780154
C40   C     C_R   0.120043 0.502108 0.122119 0.780163
C41   C     C_3   0.908517 0.156360 0.679078 -0.054086
C42   C     C_3   0.091469 0.843657 0.320897 -0.054070
C43   C     C_3   0.070589 0.217637 0.785477 0.190692
C44   C     C_3   0.929376 0.782331 0.214525 0.190694
C45   C     C_3   0.018390 0.342068 0.744922 -0.020610
C46   C     C_3   0.981649 0.657948 0.255100 -0.020632
C47   C     C_3   0.073398 0.293836 0.857327 0.254074
C48   C     C_3   0.926569 0.706133 0.142675 0.254085
C49   C     C_3   0.908631 0.225425 0.753307 -0.486765
C50   C     C_3   0.091352 0.774593 0.246664 -0.486744
C51   C     C_3   0.002404 0.190387 0.690069 -0.012299
C52   C     C_3   0.997593 0.809611 0.309932 -0.012291
C53   C     C_3   0.024575 0.271986 0.678054 -0.480184
C54   C     C_3   0.975465 0.728028 0.321971 -0.480186
C55   C     C_3   0.352314 0.295654 0.573486 -0.389805
C56   C     C_3   0.647716 0.704117 0.426304 -0.390052
C57   C     C_3   0.281900 0.224152 0.574457 -0.454743
C58   C     C_3   0.718128 0.775642 0.425354 -0.454703
C59   C     C_3   0.242945 0.339055 0.511658 -0.373095
C60   C     C_3   0.757221 0.661068 0.488652 -0.373188
Cu1   Cu    Cu3+1 0.499950 0.562450 0.562440 0.935544
Cu2   Cu    Cu3+1 0.500050 0.437550 0.437560 0.935537
Cu3   Cu    Cu3+1 0.062480 0.999960 0.562430 0.973263
Cu4   Cu    Cu3+1 0.937520 0.000040 0.437570 0.973337
Cu5   Cu    Cu3+1 0.062470 0.562430 0.999950 0.945034
Cu6   Cu    Cu3+1 0.937530 0.437570 0.000050 0.945060
H1    H     H_    0.082213 0.403830 0.782553 0.180532
H2    H     H_    0.917837 0.596178 0.217488 0.180532
H3    H     H_    0.226623 0.234494 0.354308 0.187678
H4    H     H_    0.773108 0.765753 0.645700 0.187761
H5    H     H_    0.302270 0.201510 0.397984 0.143125
H6    H     H_    0.697390 0.798506 0.601619 0.143100
H7    H     H_    0.202166 0.098816 0.402700 0.083800
H8    H     H_    0.797606 0.901192 0.597000 0.083923
H9    H     H_    0.210602 0.350070 0.457562 0.158597
H10   H     H_    0.789568 0.650255 0.542919 0.158562
H11   H     H_    0.106657 0.246432 0.461902 0.212000
H12   H     H_    0.893486 0.753786 0.538451 0.212006
H13   H     H_    0.649503 0.541552 0.788999 0.173472
H14   H     H_    0.350478 0.458417 0.210993 0.173486
H15   H     H_    0.736258 0.627982 0.797063 0.188976
H16   H     H_    0.263718 0.372005 0.202942 0.188966
H17   H     H_    0.834030 0.620863 0.902152 0.199718
H18   H     H_    0.165958 0.379129 0.097845 0.199712
H19   H     H_    0.748499 0.526599 0.886624 0.176057
H20   H     H_    0.251496 0.473389 0.113375 0.176054
H21   H     H_    0.090731 0.300661 0.685258 0.128394
H22   H     H_    0.909320 0.699342 0.314789 0.128389
H23   H     H_    0.702387 0.377147 0.779077 0.182178
H24   H     H_    0.297613 0.622845 0.220910 0.182183
H25   H     H_    0.761602 0.488216 0.618984 0.173622
H26   H     H_    0.238409 0.511811 0.381026 0.173630
H27   H     H_    0.794384 0.598300 0.691469 0.172901
H28   H     H_    0.205617 0.401719 0.308552 0.172904
H29   H     H_    0.899528 0.605168 0.803680 0.198766
H30   H     H_    0.100472 0.394842 0.196332 0.198776
H31   H     H_    0.876642 0.501051 0.728918 0.160239
H32   H     H_    0.123363 0.498964 0.271088 0.160244
H33   H     H_    0.646502 0.362978 0.605330 0.168343
H34   H     H_    0.353517 0.637028 0.394662 0.168345
H35   H     H_    0.890904 0.199813 0.794364 0.198353
H36   H     H_    0.109047 0.800195 0.205589 0.198340
H37   H     H_    0.978717 0.252151 0.609637 0.208094
H38   H     H_    0.021346 0.747882 0.390388 0.208103
H39   H     H_    0.863571 0.147125 0.615399 0.185151
H40   H     H_    0.136439 0.852913 0.384577 0.185134
H41   H     H_    0.855078 0.237673 0.723873 0.162952
H42   H     H_    0.144925 0.762366 0.276092 0.162958
H43   H     H_    0.047111 0.159263 0.793067 0.147922
H44   H     H_    0.952824 0.840695 0.206914 0.147917
H45   H     H_    0.389899 0.357247 0.637878 0.186198
H46   H     H_    0.610306 0.642465 0.361995 0.186184
H47   H     H_    0.399428 0.275086 0.564537 0.215858
H48   H     H_    0.600453 0.724562 0.435005 0.215933
H49   H     H_    0.295872 0.169692 0.566396 0.186173
H50   H     H_    0.704037 0.830011 0.433236 0.186247
H51   H     H_    0.285691 0.251396 0.639495 0.192703
H52   H     H_    0.714476 0.748369 0.360388 0.192594
H53   H     H_    0.277708 0.401566 0.574579 0.181432
H54   H     H_    0.722605 0.598476 0.425851 0.181391
H55   H     H_    0.175557 0.296062 0.578131 0.130650
H56   H     H_    0.824673 0.703942 0.422176 0.130666
O1    O     O_R   0.591120 0.552750 0.643890 -0.594571
O2    O     O_R   0.408880 0.447250 0.356110 -0.594573
O3    O     O_R   0.947240 0.538460 0.091150 -0.586907
O4    O     O_R   0.052760 0.461540 0.908850 -0.586925
O5    O     O_R   0.961590 0.552710 0.908800 -0.588506
O6    O     O_R   0.038410 0.447290 0.091200 -0.588495
O7    O     O_R   0.856080 0.447270 0.908890 -0.593697
O8    O     O_R   0.143920 0.552730 0.091110 -0.593700
O9    O     O_R   0.591210 0.447270 0.538420 -0.595977
O10   O     O_R   0.408790 0.552730 0.461580 -0.595984
O11   O     O_R   0.408810 0.461590 0.552740 -0.593242
O12   O     O_R   0.591190 0.538410 0.447260 -0.593233
O13   O     O_R   0.408900 0.356100 0.447280 -0.588048
O14   O     O_R   0.591100 0.643900 0.552720 -0.588062
O15   O     O_R   0.052750 0.091090 0.643890 -0.550994
O16   O     O_R   0.947250 0.908910 0.356110 -0.551003
O17   O     O_R   0.947230 0.091150 0.538450 -0.601886
O18   O     O_R   0.052770 0.908850 0.461550 -0.601914
O19   O     O_R   0.143910 0.091120 0.552710 -0.592857
O20   O     O_R   0.856090 0.908880 0.447290 -0.592820
O21   O     O_R   0.038380 0.091180 0.447270 -0.568432
O22   O     O_R   0.961620 0.908820 0.552730 -0.568606
O23   O     O_R   0.052740 0.643910 0.091070 -0.584801
O24   O     O_R   0.947260 0.356090 0.908930 -0.584776
O25   O     O_3   0.103564 0.120013 0.339209 -0.722286
H57   H     H_    0.070129 0.055782 0.314098 0.332281
O26   O     O_3   0.896221 0.880167 0.660802 -0.722353
H58   H     H_    0.929686 0.944362 0.685709 0.332362
O27   O     O_3   0.575964 0.364921 0.667508 -0.768697
H59   H     H_    0.584628 0.394249 0.727338 0.316771
O28   O     O_3   0.424033 0.635057 0.332463 -0.768740
H60   H     H_    0.415357 0.605718 0.272630 0.316781
N1    N     N_3   0.752590 0.338751 0.698111 -0.615482
H61   H     H_    0.799435 0.336065 0.745323 0.212897
H62   H     H_    0.779005 0.358049 0.661932 0.210399
N2    N     N_3   0.247425 0.661255 0.301887 -0.615491
H63   H     H_    0.200581 0.663945 0.254678 0.212907
H64   H     H_    0.221014 0.641962 0.338071 0.210414
N3    N     N_3   0.873820 0.071274 0.674618 -0.640014
H65   H     H_    0.807086 0.046562 0.654134 0.223972
H66   H     H_    0.903656 0.078369 0.736921 0.206169
N4    N     N_3   0.126128 0.928736 0.325336 -0.639990
H67   H     H_    0.192860 0.953467 0.345805 0.223942
H68   H     H_    0.096265 0.921627 0.263029 0.206099
N5    N     N_3   0.953214 0.361090 0.698118 -0.602865
H69   H     H_    0.945711 0.405037 0.742707 0.206640
H70   H     H_    0.892224 0.304291 0.653367 0.226832
N6    N     N_3   0.046853 0.638951 0.301901 -0.602881
H71   H     H_    0.054344 0.594997 0.257307 0.206625
H72   H     H_    0.107840 0.695758 0.346628 0.226840
O29   O     O_3   0.155144 0.236634 0.798419 -0.727287
H73   H     H_    0.171013 0.270007 0.769409 0.317067
O30   O     O_3   0.844824 0.763317 0.201605 -0.727308
H74   H     H_    0.828987 0.729962 0.230641 0.317048
N7    N     N_3   0.058150 0.268506 0.920391 -0.593762
H75   H     H_    0.109513 0.260428 0.953668 0.211553
H76   H     H_    0.001939 0.207567 0.888242 0.189280
N8    N     N_3   0.941774 0.731446 0.079588 -0.593810
H77   H     H_    0.890392 0.739506 0.046317 0.211548
H78   H     H_    0.997972 0.792391 0.111716 0.189256
N9    N     N_3   0.159831 0.374766 0.908170 -0.566910
H79   H     H_    0.181161 0.389754 0.867205 0.203209
H80   H     H_    0.207300 0.366384 0.947883 0.242499
N10   N     N_3   0.840149 0.625191 0.091860 -0.566880
H81   H     H_    0.818843 0.610213 0.132844 0.203214
H82   H     H_    0.792658 0.633550 0.052145 0.242498

loop_
_geom_bond_atom_site_label_1
_geom_bond_atom_site_label_2
_ccdc_geom_bond_type
C58   H50   S    
C13   H13   S    
C1    C21   S    
C4    H4    S    
C12   H8    S    
N1    H62   S    
C32   C48   S    
Cu3   O18   S    
C9    C59   S    
C3    H5    S    
O25   H57   S    
C42   C50   S    
C44   O30   S    
C16   H18   S    
C43   C51   S    
Cu2   O2    S    
Cu5   O8    S    
C10   H12   S    
Cu1   O11   S    
C49   H41   S    
C20   C30   S    
O29   H73   S    
C7    C11   S    
C20   H26   S    
C41   H39   S    
Cu5   O5    S    
C54   H38   S    
N4    H67   S    
C3    H3    S    
C33   O17   A    
Cu3   O22   S    
C41   N3    S    
N9    H80   S    
C49   H35   S    
C42   N4    S    
C15   C25   S    
N6    H71   S    
C40   O6    A    
C13   H15   S    
C58   H52   S    
C14   C22   S    
C8    C36   S    
C34   O18   A    
C36   O20   A    
C38   O24   A    
C20   H28   S    
C34   C52   S    
Cu1   O10   S    
N3    H66   S    
C46   H2    S    
N2    H64   S    
C33   O15   A    
N7    H76   S    
C2    C22   S    
C9    H55   S    
O27   H59   S    
C26   C40   S    
C60   H54   S    
C14   H14   S    
C4    C12   S    
C43   C47   S    
C19   H27   S    
Cu4   O17   S    
C15   H19   S    
Cu6   O7    S    
C32   C46   S    
C44   C52   S    
N10   H81   S    
C45   C53   S    
C31   C47   S    
C16   H20   S    
Cu3   O15   S    
C17   O27   S    
C18   H34   S    
C31   C49   S    
C5    C55   S    
C12   O26   S    
C41   C49   S    
C38   O4    A    
N8    H78   S    
N3    H65   S    
C37   O3    A    
C56   C58   S    
C25   C29   S    
C39   O5    A    
C23   O11   A    
C17   C27   S    
C6    C60   S    
C18   C28   S    
C4    C6    S    
C11   H7    S    
N5    H69   S    
C29   H29   S    
C5    C59   S    
Cu4   O16   S    
C39   O7    A    
C10   H56   S    
C34   O16   A    
C17   C21   S    
C46   N6    S    
N5    H70   S    
C51   C53   S    
Cu2   O13   S    
C10   C60   S    
N9    H79   S    
C1    O1    A    
C48   N10   S    
C45   N5    S    
C2    O10   A    
O30   H74   S    
C5    C23   S    
C8    C12   S    
C3    C11   S    
C6    C24   S    
C46   C54   S    
C4    H6    S    
C28   N2    S    
Cu3   O19   S    
C13   C21   S    
C53   H21   S    
C9    H11   S    
C32   C37   S    
C42   H40   S    
C32   C50   S    
C18   O28   S    
C29   H31   S    
C35   O19   A    
C47   N9    S    
C20   C22   S    
C43   H43   S    
C50   H36   S    
C55   C57   S    
N2    H63   S    
C14   C16   S    
C33   C51   S    
C14   H16   S    
N10   H82   S    
C19   C29   S    
C59   H9    S    
C48   N8    S    
N8    H77   S    
C57   H51   S    
C24   O12   A    
C7    C9    S    
C40   O8    A    
C59   H53   S    
C55   H45   S    
C18   C22   S    
C7    C35   S    
Cu2   O9    S    
C50   H42   S    
C6    C56   S    
C3    C5    S    
C16   C26   S    
C24   O14   A    
C15   H17   S    
Cu6   O3    S    
C26   C30   S    
C45   H1    S    
Cu4   O21   S    
C2    O2    A    
C25   C27   S    
C55   H47   S    
C30   H32   S    
C26   C28   S    
C31   C38   S    
C23   O13   A    
Cu1   O1    S    
Cu5   O4    S    
Cu2   O12   S    
C13   C15   S    
C36   O22   A    
C47   N7    S    
C56   H46   S    
O26   H58   S    
C25   C39   S    
C54   H22   S    
C43   O29   S    
C11   O25   S    
Cu4   O20   S    
C57   H49   S    
C53   H37   S    
C1    O9    A    
N4    H68   S    
C60   H10   S    
C52   C54   S    
C27   H23   S    
Cu5   Cu6   S    
C17   H33   S    
Cu1   Cu2   S    
C7    C57   S    
Cu6   O24   S    
C19   H25   S    
C30   H30   S    
Cu3   Cu4   S    
C8    C58   S    
C8    C10   S    
N7    H75   S    
C31   C45   S    
C42   C52   S    
N1    H61   S    
C56   H48   S    
C28   H24   S    
N6    H72   S    
C37   O23   A    
O28   H60   S    
Cu6   O6    S    
Cu5   O23   S    
C41   C51   S    
C44   C48   S    
Cu1   O14   S    
C35   O21   A    
C19   C21   S    
C27   N1    S    
C44   H44   S    
