data_mof_unit_13328.cif
_audit_creation_date              2012-12-11T15:34:56-0500
_audit_creation_method            fapswitch 2.2
_symmetry_space_group_name_H-M    P1
_symmetry_Int_Tables_number       1
_space_group_crystal_system       triclinic
_cell_length_a                    29.845532
_cell_length_b                    7.255142
_cell_length_c                    26.540225
_cell_angle_alpha                 89.999602
_cell_angle_beta                  112.458989
_cell_angle_gamma                 90.000222
_cell_volume                      5310.96964506

loop_
_atom_site_label
_atom_site_type_symbol
_atom_type_description
_atom_site_fract_x
_atom_site_fract_y
_atom_site_fract_z
_atom_type_partial_charge
O1    O     O_R   0.295360 0.592990 0.320420 -0.536960
O2    O     O_R   0.704640 0.407010 0.679580 -0.526864
O3    O     O_R   0.204640 0.092990 0.179580 -0.536958
O4    O     O_R   0.795360 0.907010 0.820420 -0.526886
O5    O     O_R   0.294060 0.265620 0.213230 -0.527554
O6    O     O_R   0.705940 0.734380 0.786770 -0.545173
O7    O     O_R   0.205940 0.765620 0.286770 -0.527554
O8    O     O_R   0.794060 0.234380 0.713230 -0.545139
C1    C     C_R   0.303152 0.432105 0.198603 0.744768
C2    C     C_R   0.696205 0.568194 0.800680 0.733378
C3    C     C_R   0.196849 0.932105 0.301398 0.744744
C4    C     C_R   0.803795 0.068195 0.699321 0.733425
O9    O     O_R   0.300850 0.263360 0.322080 -0.530766
O10   O     O_R   0.699150 0.736640 0.677920 -0.538579
O11   O     O_R   0.199150 0.763360 0.177920 -0.530759
O12   O     O_R   0.800850 0.236640 0.822080 -0.538576
O13   O     O_R   0.211480 0.091820 0.289210 -0.551173
O14   O     O_R   0.788520 0.908180 0.710790 -0.528305
O15   O     O_R   0.288520 0.591820 0.210790 -0.551170
O16   O     O_R   0.711480 0.408180 0.789210 -0.528294
C5    C     C_R   0.313407 0.431089 0.343118 0.716475
C6    C     C_R   0.686758 0.568036 0.656868 0.719959
C7    C     C_R   0.186593 0.931090 0.156882 0.716467
C8    C     C_R   0.813241 0.068036 0.843133 0.719913
O17   O     O_3   0.220670 0.426670 0.239090 -0.377018
O18   O     O_3   0.779330 0.573330 0.760910 -0.372088
O19   O     O_3   0.279330 0.926670 0.260910 -0.377022
O20   O     O_3   0.720670 0.073330 0.739090 -0.372093
V1    V     V_3+5 0.255440 0.152290 0.252020 1.453183
V2    V     V_3+5 0.744560 0.847710 0.747980 1.483099
V3    V     V_3+5 0.244560 0.652290 0.247980 1.453190
V4    V     V_3+5 0.755440 0.347710 0.752020 1.483155
C9    C     C_R   0.849766 0.055030 0.899258 -0.112995
C10   C     C_R   0.149474 0.933011 0.100820 -0.096691
C11   C     C_R   0.650232 0.555031 0.600743 -0.113002
C12   C     C_R   0.350527 0.433008 0.399180 -0.096705
C13   C     C_R   0.867509 0.038466 0.996585 0.319375
C14   C     C_R   0.129614 0.891477 0.003835 0.320809
C15   C     C_R   0.632488 0.538483 0.503417 0.319350
C16   C     C_R   0.370387 0.391532 0.496167 0.320856
C17   C     C_R   0.835418 0.077215 0.943012 -0.183397
C18   C     C_R   0.163935 0.914412 0.056983 -0.221634
C19   C     C_R   0.664578 0.577240 0.556989 -0.183355
C20   C     C_R   0.336066 0.414462 0.443018 -0.221650
C21   C     C_R   0.897130 0.997920 0.908816 -0.130450
C22   C     C_R   0.099884 0.929859 0.091395 -0.128698
C23   C     C_R   0.602869 0.497897 0.591186 -0.130467
C24   C     C_R   0.400117 0.429822 0.408604 -0.128716
C25   C     C_R   0.930219 0.949826 0.961761 0.060684
C26   C     C_R   0.064102 0.894623 0.038703 0.054138
C27   C     C_R   0.569780 0.449805 0.538241 0.060686
C28   C     C_R   0.435898 0.394598 0.461297 0.054139
C29   C     C_R   0.914838 0.972408 0.005898 0.061533
C30   C     C_R   0.079658 0.878160 0.994574 0.089564
C31   C     C_R   0.585160 0.472402 0.494104 0.061535
C32   C     C_R   0.420342 0.378162 0.505427 0.089575
C33   C     C_R   0.979054 0.890436 0.972760 0.055288
C34   C     C_R   0.013118 0.885061 0.027871 0.057022
C35   C     C_R   0.520946 0.390405 0.527241 0.055291
C36   C     C_R   0.486882 0.385028 0.472130 0.057031
C37   C     C_R   0.994109 0.866790 0.069162 -0.033808
C38   C     C_R   0.995766 0.833379 0.931726 -0.046853
C39   C     C_R   0.505892 0.366760 0.430840 -0.033810
C40   C     C_R   0.504233 0.333333 0.568273 -0.046832
C41   C     C_R   0.946471 0.921906 0.058516 -0.249776
C42   C     C_R   0.045396 0.837789 0.942415 -0.259291
C43   C     C_R   0.553529 0.421891 0.441486 -0.249774
C44   C     C_R   0.454602 0.337763 0.557585 -0.259343
H1    H     H_    0.933609 0.917494 0.091542 0.139805
H2    H     H_    0.057409 0.801046 0.910003 0.164227
H3    H     H_    0.566392 0.417484 0.408461 0.139818
H4    H     H_    0.442588 0.301009 0.589995 0.164213
H5    H     H_    0.090046 0.954935 0.125770 0.129712
H6    H     H_    0.907344 0.993350 0.874200 0.131982
H7    H     H_    0.409955 0.454867 0.374228 0.129742
H8    H     H_    0.592656 0.493307 0.625802 0.131984
H9    H     H_    0.202207 0.917175 0.064150 0.118579
H10   H     H_    0.798458 0.118761 0.934757 0.147101
H11   H     H_    0.297794 0.417267 0.435850 0.118577
H12   H     H_    0.701536 0.618806 0.565243 0.147129
C45   C     C_R   0.100460 0.969901 0.490571 0.634681
C46   C     C_R   0.911381 0.906737 0.528973 0.612609
C47   C     C_R   0.399564 0.469545 0.009457 0.634684
C48   C     C_R   0.588653 0.406759 0.971064 0.612573
N1    N     N_R   0.082951 0.910947 0.436924 -0.530742
N2    N     N_R   0.925634 0.011407 0.575644 -0.530318
N3    N     N_R   0.417090 0.410782 0.063123 -0.530739
N4    N     N_R   0.574375 0.511296 0.924365 -0.530300
C49   C     C_R   0.039120 0.817003 0.418920 0.554119
C50   C     C_R   0.970870 0.091003 0.596201 0.555406
C51   C     C_R   0.460944 0.316990 0.081153 0.554146
C52   C     C_R   0.529119 0.590728 0.903787 0.555433
C53   C     C_R   0.006516 0.837128 0.445587 -0.022290
C54   C     C_R   0.003718 0.064587 0.570341 -0.028727
C55   C     C_R   0.493541 0.337130 0.054477 -0.022293
C56   C     C_R   0.496277 0.564273 0.929652 -0.028725
C57   C     C_R   0.020911 0.939091 0.494084 -0.017232
C58   C     C_R   0.988780 0.963856 0.521384 -0.012599
C59   C     C_R   0.479118 0.438925 0.005949 -0.017242
C60   C     C_R   0.511242 0.463703 0.978640 -0.012589
C61   C     C_R   0.068666 0.004480 0.517358 -0.053176
C62   C     C_R   0.942302 0.883838 0.500409 -0.037726
C63   C     C_R   0.431346 0.504125 0.982656 -0.053176
C64   C     C_R   0.557739 0.383857 0.999637 -0.037726
C65   C     C_R   0.960132 0.756094 0.425163 -0.142175
C66   C     C_R   0.051410 0.132972 0.592821 -0.140423
C67   C     C_R   0.539946 0.256269 0.074925 -0.142161
C68   C     C_R   0.448567 0.632468 0.907152 -0.140430
C69   C     C_R   0.928427 0.779171 0.452235 -0.157605
C70   C     C_R   0.083835 0.099612 0.567257 -0.135602
C71   C     C_R   0.571643 0.279353 0.047843 -0.157617
C72   C     C_R   0.416151 0.599082 0.932726 -0.135601
O21   O     O_2   0.148453 0.981790 0.519871 -0.495822
O22   O     O_2   0.867761 0.822703 0.510621 -0.539372
O23   O     O_2   0.351566 0.481254 0.980159 -0.495853
O24   O     O_2   0.632291 0.322857 0.989435 -0.539382
O25   O     O_2   0.027850 0.694095 0.377897 -0.546532
O26   O     O_2   0.984123 0.195634 0.641605 -0.533003
O27   O     O_2   0.472245 0.194199 0.122209 -0.546520
O28   O     O_2   0.515840 0.695236 0.858356 -0.533016
H13   H     H_    0.948019 0.675562 0.387991 0.164218
H14   H     H_    0.064121 0.209442 0.630742 0.168943
H15   H     H_    0.552081 0.175868 0.112121 0.164228
H16   H     H_    0.435836 0.708806 0.869208 0.168949
H17   H     H_    0.893042 0.714753 0.435276 0.159889
H18   H     H_    0.120474 0.152178 0.586041 0.171194
H19   H     H_    0.607044 0.215069 0.064820 0.159907
H20   H     H_    0.379498 0.651501 0.913928 0.171199
C73   C     C_R   0.909815 0.965449 0.658975 -0.222092
C74   C     C_R   0.090463 0.894766 0.345112 -0.234698
C75   C     C_R   0.590202 0.465305 0.841039 -0.222144
C76   C     C_R   0.409557 0.394698 0.154928 -0.234753
H21   H     H_    0.945584 0.904730 0.677447 0.155635
H22   H     H_    0.052105 0.872797 0.324178 0.187589
H23   H     H_    0.554442 0.404504 0.822575 0.155662
H24   H     H_    0.447913 0.372741 0.175879 0.187653
C77   C     C_R   0.881564 0.986283 0.690183 0.250768
C78   C     C_R   0.117563 0.903583 0.312099 0.238874
C79   C     C_R   0.618448 0.486186 0.809828 0.250780
C80   C     C_R   0.382447 0.403563 0.187929 0.238851
C81   C     C_R   0.834500 0.060419 0.666553 -0.176007
C82   C     C_R   0.167339 0.941902 0.335436 -0.175589
C83   C     C_R   0.665503 0.560412 0.833450 -0.176066
C84   C     C_R   0.332672 0.441897 0.164577 -0.175583
C85   C     C_R   0.817410 0.127681 0.612107 -0.167665
C86   C     C_R   0.187310 0.005450 0.389929 -0.172553
C87   C     C_R   0.682586 0.627733 0.887891 -0.167673
C88   C     C_R   0.312714 0.505412 0.110080 -0.172511
C89   C     C_R   0.847993 0.115496 0.581867 0.310809
C90   C     C_R   0.156126 0.033462 0.418585 0.376787
C91   C     C_R   0.652001 0.615520 0.918129 0.310841
C92   C     C_R   0.343907 0.533347 0.081430 0.376772
C93   C     C_R   0.893952 0.030136 0.605401 0.286474
C94   C     C_R   0.110829 0.937375 0.401431 0.217982
C95   C     C_R   0.606055 0.530057 0.894605 0.286404
C96   C     C_R   0.389204 0.437256 0.098606 0.218018
C97   C     C_2   0.767935 0.210003 0.588152 0.358986
H25   H     H_    0.740125 0.167342 0.602665 0.051972
O29   O     O_2   0.757908 0.330344 0.553489 -0.550116
C98   C     C_2   0.240087 0.045958 0.416312 0.328171
H26   H     H_    0.261198 0.078033 0.392097 0.068624
O30   O     O_2   0.261232 0.034910 0.465698 -0.529416
C99   C     C_2   0.732054 0.710121 0.911838 0.358952
H27   H     H_    0.759850 0.667666 0.897279 0.052054
O31   O     O_2   0.742097 0.830283 0.946554 -0.550140
C100  C     C_2   0.259940 0.545948 0.083687 0.328158
H28   H     H_    0.238830 0.578141 0.107894 0.068595
O32   O     O_2   0.238796 0.534791 0.034302 -0.529437
N5    N     N_2   0.832862 0.182702 0.527437 -0.491256
H29   H     H_    0.796937 0.161755 0.503067 0.291551
C101  C     C_3   0.850976 0.363881 0.522375 -0.408879
H30   H     H_    0.839243 0.400449 0.478587 0.192458
H31   H     H_    0.891221 0.365968 0.540749 0.195418
H32   H     H_    0.836669 0.468637 0.542886 0.232127
N6    N     N_2   0.164006 0.191926 0.453061 -0.467182
H33   H     H_    0.199173 0.238155 0.470902 0.298091
C102  C     C_3   0.130367 0.342374 0.430393 -0.509320
H34   H     H_    0.138265 0.455778 0.460678 0.218510
H35   H     H_    0.092417 0.296823 0.420428 0.211593
H36   H     H_    0.134137 0.396083 0.392981 0.190040
N7    N     N_2   0.667113 0.682823 0.972546 -0.491217
H37   H     H_    0.703031 0.661873 0.996938 0.291649
C103  C     C_3   0.648989 0.864022 0.977568 -0.408946
H38   H     H_    0.660701 0.900660 0.021348 0.192537
H39   H     H_    0.608744 0.866098 0.959169 0.195384
H40   H     H_    0.663309 0.968727 0.957054 0.232073
N8    N     N_2   0.336026 0.691717 0.046918 -0.467205
H41   H     H_    0.300858 0.737919 0.029059 0.298127
C104  C     C_3   0.369658 0.842206 0.069558 -0.509480
H42   H     H_    0.361762 0.955528 0.039247 0.218513
H43   H     H_    0.407610 0.796658 0.079544 0.211566
H44   H     H_    0.365877 0.896024 0.106953 0.190079
N9    N     N_2   0.852163 0.057412 0.041174 -0.524167
H45   H     H_    0.846516 0.934000 0.057108 0.263707
C105  C     C_3   0.817650 0.200694 0.038861 -0.496486
H46   H     H_    0.817998 0.223756 0.080352 0.200198
H47   H     H_    0.780450 0.158593 0.011751 0.221024
H48   H     H_    0.827599 0.332187 0.024294 0.199136
N10   N     N_2   0.145773 0.879139 0.959923 -0.525115
H49   H     H_    0.179507 0.819389 0.970507 0.294922
C106  C     C_3   0.142153 0.050377 0.930693 -0.517583
H50   H     H_    0.152935 0.027012 0.895528 0.212568
H51   H     H_    0.166641 0.155613 0.957941 0.222725
H52   H     H_    0.104310 0.102812 0.914855 0.202977
N11   N     N_2   0.647833 0.557438 0.458827 -0.524157
H53   H     H_    0.653493 0.434028 0.442902 0.263700
C107  C     C_3   0.682336 0.700756 0.461136 -0.496567
H54   H     H_    0.681987 0.723813 0.419644 0.200207
H55   H     H_    0.719538 0.658698 0.488249 0.220989
H56   H     H_    0.672376 0.832241 0.475696 0.199133
N12   N     N_2   0.354226 0.379286 0.540080 -0.525031
H57   H     H_    0.320467 0.319736 0.529489 0.294898
C108  C     C_3   0.357916 0.550506 0.569338 -0.517598
H58   H     H_    0.347072 0.527273 0.604464 0.212568
H59   H     H_    0.333512 0.655957 0.542092 0.222710
H60   H     H_    0.395791 0.602600 0.585238 0.202946
C109  C     C_2   0.018158 0.756875 0.119449 0.362198
H61   H     H_    0.006123 0.769660 0.153028 0.040916
O33   O     O_2   0.049020 0.642045 0.122524 -0.517711
C110  C     C_2   0.964872 0.734243 0.881564 0.361231
H62   H     H_    0.975975 0.725684 0.847183 0.041099
O34   O     O_2   0.928576 0.651158 0.879363 -0.519315
C111  C     C_2   0.481847 0.256833 0.380556 0.362191
H63   H     H_    0.493885 0.269609 0.346979 0.040913
O35   O     O_2   0.450985 0.142002 0.377481 -0.517717
C112  C     C_2   0.535126 0.234189 0.618434 0.361210
H64   H     H_    0.524022 0.225609 0.652813 0.041111
O36   O     O_2   0.571423 0.151117 0.620634 -0.519316
N13   N     N_2   0.902740 0.948182 0.746958 -0.514690
H65   H     H_    0.924597 0.832854 0.755900 0.257544
C113  C     C_3   0.927578 0.106637 0.778560 -0.532822
H66   H     H_    0.948016 0.066580 0.821494 0.173386
H67   H     H_    0.900994 0.215439 0.777351 0.212726
H68   H     H_    0.954195 0.163046 0.762542 0.214021
N14   N     N_2   0.093315 0.892064 0.254571 -0.513657
H69   H     H_    0.065157 0.798639 0.242656 0.263842
C114  C     C_3   0.078289 0.071087 0.229592 -0.535469
H70   H     H_    0.057408 0.056039 0.185304 0.182048
H71   H     H_    0.110431 0.158882 0.235654 0.215454
H72   H     H_    0.054530 0.140861 0.247360 0.197356
N15   N     N_2   0.597274 0.448055 0.753055 -0.514663
H73   H     H_    0.575426 0.332703 0.744119 0.257547
C115  C     C_3   0.572423 0.606482 0.721449 -0.532839
H74   H     H_    0.551986 0.566401 0.678517 0.173375
H75   H     H_    0.598998 0.715313 0.722651 0.212706
H76   H     H_    0.545803 0.662861 0.737467 0.214034
N16   N     N_2   0.406683 0.392073 0.245459 -0.513670
H77   H     H_    0.434835 0.298621 0.257384 0.263852
C116  C     C_3   0.421717 0.571104 0.270428 -0.535469
H78   H     H_    0.442596 0.556075 0.314717 0.182054
H79   H     H_    0.389579 0.658927 0.264358 0.215467
H80   H     H_    0.445481 0.640836 0.252659 0.197365

loop_
_geom_bond_atom_site_label_1
_geom_bond_atom_site_label_2
_ccdc_geom_bond_type
O17   V3    S    
C59   C63   A    
C101  H30   S    
C25   C29   A    
O1    C5    A    
C97   H25   S    
N3    C51   A    
C116  H80   S    
O19   V1    S    
C80   N16   S    
C9    C21   A    
N5    H29   S    
C82   C86   A    
O3    C7    A    
C111  H63   S    
C10   C18   A    
C67   H15   S    
C84   C88   A    
C11   C23   A    
C40   C112  S    
C57   C58   A    
C25   C33   A    
C33   C38   A    
N6    C102  S    
C5    C12   S    
C45   C61   A    
N7    H37   S    
O7    C3    A    
C6    C11   S    
C101  H31   S    
C16   N12   S    
C35   C40   A    
C26   C30   A    
C47   C63   A    
C36   C39   A    
C89   N5    S    
C50   O26   S    
O9    V1    S    
C99   O31   D    
N2    C93   S    
C37   C109  S    
C23   H8    S    
C14   C18   A    
C75   H23   S    
C103  H39   S    
C66   C70   A    
O4    C8    A    
C55   C59   A    
C44   H4    S    
C86   C98   S    
C54   C58   A    
C115  H74   S    
C15   N11   S    
O1    V3    S    
O13   V1    S    
C4    C81   S    
O2    V4    S    
N15   H73   S    
C106  H50   S    
O3    V1    S    
C89   C93   A    
C65   C69   A    
C28   C36   A    
C53   C65   A    
C86   C90   A    
C79   C83   A    
N10   H49   S    
C1    O15   A    
C60   C64   A    
C15   C31   A    
C92   C96   A    
C72   H20   S    
C2    O16   A    
O20   V2    S    
C102  H35   S    
O2    C6    A    
C107  H56   S    
N14   H69   S    
C50   C54   A    
C10   C22   A    
C91   C95   A    
C11   C19   A    
C43   H3    S    
N9    H45   S    
C76   H24   S    
C2    C83   S    
C105  H48   S    
C13   C29   A    
C115  H76   S    
C34   C37   A    
O11   C7    A    
C90   N6    S    
C56   C68   A    
O15   V3    S    
C35   C36   A    
C48   O24   S    
C114  H70   S    
C100  O32   D    
C106  H51   S    
C24   H7    S    
C13   N9    S    
C78   N14   S    
C74   H22   S    
C68   H16   S    
C92   N8    S    
C79   N15   S    
C110  O34   D    
C110  H62   S    
C1    C84   S    
C91   N7    S    
C12   C24   A    
O5    V1    S    
N16   C116  S    
C52   C56   A    
C46   C62   A    
C101  H32   S    
C39   C43   A    
C88   C92   A    
C116  H79   S    
O7    V3    S    
C38   C42   A    
C65   H13   S    
C107  H54   S    
C26   C34   A    
N4    C95   S    
C39   C111  S    
C75   C79   A    
C46   O22   S    
C77   N13   S    
C78   C82   A    
N7    C103  S    
C17   H10   S    
N1    C49   A    
O18   V4    S    
C23   C27   A    
C16   C32   A    
C109  H61   S    
C32   C44   A    
C49   C53   A    
C73   C77   A    
C68   C72   A    
C21   H6    S    
N15   C115  S    
C48   N4    A    
C97   O29   D    
C104  H44   S    
C87   C91   A    
C103  H38   S    
O5    C1    A    
N13   H65   S    
C47   O23   S    
C85   C97   S    
C53   C57   A    
C31   C43   A    
N12   H57   S    
C14   C30   A    
C16   C20   A    
O8    C4    A    
C102  H36   S    
C57   C61   A    
C66   H14   S    
N9    C105  S    
C21   C25   A    
C116  H78   S    
O9    C5    A    
C74   C94   A    
N4    C52   A    
C55   C67   A    
C70   H18   S    
C73   H21   S    
N11   H53   S    
C69   H17   S    
N12   C108  S    
C49   O25   S    
C102  H34   S    
C46   N2    A    
C112  O36   D    
C113  H67   S    
N14   C114  S    
C100  H28   S    
C48   C64   A    
C106  H52   S    
C51   O27   S    
C103  H40   S    
C76   C80   A    
C45   O21   S    
C74   C78   A    
C40   C44   A    
C83   C87   A    
C29   C41   A    
N10   C106  S    
C20   H11   S    
O16   V4    S    
C108  H60   S    
C104  H42   S    
C41   H1    S    
C77   C81   A    
C54   C66   A    
C7    C10   S    
C73   C93   A    
O6    V2    S    
N3    C96   S    
C67   C71   A    
C98   O30   D    
C80   C84   A    
C3    O13   A    
C47   N3    A    
O6    C2    A    
C64   C71   A    
C15   C19   A    
N16   H77   S    
C111  O35   D    
O11   V3    S    
C30   C42   A    
C81   C85   A    
O12   V4    S    
C22   C26   A    
C8    C9    S    
C59   C60   A    
C9    C17   A    
C98   H26   S    
O10   C6    A    
C114  H71   S    
C61   C70   A    
C108  H59   S    
O10   V2    S    
N8    H41   S    
N13   C113  S    
N6    H33   S    
C58   C62   A    
C71   H19   S    
C33   C34   A    
C42   H2    S    
O8    V4    S    
C108  H58   S    
C56   C60   A    
C75   C95   A    
N2    C50   A    
C19   H12   S    
C52   O28   S    
C113  H68   S    
C27   C31   A    
N1    C94   S    
C13   C17   A    
C109  O33   D    
C76   C96   A    
C3    C82   S    
C45   N1    A    
N8    C104  S    
C99   H27   S    
C12   C20   A    
C14   N10   S    
O14   V2    S    
C51   C55   A    
C105  H46   S    
C37   C41   A    
C24   C28   A    
C27   C35   A    
C18   H9    S    
O12   C8    A    
C112  H64   S    
C90   C94   A    
C114  H72   S    
C4    O14   A    
C113  H66   S    
C107  H55   S    
C85   C89   A    
C88   C100  S    
C63   C72   A    
C62   C69   A    
C87   C99   S    
C115  H75   S    
C104  H43   S    
N11   C107  S    
C22   H5    S    
O4    V2    S    
C28   C32   A    
C38   C110  S    
C105  H47   S    
N5    C101  S    
