data_mof_unit_19483.cif
_audit_creation_date              2012-12-11T21:29:26-0500
_audit_creation_method            fapswitch 2.2
_symmetry_space_group_name_H-M    P1
_symmetry_Int_Tables_number       1
_space_group_crystal_system       triclinic
_cell_length_a                    8.277325
_cell_length_b                    18.934718
_cell_length_c                    18.673839
_cell_angle_alpha                 103.60538
_cell_angle_beta                  91.460827
_cell_angle_gamma                 92.528309
_cell_volume                      2839.89259922

loop_
_atom_site_label
_atom_site_type_symbol
_atom_type_description
_atom_site_fract_x
_atom_site_fract_y
_atom_site_fract_z
_atom_type_partial_charge
Ba1   Ba    Ba6+2 0.844980 0.532260 0.467660 1.690507
Ba2   Ba    Ba6+2 0.344840 0.467800 0.532350 1.693405
C1    C     C_3   0.623143 0.796972 0.316608 -0.286460
C2    C     C_R   0.952075 0.408728 0.080073 0.084446
C3    C     C_R   0.825637 0.358724 0.046734 -0.022811
C4    C     C_3   0.171968 0.716376 0.291497 0.371592
C5    C     C_R   0.764590 0.357967 0.975822 -0.032380
C6    C     C_R   0.832018 0.405512 0.935845 0.083941
C7    C     C_R   0.967020 0.451607 0.966399 0.039080
C8    C     C_R   0.763026 0.409657 0.867318 -0.089351
C9    C     C_R   0.834506 0.455077 0.825326 -0.052776
C10   C     C_R   0.979840 0.496087 0.853284 0.000040
C11   C     C_R   0.039561 0.497339 0.925471 -0.014484
C12   C     C_3   0.612791 0.721911 0.332798 0.401165
C13   C     C_R   0.763772 0.463282 0.757681 0.005603
C14   C     C_R   0.848538 0.506092 0.716422 -0.232686
C15   C     C_R   0.008624 0.532881 0.736699 0.048460
C16   C     C_3   0.137310 0.708632 0.209333 0.434835
C17   C     C_R   0.064619 0.536864 0.809893 -0.035639
C18   C     C_R   0.156172 0.501899 0.070948 0.003139
C19   C     C_R   0.214563 0.504836 0.143961 -0.026923
C20   C     C_R   0.127445 0.465918 0.188703 -0.019693
C21   C     C_R   0.997002 0.418378 0.155194 -0.030425
C22   C     C_R   0.197003 0.583818 0.842484 -0.054504
C23   C     C_3   0.457820 0.326405 0.296972 0.317404
C24   C     C_R   0.247070 0.589623 0.915992 0.038255
C25   C     C_R   0.170873 0.545061 0.957222 0.037613
C26   C     C_R   0.228323 0.547442 0.029863 -0.006618
C27   C     C_R   0.373663 0.639104 0.948900 -0.059049
C28   C     C_3   0.199048 0.693102 0.635453 0.295511
C29   C     C_R   0.431305 0.640729 0.020185 0.007329
C30   C     C_R   0.365069 0.592075 0.059508 -0.003336
C31   C     C_R   0.364130 0.543381 0.169797 -0.104955
C32   C     C_R   0.449759 0.577456 0.120205 0.358353
C33   C     C_R   0.421503 0.544361 0.242855 -0.005899
C34   C     C_3   0.367284 0.273780 0.231330 -0.152828
C35   C     C_R   0.319039 0.515992 0.290247 -0.265512
C36   C     C_R   0.174603 0.474934 0.264748 0.034697
C37   C     C_R   0.686557 0.954527 0.542567 0.015079
C38   C     C_R   0.775046 0.907443 0.574739 -0.092650
C39   C     C_R   0.899779 0.055080 0.575583 -0.094888
C40   C     C_3   0.229895 0.775093 0.662958 -0.414284
C41   C     C_R   0.746416 0.026607 0.543619 0.024231
C42   C     C_R   0.956162 0.125499 0.576391 -0.100099
C43   C     C_R   0.862762 0.171306 0.545612 -0.021520
C44   C     C_R   0.710510 0.143754 0.510948 0.022957
C45   C     C_3   0.064119 0.295702 0.721065 0.329313
C46   C     C_R   0.651921 0.071493 0.510070 0.025679
C47   C     C_R   0.916765 0.243915 0.548394 0.027240
C48   C     C_R   0.817527 0.288000 0.517651 -0.182569
C49   C     C_R   0.672624 0.260293 0.479259 0.047319
C50   C     C_R   0.618267 0.187812 0.475525 -0.008051
C51   C     C_R   0.532663 0.928333 0.508829 0.024513
C52   C     C_3   0.936269 0.288727 0.294834 0.730683
C53   C     C_R   0.474961 0.855237 0.505528 0.007772
C54   C     C_R   0.571126 0.808233 0.535457 -0.047930
C55   C     C_R   0.718447 0.836828 0.571250 -0.047289
C56   C     C_3   0.127364 0.298928 0.799474 -0.157086
C57   C     C_R   0.477023 0.157392 0.435071 0.016213
C58   C     C_R   0.418354 0.087940 0.435258 -0.074239
C59   C     C_R   0.499781 0.044578 0.474907 0.003502
C60   C     C_R   0.436675 0.974228 0.477432 0.012027
C61   C     C_R   0.278885 0.948393 0.450225 -0.074866
C62   C     C_R   0.321728 0.829158 0.471680 -0.051874
C63   C     C_R   0.223552 0.877495 0.446922 -0.077021
C64   C     C_3   0.905430 0.256687 0.211594 -0.312162
C65   C     C_R   0.271310 0.755376 0.463120 -0.030248
C66   C     C_R   0.373149 0.708408 0.488182 -0.276876
C67   C     C_3   0.597947 0.283002 0.682341 0.528026
C68   C     C_R   0.518285 0.734119 0.527637 0.020790
C69   C     C_3   0.759120 0.729216 0.704976 0.250788
C70   C     C_3   0.695229 0.800986 0.746564 -0.411929
C71   C     C_3   0.553604 0.385857 0.271272 -0.336630
C72   C     C_3   0.477061 0.230081 0.174763 -0.391540
C73   C     C_3   0.155748 0.223370 0.811477 -0.413281
C74   C     C_3   0.630082 0.213526 0.782394 -0.404251
C75   C     C_3   0.761715 0.532266 0.656446 -0.221275
C76   C     C_3   0.582834 0.208913 0.701741 -0.179828
C77   C     C_R   0.025904 0.453718 0.038972 0.060721
H1    H     H_    0.683004 0.724003 0.384576 0.083079
H2    H     H_    0.811043 0.702317 0.746500 0.045630
H3    H     H_    0.751774 0.815848 0.315612 0.183940
H4    H     H_    0.630219 0.827596 0.708300 0.099394
H5    H     H_    0.797402 0.837944 0.774683 0.091690
H6    H     H_    0.610062 0.791077 0.788583 0.131814
H7    H     H_    0.484771 0.707360 0.340718 -0.154400
H8    H     H_    0.563151 0.836427 0.359829 0.055878
H9    H     H_    0.365126 0.353693 0.333789 0.078062
H10   H     H_    0.291291 0.234858 0.253158 0.197816
H11   H     H_    0.286535 0.304606 0.202755 0.055598
H12   H     H_    0.330792 0.786871 0.705003 0.130497
H13   H     H_    0.561662 0.795135 0.262583 0.136305
H14   H     H_    0.253391 0.700908 0.180765 -0.124981
H15   H     H_    0.024217 0.350703 0.719357 -0.027156
H16   H     H_    0.960306 0.255200 0.707501 -0.012630
H17   H     H_    0.241490 0.333403 0.811418 0.154927
H18   H     H_    0.037285 0.324345 0.838998 0.045031
H19   H     H_    0.727688 0.300837 0.684476 -0.253918
H20   H     H_    0.548257 0.276420 0.625212 0.017454
H21   H     H_    0.662794 0.171041 0.666443 0.054642
H22   H     H_    0.456684 0.185918 0.689826 0.107290
H23   H     H_    0.261663 0.800211 0.617047 0.064176
H24   H     H_    0.226501 0.665250 0.297207 -0.163408
H25   H     H_    0.767273 0.323220 0.077017 0.052866
H26   H     H_    0.661939 0.321400 0.953014 0.048817
H27   H     H_    0.653180 0.377549 0.847979 0.097255
H28   H     H_    0.927201 0.390165 0.187824 0.056551
H29   H     H_    0.258501 0.618475 0.812219 0.095695
H30   H     H_    0.431877 0.674820 0.918621 0.064095
H31   H     H_    0.534761 0.676811 0.043007 0.112779
H32   H     H_    0.259720 0.763395 0.311585 -0.006378
H33   H     H_    0.358323 0.521332 0.347028 0.062325
H34   H     H_    0.120089 0.800386 0.688162 0.109021
H35   H     H_    0.858950 0.343328 0.519023 0.051751
H36   H     H_    0.074030 0.143530 0.602060 0.085480
H37   H     H_    0.796184 0.805279 0.596225 0.085639
H38   H     H_    0.408358 0.186634 0.402613 0.128793
H39   H     H_    0.102833 0.861208 0.423840 0.120120
H40   H     H_    0.334596 0.651688 0.480414 0.063906
H41   H     H_    0.981310 0.024470 0.600637 0.065555
H42   H     H_    0.890524 0.922849 0.603139 0.058674
H43   H     H_    0.310247 0.069017 0.401643 0.082835
H44   H     H_    0.056625 0.659662 0.187070 0.076388
H45   H     H_    0.833071 0.317298 0.321320 -0.013945
H46   H     H_    0.193232 0.982101 0.431696 0.093658
H47   H     H_    0.312696 0.668483 0.615417 0.037610
H48   H     H_    0.105521 0.682051 0.590031 0.056525
H49   H     H_    0.107350 0.115854 0.307367 0.364735
H50   H     H_    0.581313 0.432637 0.318786 0.124775
H51   H     H_    0.666901 0.366310 0.246810 0.120903
H52   H     H_    0.484306 0.403841 0.227890 0.059496
H53   H     H_    0.546686 0.266535 0.146868 0.116149
H54   H     H_    0.560174 0.198848 0.201513 0.177841
H55   H     H_    0.401571 0.190848 0.132076 0.130786
H56   H     H_    0.819897 0.287440 0.187055 -0.011856
H57   H     H_    0.243440 0.195302 0.772092 0.153600
H58   H     H_    0.204936 0.228443 0.868438 0.118077
H59   H     H_    0.040132 0.189960 0.804013 0.116589
H60   H     H_    0.542465 0.245352 0.819300 0.145085
H61   H     H_    0.629109 0.157907 0.792177 0.117475
H62   H     H_    0.753237 0.239573 0.796233 0.114058
H63   H     H_    0.814771 0.584943 0.651227 0.088585
H64   H     H_    0.769491 0.492555 0.602748 0.140572
H65   H     H_    0.634842 0.544049 0.670315 0.152142
H66   H     H_    0.751392 0.578121 0.000867 0.343120
H67   H     H_    0.848950 0.200681 0.199971 0.158690
H68   H     H_    0.807232 0.814806 0.164438 0.356286
H69   H     H_    0.019760 0.254210 0.181664 0.096535
H70   H     H_    0.861352 0.738621 0.671162 0.038899
O1    O     O_2   0.885040 0.450540 0.321170 -0.503371
O2    O     O_2   0.253046 0.247258 0.533296 -0.452115
O3    O     O_3   0.187180 0.274676 0.671439 -0.592493
O4    O     O_3   0.133000 0.456200 0.410860 -0.457236
O5    O     O_3   0.556800 0.589310 0.543550 -0.469484
O6    O     O_2   0.384750 0.321010 0.451130 -0.428215
O7    O     O_3   0.560932 0.286701 0.332364 -0.627633
O8    O     O_2   0.423243 0.467523 0.753608 -0.470336
O9    O     O_3   0.509800 0.333659 0.731240 -0.591981
O10   O     O_3   0.639000 0.584840 0.375630 -0.506729
O11   O     O_2   0.767269 0.537874 0.251099 -0.372815
O12   O     O_3   0.630367 0.683371 0.666711 -0.630556
O13   O     O_3   0.077632 0.334206 0.308215 -0.678357
O14   O     O_3   0.676829 0.671635 0.274178 -0.519682
O15   O     O_2   0.804950 0.679010 0.548920 -0.494016
O16   O     O_3   0.051170 0.624120 0.414780 -0.460217
O17   O     O_2   0.932647 0.752368 0.466230 -0.505727
O18   O     O_2   0.063338 0.239540 0.406510 -0.321974
O19   O     O_2   0.813039 0.176201 0.345169 -0.340729
O20   O     O_3   0.080603 0.151575 0.278288 -0.544839
O21   O     O_2   0.772411 0.609079 0.137946 -0.263894
O22   O     O_2   0.670015 0.481632 0.118982 -0.316262
O23   O     O_3   0.029505 0.727594 0.331051 -0.558231
O24   O     O_3   0.673210 0.538929 0.006767 -0.543703
O25   O     O_2   0.083896 0.852585 0.252078 -0.306816
O26   O     O_2   0.118304 0.800700 0.120404 -0.282131
O27   O     O_3   0.847778 0.770436 0.176633 -0.478001
O28   O     O_2   0.304650 0.549490 0.678880 -0.451997
O29   O     O_3   0.056690 0.543860 0.589150 -0.503444
O30   O     O_3   0.550690 0.415220 0.624380 -0.498735
O31   O     O_3   0.146322 0.665521 0.694280 -0.647836
O32   O     O_3   0.632900 0.410750 0.456460 -0.495999
O33   O     O_3   0.138520 0.375940 0.585230 -0.457885
P1    P     P_3+3 0.058010 0.429760 0.330690 0.968088
P2    P     P_3+3 0.631910 0.669560 0.569730 0.958778
P3    P     P_3+3 0.072364 0.716787 0.420145 0.969514
P4    P     P_3+3 0.131690 0.570300 0.669320 0.977403
P5    P     P_3+3 0.121443 0.283646 0.584421 1.019607
P6    P     P_3+3 0.624553 0.583609 0.283109 1.085212
P7    P     P_3+3 0.566636 0.318837 0.428826 0.985568
P8    P     P_3+3 0.562245 0.420457 0.719192 0.969092
S1    S     S_3+6 0.971659 0.212982 0.334338 -0.114083
S2    S     S_3+6 0.648449 0.552256 0.098101 -0.086953
S3    S     S_3+6 0.048819 0.786800 0.189688 -0.037589

loop_
_geom_bond_atom_site_label_1
_geom_bond_atom_site_label_2
_ccdc_geom_bond_type
C34   H10   S    
C53   C54   A    
C28   H47   S    
Ba2   O6    S    
C72   H53   S    
O17   P3    D    
C4    H32   S    
C61   C63   A    
C70   H6    S    
Ba1   P1    S    
C5    C6    A    
O14   P6    S    
C4    O23   S    
C43   C44   A    
O2    P5    D    
C38   H42   S    
C37   C51   A    
C24   C25   A    
C35   C36   A    
O19   S1    D    
C27   H30   S    
C33   C35   A    
C74   C76   S    
Ba1   Ba2   S    
O9    P8    S    
C66   H40   S    
C7    C77   A    
C19   C31   A    
C13   C14   A    
C20   C36   A    
C72   H54   S    
O21   S2    D    
C54   C55   A    
C14   C75   S    
Ba2   O33   S    
C67   H19   S    
C12   O14   S    
C56   H17   S    
C75   H63   S    
C35   H33   S    
C7    C11   A    
O6    P7    D    
C15   C17   A    
O8    P8    D    
O32   P7    S    
C29   H31   S    
O4    P1    S    
Ba1   O15   S    
C6    C7    A    
O5    P2    S    
O22   S2    D    
C63   H39   S    
C5    H26   S    
C22   H29   S    
Ba2   O28   S    
C12   H1    S    
O27   S3    S    
C41   C46   A    
C15   P4    S    
C64   H69   S    
C49   P7    S    
C16   H44   S    
O7    P7    S    
C74   H61   S    
C3    H25   S    
C57   C58   A    
C57   H38   S    
C19   C20   A    
C23   O7    S    
C39   C41   A    
C67   C76   S    
C59   C60   A    
C56   H18   S    
C9    C13   A    
O3    P5    S    
C40   H23   S    
Ba1   P2    S    
C56   C73   S    
C48   C49   A    
C55   H37   S    
C44   C46   A    
C51   C53   A    
C4    C16   S    
C71   H50   S    
C71   H52   S    
C52   S1    S    
C1    H8    S    
C49   C50   A    
C62   C65   A    
Ba1   O10   S    
C42   H36   S    
C2    C77   A    
C73   H58   S    
C37   C38   A    
C3    C5    A    
C2    C21   A    
Ba1   O32   S    
C73   H57   S    
C14   C15   A    
C37   C41   A    
C18   C26   A    
C44   C50   A    
Ba2   P4    S    
C23   H9    S    
O16   P3    S    
C36   P1    S    
C65   C66   A    
C58   C59   A    
C48   H35   S    
Ba2   O32   S    
C30   C32   A    
O10   P6    S    
C28   H48   S    
Ba1   O4    S    
C75   H64   S    
C60   C61   A    
O15   P2    D    
C50   C57   A    
Ba1   O29   S    
C40   H34   S    
C29   C30   A    
C47   P5    S    
C26   C30   A    
O23   P3    S    
C21   H28   S    
C53   C62   A    
C18   C19   A    
C1    H3    S    
C67   O9    S    
Ba1   O1    S    
C70   H5    S    
C4    H24   S    
C45   O3    S    
C58   H43   S    
C12   H7    S    
C61   H46   S    
C1    C12   S    
O31   P4    S    
C24   C27   A    
C67   H20   S    
C68   P2    S    
C13   P8    S    
H66   O24   S    
Ba2   O4    S    
C54   C68   A    
C76   H21   S    
C39   C42   A    
C8    H27   S    
Ba2   O30   S    
O20   S1    S    
C42   C43   A    
C74   H60   S    
C34   H11   S    
C16   H14   S    
C52   H45   S    
C71   H51   S    
C34   C72   S    
C45   H16   S    
C38   C55   A    
C69   O12   S    
C18   C77   A    
C16   S3    S    
Ba1   O16   S    
H68   O27   S    
C11   C25   A    
C22   C24   A    
C2    C3    A    
C73   H59   S    
C9    C10   A    
O1    P1    D    
C52   C64   S    
C52   O13   S    
O18   S1    D    
O24   S2    S    
C62   C63   A    
O12   P2    S    
C32   S2    S    
C17   C22   A    
C75   H65   S    
O13   P1    S    
C27   C29   A    
Ba2   O5    S    
C74   H62   S    
C45   C56   S    
C46   C59   A    
C69   H70   S    
O30   P8    S    
C72   H55   S    
C10   C17   A    
C31   C33   A    
C45   H15   S    
C31   C32   A    
C43   C47   A    
C23   C71   S    
O33   P5    S    
C39   H41   S    
Ba1   O5    S    
C64   H67   S    
C70   H4    S    
C8    C9    A    
O28   P4    D    
C23   C34   S    
C64   H56   S    
O29   P4    S    
H49   O20   S    
C69   C70   S    
C10   C11   A    
C51   C60   A    
C6    C8    A    
C47   C48   A    
C33   P6    S    
C40   H12   S    
C25   C26   A    
C66   C68   A    
C28   O31   S    
C20   C21   A    
C28   C40   S    
Ba2   O29   S    
C69   H2    S    
C1    H13   S    
O26   S3    D    
O25   S3    D    
C65   P3    S    
C76   H22   S    
O11   P6    D    
