data_mof_unit_39960.cif
_audit_creation_date              2012-12-11T15:07:33-0500
_audit_creation_method            fapswitch 2.2
_symmetry_space_group_name_H-M    P1
_symmetry_Int_Tables_number       1
_space_group_crystal_system       triclinic
_cell_length_a                    21.583272
_cell_length_b                    7.206946
_cell_length_c                    18.863538
_cell_angle_alpha                 89.999756
_cell_angle_beta                  96.184787
_cell_angle_gamma                 89.998656
_cell_volume                      2917.13516441

loop_
_atom_site_label
_atom_site_type_symbol
_atom_type_description
_atom_site_fract_x
_atom_site_fract_y
_atom_site_fract_z
_atom_type_partial_charge
O1    O     O_R   0.449650 0.506500 0.414480 -0.554495
O2    O     O_R   0.550350 0.006500 0.585520 -0.554498
O3    O     O_R   0.432010 0.173150 0.560250 -0.513266
O4    O     O_R   0.567990 0.673150 0.439750 -0.513253
C1    C     C_R   0.416264 0.344685 0.581704 0.724369
C2    C     C_R   0.583737 0.844681 0.418298 0.724375
O5    O     O_R   0.442320 0.176650 0.413480 -0.529967
O6    O     O_R   0.557680 0.676650 0.586520 -0.529951
O7    O     O_R   0.560730 0.008380 0.437700 -0.499430
O8    O     O_R   0.439270 0.508380 0.562300 -0.499441
C3    C     C_R   0.428596 0.344457 0.386904 0.730475
C4    C     C_R   0.571404 0.844456 0.613097 0.730441
O9    O     O_3   0.538840 0.339860 0.508120 -0.377675
O10   O     O_3   0.461160 0.839860 0.491880 -0.377731
V1    V     V_3+5 0.492800 0.064220 0.498490 1.492989
V2    V     V_3+5 0.507200 0.564220 0.501510 1.493025
C5    C     C_R   0.858627 0.114714 0.708161 -0.211794
C6    C     C_R   0.141347 0.614593 0.291865 -0.211778
H1    H     H_    0.872823 0.198699 0.665184 0.173469
H2    H     H_    0.127140 0.698529 0.334850 0.173483
C7    C     C_R   0.886298 0.954267 0.820029 -0.140543
C8    C     C_R   0.113697 0.454249 0.179973 -0.140534
C9    C     C_R   0.592459 0.723577 0.736737 0.449192
C10   C     C_R   0.407549 0.223644 0.263256 0.449184
C11   C     C_R   0.632354 0.689965 0.799086 -0.218051
C12   C     C_R   0.367658 0.190063 0.200901 -0.218050
C13   C     C_R   0.693129 0.755960 0.806759 -0.219864
C14   C     C_R   0.306878 0.256031 0.193233 -0.219869
C15   C     C_R   0.715289 0.870479 0.754493 0.105030
C16   C     C_R   0.284705 0.370474 0.245516 0.105020
C17   C     C_R   0.672326 0.923330 0.694454 -0.032802
C18   C     C_R   0.327661 0.423281 0.305567 -0.032807
C19   C     C_R   0.778682 0.934474 0.760002 0.036164
C20   C     C_R   0.221308 0.434436 0.240012 0.036157
C21   C     C_R   0.796388 0.057426 0.706984 0.048822
C22   C     C_R   0.203588 0.557314 0.293047 0.048807
C23   C     C_R   0.751551 0.129336 0.654783 0.339741
C24   C     C_R   0.248414 0.629159 0.345275 0.339795
C25   C     C_R   0.690726 0.058606 0.647776 -0.303555
C26   C     C_R   0.309243 0.558454 0.352277 -0.303482
C27   C     C_R   0.825013 0.884499 0.816765 -0.291832
C28   C     C_R   0.174984 0.384496 0.183237 -0.291828
C29   C     C_R   0.903162 0.067779 0.764745 0.420518
C30   C     C_R   0.096823 0.567716 0.235264 0.420484
C31   C     C_R   0.611641 0.841349 0.683417 -0.186742
C32   C     C_R   0.388356 0.341355 0.316588 -0.186708
H3    H     H_    0.814355 0.799777 0.860918 0.124077
H4    H     H_    0.185650 0.299813 0.139077 0.124070
H5    H     H_    0.721270 0.717452 0.855147 0.126580
H6    H     H_    0.278743 0.217559 0.144838 0.126578
H7    H     H_    0.616628 0.608767 0.841956 0.124729
H8    H     H_    0.383391 0.108916 0.158023 0.124729
H9    H     H_    0.657469 0.114465 0.606622 0.126650
H10   H     H_    0.342489 0.614246 0.393454 0.126564
C33   C     C_R   0.644650 0.708579 0.321214 0.385881
C34   C     C_R   0.355354 0.208586 0.678790 0.385843
C35   C     C_R   0.632813 0.858228 0.367036 -0.286439
C36   C     C_R   0.367194 0.358245 0.632974 -0.286437
C37   C     C_R   0.666534 0.026625 0.361341 0.375440
C38   C     C_R   0.333486 0.526664 0.638688 0.375458
C39   C     C_R   0.712944 0.041338 0.314496 0.020580
C40   C     C_R   0.287072 0.541371 0.685528 0.020598
C41   C     C_R   0.724739 0.891775 0.269886 -0.045632
C42   C     C_R   0.275271 0.391791 0.730128 -0.045628
C43   C     C_R   0.689853 0.726778 0.272078 -0.072094
C44   C     C_R   0.310156 0.226790 0.727931 -0.072089
C45   C     C_R   0.748116 0.204833 0.311804 -0.172363
C46   C     C_R   0.251906 0.704877 0.688233 -0.172356
C47   C     C_R   0.795074 0.218944 0.267148 -0.134057
C48   C     C_R   0.204940 0.718974 0.732877 -0.134026
C49   C     C_R   0.807202 0.072523 0.221728 0.055922
C50   C     C_R   0.192805 0.572537 0.778286 0.055914
C51   C     C_R   0.771443 0.908268 0.222576 -0.030648
C52   C     C_R   0.228564 0.408279 0.777435 -0.030642
C53   C     C_R   0.782184 0.761230 0.176137 -0.001696
C54   C     C_R   0.217822 0.261234 0.823871 -0.001697
C55   C     C_R   0.744909 0.600633 0.175494 0.460293
C56   C     C_R   0.255102 0.100643 0.824517 0.460286
C57   C     C_R   0.700435 0.582979 0.224360 -0.251329
C58   C     C_R   0.299578 0.082993 0.775652 -0.251351
C59   C     C_R   0.854470 0.088464 0.175674 0.451823
C60   C     C_R   0.145534 0.588472 0.824334 0.451802
C61   C     C_R   0.865600 0.940690 0.129322 -0.211253
C62   C     C_R   0.134401 0.440688 0.870681 -0.211243
C63   C     C_R   0.829345 0.778376 0.130459 -0.232964
C64   C     C_R   0.170657 0.278372 0.869544 -0.232977
H11   H     H_    0.739805 0.324017 0.344343 0.174742
H12   H     H_    0.260228 0.824088 0.655714 0.174703
H13   H     H_    0.821356 0.347003 0.267911 0.166538
H14   H     H_    0.178660 0.847040 0.732119 0.166540
H15   H     H_    0.837517 0.665419 0.094719 0.206260
H16   H     H_    0.162485 0.165411 0.905281 0.206264
H17   H     H_    0.674266 0.454972 0.224477 0.181590
H18   H     H_    0.325751 0.954990 0.775539 0.181583
O11   O     O_R   0.060820 0.290050 0.937800 -0.537254
O12   O     O_R   0.939180 0.790050 0.062200 -0.537253
O13   O     O_R   0.057690 0.616620 0.086540 -0.532365
O14   O     O_R   0.942310 0.116620 0.913460 -0.532361
C65   C     C_R   0.071450 0.449692 0.112514 0.744096
C66   C     C_R   0.928549 0.949696 0.887486 0.744080
O15   O     O_R   0.068010 0.619890 0.939770 -0.508962
O16   O     O_R   0.931990 0.119890 0.060230 -0.508965
O17   O     O_R   0.949640 0.787940 0.914460 -0.548772
O18   O     O_R   0.050360 0.287940 0.085540 -0.548770
C67   C     C_R   0.084428 0.451346 0.919385 0.711838
C68   C     C_R   0.915572 0.951348 0.080616 0.711843
O19   O     O_3   0.961210 0.453080 0.991940 -0.377721
O20   O     O_3   0.038790 0.953080 0.008060 -0.377719
V3    V     V_3+5 0.007200 0.728820 0.001500 1.472749
V4    V     V_3+5 0.992800 0.228820 0.998500 1.472756
O21   O     O_3   0.964724 0.123653 0.765504 -0.567458
C69   C     C_3   0.968835 0.318908 0.764326 -0.227002
H19   H     H_    0.018191 0.357426 0.779091 0.147651
H20   H     H_    0.940798 0.385260 0.803651 0.137830
H21   H     H_    0.955366 0.374248 0.709929 0.129495
O22   O     O_3   0.035260 0.623599 0.234497 -0.567457
C70   C     C_3   0.031151 0.818854 0.235680 -0.227008
H22   H     H_    0.981795 0.857386 0.220924 0.147657
H23   H     H_    0.059184 0.885205 0.196352 0.137834
H24   H     H_    0.044628 0.874183 0.290077 0.129492
O23   O     O_3   0.651415 0.183130 0.398041 -0.513095
C71   C     C_3   0.686673 0.184144 0.465163 -0.122300
H25   H     H_    0.736267 0.218195 0.460574 0.127093
H26   H     H_    0.683845 0.049705 0.493660 0.089056
H27   H     H_    0.667100 0.293882 0.497208 0.151683
O24   O     O_3   0.348633 0.683201 0.602023 -0.513060
C72   C     C_3   0.313374 0.684403 0.534900 -0.122266
H28   H     H_    0.263831 0.719102 0.539489 0.127132
H29   H     H_    0.316018 0.549844 0.506434 0.088984
H30   H     H_    0.333083 0.793798 0.502814 0.151664
O25   O     O_3   0.887770 0.252316 0.174120 -0.532372
C73   C     C_3   0.939598 0.246187 0.226598 -0.236906
H31   H     H_    0.932363 0.159828 0.274126 0.091048
H32   H     H_    0.949143 0.389054 0.246344 0.211625
H33   H     H_    0.981204 0.196310 0.202487 0.143587
O26   O     O_3   0.112235 0.752331 0.825893 -0.532379
C74   C     C_3   0.060409 0.746228 0.773412 -0.236916
H34   H     H_    0.067648 0.659899 0.725878 0.091071
H35   H     H_    0.050861 0.889105 0.753679 0.211618
H36   H     H_    0.018803 0.696330 0.797518 0.143578
O27   O     O_3   0.755356 0.454295 0.130795 -0.539797
C75   C     C_3   0.705905 0.445517 0.075639 -0.264235
H37   H     H_    0.700317 0.579061 0.045892 0.125000
H38   H     H_    0.661476 0.405729 0.096442 0.131251
H39   H     H_    0.716813 0.336772 0.037257 0.166473
O28   O     O_3   0.244660 0.954308 0.869219 -0.539802
C76   C     C_3   0.294107 0.945566 0.924381 -0.264226
H40   H     H_    0.299679 0.079117 0.954125 0.125001
H41   H     H_    0.338542 0.905806 0.903587 0.131249
H42   H     H_    0.283204 0.836818 0.962764 0.166473
O29   O     O_3   0.767791 0.273718 0.612401 -0.661492
H43   H     H_    0.729678 0.345247 0.596471 0.271768
O30   O     O_3   0.232156 0.773452 0.387689 -0.661485
H44   H     H_    0.270267 0.844932 0.403672 0.271733
O31   O     O_3   0.532045 0.655413 0.729458 -0.564678
C77   C     C_3   0.532590 0.459941 0.732635 -0.216978
H45   H     H_    0.563916 0.398288 0.695692 0.133056
H46   H     H_    0.484772 0.410752 0.715880 0.142655
H47   H     H_    0.545036 0.409478 0.787935 0.114944
O32   O     O_3   0.467967 0.155511 0.270529 -0.564686
C78   C     C_3   0.467435 0.960039 0.267341 -0.217033
H48   H     H_    0.436119 0.898354 0.304288 0.133066
H49   H     H_    0.515259 0.910866 0.284084 0.142669
H50   H     H_    0.454983 0.909593 0.212040 0.114953
O33   O     O_3   0.613781 0.541460 0.325907 -0.516985
C79   C     C_3   0.560948 0.536475 0.274748 -0.165891
H51   H     H_    0.554401 0.391780 0.255664 0.200580
H52   H     H_    0.564844 0.624214 0.226676 0.073214
H53   H     H_    0.518937 0.577404 0.300021 0.134206
O34   O     O_3   0.386215 0.041451 0.674085 -0.516981
C80   C     C_3   0.439052 0.036418 0.725239 -0.165800
H54   H     H_    0.445595 0.891709 0.744310 0.200575
H55   H     H_    0.435164 0.124136 0.773318 0.073201
H56   H     H_    0.481062 0.077339 0.699963 0.134189

loop_
_geom_bond_atom_site_label_1
_geom_bond_atom_site_label_2
_ccdc_geom_bond_type
C37   O23   S    
O18   V4    S    
C80   H54   S    
C41   C43   A    
O33   C79   S    
C9    C31   A    
C9    O31   S    
C13   C15   A    
O21   C69   S    
O1    C3    A    
O2    C4    A    
C3    C32   S    
C2    O7    A    
C69   H20   S    
C78   H48   S    
C63   H15   S    
C25   H9    S    
O22   C70   S    
O5    C3    A    
C74   H35   S    
O24   C72   S    
C52   C54   A    
C1    C36   S    
C43   C57   A    
C77   H45   S    
C76   H41   S    
C54   C56   A    
C57   H17   S    
C12   H8    S    
C70   H23   S    
C19   C21   A    
C56   C58   A    
C35   C37   A    
O34   C80   S    
O15   V3    S    
C15   C19   A    
O20   V3    S    
C38   C40   A    
C47   C49   A    
C40   C42   A    
O11   C67   A    
O13   C65   A    
C7    C29   A    
C14   H6    S    
C77   H46   S    
C53   C63   A    
C8    C30   A    
C76   H40   S    
C17   C25   A    
C73   H31   S    
C20   C28   A    
O29   H43   S    
C20   C22   A    
C34   O34   S    
O5    V1    S    
C65   O18   A    
O6    V2    S    
C24   C26   A    
C79   H52   S    
C51   C53   A    
C2    C35   S    
C48   H14   S    
C29   O21   S    
O14   V4    S    
C23   O29   S    
C47   H13   S    
C69   H19   S    
C78   H49   S    
C55   C57   A    
O15   C67   A    
C23   C25   A    
C80   H56   S    
C37   C39   A    
C75   H39   S    
C16   C20   A    
C76   H42   S    
C50   C52   A    
C70   H24   S    
C49   C51   A    
C7    C66   S    
C4    C31   S    
C41   C51   A    
C66   O17   A    
C26   H10   S    
C45   H11   S    
C45   C47   A    
C42   C44   A    
O4    V2    S    
C72   H29   S    
C6    C30   A    
O13   V3    S    
C39   C45   A    
O10   V1    S    
O6    C4    A    
C39   C41   A    
C62   C67   S    
C27   H3    S    
O1    V2    S    
C28   H4    S    
O2    V1    S    
C53   C55   A    
O23   C71   S    
C73   H32   S    
C7    C27   A    
O4    C2    A    
C61   C63   A    
C60   C62   A    
C33   C35   A    
C79   H51   S    
C46   H12   S    
O19   V4    S    
C75   H38   S    
O16   V4    S    
C11   C13   A    
C33   O33   S    
C71   H26   S    
O25   C73   S    
C54   C64   A    
O31   C77   S    
C78   H50   S    
O3    V1    S    
O28   C76   S    
C74   H34   S    
O12   C68   A    
C8    C65   S    
C21   C23   A    
C33   C43   A    
C18   C32   A    
C77   H47   S    
C10   C12   A    
O26   C74   S    
O3    C1    A    
O11   V4    S    
C59   C61   A    
C48   C50   A    
C10   O32   S    
C80   H55   S    
C44   C58   A    
O12   V3    S    
C12   C14   A    
C11   H7    S    
C61   C68   S    
C40   C46   A    
O17   V3    S    
C19   C27   A    
O32   C78   S    
C71   H27   S    
C14   C16   A    
O7    V1    S    
C72   H30   S    
C10   C32   A    
C1    O8    A    
C15   C17   A    
C64   H16   S    
O27   C75   S    
C22   C24   A    
C16   C18   A    
C8    C28   A    
C6    C22   A    
C73   H33   S    
C34   C44   A    
C74   H36   S    
C38   O24   S    
C5    H1    S    
C34   C36   A    
O16   C68   A    
C6    H2    S    
C18   C26   A    
C60   O26   S    
O14   C66   A    
C55   O27   S    
C59   O25   S    
C56   O28   S    
C13   H5    S    
C9    C11   A    
C30   O22   S    
C79   H53   S    
C46   C48   A    
C17   C31   A    
O9    V2    S    
C5    C29   A    
C42   C52   A    
C75   H37   S    
C62   C64   A    
C58   H18   S    
O8    V2    S    
C5    C21   A    
C24   O30   S    
C49   C59   A    
C71   H25   S    
C70   H22   S    
C36   C38   A    
C69   H21   S    
C50   C60   A    
C72   H28   S    
O30   H44   S    
