data_mof_unit_22633.cif
_audit_creation_date              2012-12-10T17:31:12-0500
_audit_creation_method            fapswitch 2.2
_symmetry_space_group_name_H-M    P1
_symmetry_Int_Tables_number       1
_space_group_crystal_system       triclinic
_cell_length_a                    11.999935
_cell_length_b                    12.861576
_cell_length_c                    15.501298
_cell_angle_alpha                 86.908502
_cell_angle_beta                  115.494154
_cell_angle_gamma                 94.156127
_cell_volume                      2153.12080666

loop_
_atom_site_label
_atom_site_type_symbol
_atom_type_description
_atom_site_fract_x
_atom_site_fract_y
_atom_site_fract_z
_atom_type_partial_charge
C1    C     C_R   0.475988 0.299403 0.497683 0.896161
C2    C     C_R   0.665648 0.970654 0.563585 -0.235786
C3    C     C_R   0.341241 0.137134 0.443624 0.105902
C4    C     C_R   0.657828 0.863085 0.554554 0.093611
C5    C     C_R   0.565368 0.131754 0.534955 -0.286458
C6    C     C_R   0.433951 0.868122 0.463925 -0.293754
C7    C     C_R   0.557935 0.025706 0.524639 0.157982
C8    C     C_R   0.441405 0.974266 0.474144 0.153299
C9    C     C_R   0.006735 0.602704 0.412929 0.296077
C10   C     C_R   0.994165 0.398699 0.588366 0.303063
C11   C     C_R   0.126808 0.591856 0.421476 -0.045681
C12   C     C_R   0.523850 0.700591 0.501989 0.907163
C13   C     C_R   0.873725 0.408937 0.579280 -0.046894
C14   C     C_R   0.159704 0.456139 0.537837 -0.010980
C15   C     C_R   0.840438 0.544157 0.462392 -0.018150
C16   C     C_R   0.576331 0.496498 0.680362 0.878412
C17   C     C_R   0.424189 0.507193 0.319699 0.869161
C18   C     C_R   0.039170 0.463196 0.532229 -0.063673
C19   C     C_R   0.961237 0.537537 0.468385 -0.057011
C20   C     C_R   0.624194 0.509962 0.783246 -0.063497
C21   C     C_R   0.380229 0.525570 0.216814 -0.061671
C22   C     C_R   0.789788 0.548033 0.938494 -0.191284
C23   C     C_R   0.653848 0.584002 0.107365 -0.190324
C24   C     C_R   0.219042 0.555815 0.058260 -0.186179
C25   C     C_R   0.750777 0.524499 0.842597 -0.187830
C26   C     C_R   0.255095 0.536461 0.155783 -0.194980
C27   C     C_R   0.538053 0.519291 0.819991 -0.238182
C28   C     C_R   0.468565 0.537762 0.180615 -0.243716
C29   C     C_R   0.574228 0.550239 0.913249 0.093126
C30   C     C_R   0.435419 0.560761 0.084201 0.095127
C31   C     C_R   0.702273 0.560192 0.974422 0.156121
C32   C     C_R   0.308112 0.565599 0.021749 0.171631
C33   C     C_R   0.485566 0.565540 0.948135 0.066520
C34   C     C_R   0.358523 0.575279 0.886936 -0.193799
C35   C     C_R   0.525495 0.570726 0.047738 0.049956
C36   C     C_R   0.740689 0.580760 0.070594 -0.196224
C37   C     C_R   0.271575 0.577380 0.923669 -0.206039
C38   C     C_R   0.540656 0.812215 0.505395 -0.057029
C39   C     C_R   0.458724 0.187763 0.493362 -0.072989
C40   C     C_R   0.333699 0.029297 0.435026 -0.222225
Cl1   Cl    Cl    0.918205 0.699392 0.333045 -0.694975
Cl2   Cl    Cl    0.084678 0.304818 0.670956 -0.647522
H1    H     H_    0.838179 0.590795 0.118236 0.176124
H2    H     H_    0.121685 0.561201 0.011220 0.131571
H3    H     H_    0.689388 0.599748 0.182447 0.193374
H4    H     H_    0.324316 0.583843 0.810265 0.156092
H5    H     H_    0.344144 0.828508 0.424954 0.169247
H6    H     H_    0.655189 0.171229 0.574171 0.169789
H7    H     H_    0.244579 0.988728 0.396412 0.153366
H8    H     H_    0.755234 0.010584 0.602104 0.157347
H9    H     H_    0.778540 0.600085 0.414196 0.187288
H10   H     H_    0.221502 0.400054 0.585857 0.194431
H11   H     H_    0.809058 0.820468 0.671435 0.185079
H12   H     H_    0.174947 0.583711 0.874875 0.152524
H13   H     H_    0.828680 0.834524 0.569694 0.209289
H14   H     H_    0.152640 0.144883 0.372525 0.193979
H15   H     H_    0.235517 0.236269 0.340418 0.181866
H16   H     H_    0.839319 0.359623 0.622307 0.161132
H17   H     H_    0.161535 0.641609 0.378906 0.159817
H18   H     H_    0.563422 0.524685 0.228287 0.163206
H19   H     H_    0.441909 0.500325 0.774888 0.168937
H20   H     H_    0.185513 0.528730 0.183054 0.158321
H21   H     H_    0.818918 0.518452 0.814944 0.160127
H22   H     H_    0.887919 0.557206 0.984353 0.131968
N1    N     N_R   0.799120 0.480200 0.517090 -0.130665
N2    N     N_R   0.200880 0.519800 0.482910 -0.132641
N3    N     N_3   0.767556 0.805836 0.598271 -0.427949
N4    N     N_3   0.231727 0.195255 0.399287 -0.412034
O1    O     O_R   0.580150 0.341050 0.504560 -0.623543
O2    O     O_R   0.419850 0.658950 0.495440 -0.627614
O3    O     O_R   0.388090 0.353760 0.493600 -0.592584
O4    O     O_R   0.611910 0.646240 0.506400 -0.591156
O5    O     O_R   0.650890 0.490020 0.640860 -0.618142
O6    O     O_R   0.349110 0.509980 0.359140 -0.622611
O7    O     O_R   0.458830 0.502730 0.629890 -0.619151
O8    O     O_R   0.541170 0.497270 0.370110 -0.618980
Zn1   Zn    Zn3+2 0.628240 0.491510 0.507320 0.959090
Zn2   Zn    Zn3+2 0.371760 0.508490 0.492680 0.956644

loop_
_geom_bond_atom_site_label_1
_geom_bond_atom_site_label_2
_ccdc_geom_bond_type
C21   C26   A    
C23   H3    S    
C10   Cl2   S    
C34   C37   A    
C14   C18   A    
O1    Zn1   S    
C3    N4    S    
C7    C8    A    
C13   N1    A    
C15   C19   A    
C1    O3    A    
C30   C35   A    
C24   C26   A    
O2    Zn2   S    
C20   C25   A    
C40   H7    S    
C16   O7    A    
C29   C33   A    
C27   C29   A    
C18   C19   A    
C25   H21   S    
C2    H8    S    
C9    C19   A    
C14   H10   S    
C2    C7    A    
C22   C25   A    
C17   O8    A    
C6    C38   A    
C34   H4    S    
C15   H9    S    
C27   H19   S    
C11   N2    A    
C12   O4    A    
C3    C39   A    
C11   H17   S    
C28   H18   S    
N2    Zn2   S    
C5    H6    S    
N1    Zn1   S    
C22   C31   A    
C16   O5    A    
O8    Zn1   S    
C6    H5    S    
C5    C7    A    
C6    C8    A    
C13   H16   S    
H14   N4    S    
C1    O1    A    
C2    C4    A    
C24   C32   A    
O4    Zn1   S    
C16   C20   S    
C33   C34   A    
C14   N2    A    
C32   C37   A    
C9    C11   A    
C37   H12   S    
C21   C28   A    
C4    C38   A    
C3    C40   A    
C23   C35   A    
C5    C39   A    
C17   O6    A    
C24   H2    S    
H15   N4    S    
C12   O2    A    
C10   C13   A    
C4    N3    S    
H13   N3    S    
C20   C27   A    
C9    Cl1   S    
C28   C30   A    
C26   H20   S    
C29   C31   A    
C30   C32   A    
C10   C18   A    
C33   C35   A    
C12   C38   S    
H11   N3    S    
O7    Zn2   S    
C17   C21   S    
C1    C39   S    
C22   H22   S    
C23   C36   A    
O6    Zn2   S    
O5    Zn1   S    
C31   C36   A    
C36   H1    S    
C8    C40   A    
O3    Zn2   S    
C15   N1    A    
