data_mof_unit_16413.cif
_audit_creation_date              2012-12-11T15:20:35-0500
_audit_creation_method            fapswitch 2.2
_symmetry_space_group_name_H-M    P1
_symmetry_Int_Tables_number       1
_space_group_crystal_system       triclinic
_cell_length_a                    21.601617
_cell_length_b                    7.23505
_cell_length_c                    19.966422
_cell_angle_alpha                 89.707363
_cell_angle_beta                  87.499459
_cell_angle_gamma                 89.642249
_cell_volume                      3117.45909819

loop_
_atom_site_label
_atom_site_type_symbol
_atom_type_description
_atom_site_fract_x
_atom_site_fract_y
_atom_site_fract_z
_atom_type_partial_charge
O1    O     O_R   0.688010 0.379840 0.189360 -0.523324
O2    O     O_R   0.311990 0.620160 0.810640 -0.523326
O3    O     O_R   0.811990 0.879840 0.310640 -0.518140
O4    O     O_R   0.188010 0.120160 0.689360 -0.518135
O5    O     O_R   0.808630 0.708850 0.184280 -0.516083
O6    O     O_R   0.191370 0.291150 0.815720 -0.516085
O7    O     O_R   0.691370 0.208850 0.315720 -0.524589
O8    O     O_R   0.308630 0.791150 0.684280 -0.524587
C1    C     C_R   0.830429 0.540864 0.166632 0.744653
C2    C     C_R   0.169571 0.459136 0.833368 0.744665
C3    C     C_R   0.669478 0.041060 0.333250 0.746279
C4    C     C_R   0.330522 0.958940 0.666750 0.746283
O9    O     O_R   0.688260 0.709510 0.181570 -0.512936
O10   O     O_R   0.311740 0.290490 0.818430 -0.512937
O11   O     O_R   0.811740 0.209510 0.318430 -0.528390
O12   O     O_R   0.188260 0.790490 0.681570 -0.528388
O13   O     O_R   0.690760 0.880550 0.307920 -0.518171
O14   O     O_R   0.309240 0.119450 0.692080 -0.518170
O15   O     O_R   0.809240 0.380550 0.192080 -0.520307
O16   O     O_R   0.190760 0.619450 0.807920 -0.520310
C5    C     C_R   0.667305 0.542199 0.167082 0.756562
C6    C     C_R   0.332695 0.457801 0.832918 0.756564
C7    C     C_R   0.832411 0.040516 0.332995 0.767809
C8    C     C_R   0.167588 0.959484 0.667005 0.767795
O17   O     O_3   0.750960 0.546580 0.291460 -0.368530
O18   O     O_3   0.249040 0.453420 0.708540 -0.368524
O19   O     O_3   0.749040 0.046580 0.208540 -0.353365
O20   O     O_3   0.250960 0.953420 0.791460 -0.353371
V1    V     V_3+5 0.749820 0.821150 0.242310 1.568159
V2    V     V_3+5 0.250180 0.178850 0.757690 1.568157
V3    V     V_3+5 0.750180 0.321150 0.257690 1.543149
V4    V     V_3+5 0.249820 0.678850 0.742310 1.543152
C9    C     C_R   0.057477 0.030051 0.638825 0.058709
C10   C     C_R   0.942524 0.969981 0.361170 0.058715
C11   C     C_R   0.437360 0.357752 0.873964 0.081541
C12   C     C_R   0.562640 0.642253 0.126034 0.081543
C13   C     C_R   0.117532 0.968748 0.618243 -0.132384
C14   C     C_R   0.882467 0.031252 0.381756 -0.132389
C15   C     C_R   0.382666 0.466714 0.881948 -0.132462
C16   C     C_R   0.617333 0.533285 0.118052 -0.132464
C17   C     C_R   0.130715 0.919795 0.550875 0.123365
C18   C     C_R   0.869283 0.080179 0.449126 0.123352
C19   C     C_R   0.374897 0.586009 0.937425 0.143908
C20   C     C_R   0.625102 0.413983 0.062577 0.143914
C21   C     C_R   0.082879 0.921036 0.504267 0.007612
C22   C     C_R   0.917118 0.078941 0.495733 0.007640
C23   C     C_R   0.423507 0.609639 0.981879 0.004980
C24   C     C_R   0.576491 0.390353 0.018123 0.004979
C25   C     C_R   0.023172 0.989059 0.524237 -0.029069
C26   C     C_R   0.976825 0.010919 0.475762 -0.029066
C27   C     C_R   0.477208 0.496785 0.975202 -0.016817
C28   C     C_R   0.522791 0.503209 0.024799 -0.016818
C29   C     C_R   0.008803 0.028055 0.592851 0.033035
C30   C     C_R   0.991196 0.971945 0.407148 0.033022
C31   C     C_R   0.486755 0.383067 0.917942 0.035003
C32   C     C_R   0.513245 0.616932 0.082058 0.035005
C33   C     C_R   0.093400 0.866078 0.437025 0.190165
C34   C     C_R   0.906597 0.133910 0.562974 0.190118
C35   C     C_R   0.418720 0.734932 0.035668 0.197697
C36   C     C_R   0.581278 0.265061 0.964334 0.197703
C37   C     C_R   0.053513 0.927462 0.387948 0.101367
C38   C     C_R   0.946487 0.072543 0.612052 0.101395
C39   C     C_R   0.455277 0.708751 0.091133 0.105915
C40   C     C_R   0.544722 0.291248 0.908868 0.105911
C41   C     C_1   0.382785 0.968894 0.614655 -0.140877
C42   C     C_1   0.617215 0.031106 0.385345 -0.140880
C43   C     C_1   0.117354 0.469351 0.885497 -0.130487
C44   C     C_1   0.882646 0.530649 0.114503 -0.130480
C45   C     C_1   0.426354 0.979706 0.571847 0.039243
C46   C     C_1   0.573645 0.020294 0.428152 0.039243
C47   C     C_1   0.073750 0.480072 0.928267 0.046659
C48   C     C_1   0.926250 0.519928 0.071734 0.046666
C49   C     C_1   0.478144 0.993881 0.521297 0.028208
C50   C     C_1   0.521855 0.006119 0.478703 0.028207
C51   C     C_1   0.021889 0.493998 0.978738 0.032775
C52   C     C_1   0.978111 0.506002 0.021262 0.032778
I1    I     I_    0.048092 0.175780 0.732904 -0.436418
I2    I     I_    0.951920 0.824387 0.267063 -0.436412
I3    I     I_    0.436738 0.117950 0.809646 -0.411675
I4    I     I_    0.563266 0.882074 0.190343 -0.411668
I5    I     I_    0.227039 0.917525 0.518457 -0.346484
I6    I     I_    0.772959 0.082414 0.481544 -0.346479
I7    I     I_    0.281107 0.661458 0.967402 -0.331067
I8    I     I_    0.718890 0.338521 0.032601 -0.331070
I9    I     I_    0.149736 0.632111 0.409090 -0.367494
I10   I     I_    0.850257 0.367878 0.590900 -0.367471
I11   I     I_    0.379113 0.005417 0.026315 -0.345572
I12   I     I_    0.620880 0.994570 0.973688 -0.345580
C53   C     C_3   0.082055 0.975318 0.319010 -0.337310
C54   C     C_3   0.140009 0.094892 0.323008 -0.657140
H1    H     H_    0.129337 0.219985 0.353447 0.255281
H2    H     H_    0.178358 0.016886 0.345519 0.258557
H3    H     H_    0.155899 0.139108 0.271790 0.227863
H4    H     H_    0.093882 0.847110 0.290764 0.231704
H5    H     H_    0.049491 0.059858 0.290143 0.215891
C55   C     C_3   0.917950 0.024758 0.680998 -0.337315
C56   C     C_3   0.860008 0.905122 0.677023 -0.657154
H6    H     H_    0.821674 0.982974 0.654419 0.258578
H7    H     H_    0.870714 0.779871 0.646683 0.255258
H8    H     H_    0.844076 0.861172 0.728259 0.227851
H9    H     H_    0.950520 0.940294 0.709884 0.215885
H10   H     H_    0.906109 0.152999 0.709219 0.231699
C57   C     C_3   0.425397 0.746547 0.160210 -0.339392
C58   C     C_3   0.361336 0.658204 0.169633 -0.678097
H11   H     H_    0.327724 0.724124 0.136325 0.259588
H12   H     H_    0.364270 0.507860 0.158730 0.240645
H13   H     H_    0.343738 0.676586 0.222288 0.230567
H14   H     H_    0.453239 0.684066 0.199895 0.209405
H15   H     H_    0.421295 0.897827 0.168681 0.230279
C59   C     C_3   0.574605 0.253463 0.839792 -0.339392
C60   C     C_3   0.638669 0.341791 0.830375 -0.678097
H16   H     H_    0.635740 0.492129 0.841291 0.240650
H17   H     H_    0.672278 0.275838 0.863679 0.259586
H18   H     H_    0.656266 0.323437 0.777719 0.230570
H19   H     H_    0.578703 0.102185 0.831316 0.230281
H20   H     H_    0.546767 0.315963 0.800108 0.209408

loop_
_geom_bond_atom_site_label_1
_geom_bond_atom_site_label_2
_ccdc_geom_bond_type
C34   C38   A    
O1    C5    A    
C38   C55   S    
O19   V1    S    
C19   I7    S    
C49   C50   T    
O3    C7    A    
C60   H16   S    
C18   I6    S    
C48   C52   S    
O15   V3    S    
C58   H12   S    
C56   H6    S    
C36   I12   S    
C2    C43   S    
O7    C3    A    
C21   C33   A    
C26   C30   A    
O9    V1    S    
C14   C18   A    
C55   H10   S    
O4    C8    A    
C25   C29   A    
O1    V3    S    
O13   V1    S    
O2    V4    S    
C18   C22   A    
C53   H4    S    
O3    V1    S    
C46   C50   S    
C59   C60   S    
C40   C59   S    
C1    O15   A    
C2    O16   A    
O2    C6    A    
C45   C49   S    
C57   H14   S    
O14   V2    S    
C16   C20   A    
C27   C31   A    
C3    C42   S    
C44   C48   T    
O11   C7    A    
O12   C8    A    
C55   H9    S    
C22   C34   A    
O10   V2    S    
C34   I10   S    
C58   H11   S    
C56   H7    S    
C37   C53   S    
C24   C36   A    
O5    V1    S    
C31   C40   A    
C9    C29   A    
O7    V3    S    
C11   C31   A    
C27   C28   A    
O8    V4    S    
C12   C16   A    
C39   C57   S    
C12   I4    S    
O18   V4    S    
C15   C19   A    
C9    C13   A    
C53   H5    S    
C11   C15   A    
C51   C52   T    
O5    C1    A    
C12   C32   A    
C29   C38   A    
C54   H2    S    
C21   C25   A    
O8    C4    A    
C17   I5    S    
C55   C56   S    
C8    C13   S    
C32   C39   A    
O9    C5    A    
C60   H17   S    
C33   C37   A    
O6    V2    S    
C10   C30   A    
C59   H20   S    
C56   H8    S    
C54   H3    S    
O16   V4    S    
C3    O13   A    
C10   C14   A    
O17   V3    S    
C20   I8    S    
O6    C2    A    
C23   C27   A    
O11   V3    S    
C30   C37   A    
O12   V4    S    
C7    C14   S    
C4    C41   S    
C22   C26   A    
C35   C39   A    
C36   C40   A    
C57   H15   S    
O10   C6    A    
O20   V2    S    
C1    C44   S    
C10   I2    S    
C47   C51   S    
C9    I1    S    
C54   H1    S    
C42   C46   T    
C5    C16   S    
C41   C45   T    
C6    C15   S    
C11   I3    S    
C33   I9    S    
C60   H18   S    
C43   C47   T    
C13   C17   A    
C35   I11   S    
C23   C35   A    
C28   C32   A    
C24   C28   A    
C25   C26   A    
C4    O14   A    
C57   C58   S    
C17   C21   A    
C53   C54   S    
C19   C23   A    
C59   H19   S    
C58   H13   S    
O4    V2    S    
C20   C24   A    
