data_mof_unit_9040.cif
_audit_creation_date              2012-12-10T18:53:02-0500
_audit_creation_method            fapswitch 2.2
_symmetry_space_group_name_H-M    P1
_symmetry_Int_Tables_number       1
_space_group_crystal_system       triclinic
_cell_length_a                    9.901442
_cell_length_b                    10.666137
_cell_length_c                    16.789737
_cell_angle_alpha                 91.164323
_cell_angle_beta                  82.263528
_cell_angle_gamma                 89.210415
_cell_volume                      1756.41964878

loop_
_atom_site_label
_atom_site_type_symbol
_atom_type_description
_atom_site_fract_x
_atom_site_fract_y
_atom_site_fract_z
_atom_type_partial_charge
C1    C     C_R   0.499001 0.739758 0.501973 0.932971
C2    C     C_R   0.056375 0.575899 0.553019 0.205628
C3    C     C_R   0.086477 0.423223 0.448836 -0.089198
C4    C     C_R   0.913578 0.577070 0.550994 -0.089241
C5    C     C_R   0.477623 0.499510 0.652932 0.893016
C6    C     C_R   0.522418 0.500196 0.346965 0.890798
C7    C     C_R   0.455982 0.509522 0.739565 -0.079347
C8    C     C_R   0.543763 0.488769 0.260213 -0.143464
C9    C     C_R   0.517515 0.609444 0.775244 -0.349350
C10   C     C_R   0.472985 0.394287 0.225307 -0.209523
C11   C     C_R   0.503550 0.623075 0.858732 0.524197
C12   C     C_R   0.501026 0.260225 0.498003 0.938945
C13   C     C_R   0.486497 0.377800 0.142600 0.512021
C14   C     C_R   0.426874 0.535166 0.905436 0.008093
C15   C     C_R   0.570614 0.460168 0.094296 -0.084822
C16   C     C_R   0.358955 0.439401 0.870182 -0.290206
C17   C     C_R   0.647713 0.549814 0.128791 -0.216688
C18   C     C_R   0.373385 0.424280 0.786787 0.174229
C19   C     C_R   0.635185 0.566125 0.212116 0.158427
C20   C     C_2   0.441478 0.525424 0.990229 0.441030
C21   C     C_2   0.556861 0.473043 0.009458 0.355426
C22   C     C_3   0.712379 0.671670 0.246564 -0.408046
C23   C     C_R   0.586927 0.937236 0.546829 0.471218
C24   C     C_3   0.617509 0.781545 0.276990 -0.798891
C25   C     C_3   0.310498 0.310919 0.751158 -0.422337
C26   C     C_3   0.417918 0.208976 0.725057 -0.823073
C27   C     C_3   0.891203 0.325882 0.393179 -0.398074
C28   C     C_3   0.910839 0.191896 0.420635 -0.841826
C29   C     C_3   0.107101 0.659795 0.615692 -0.401226
C30   C     C_3   0.063439 0.612693 0.700482 -0.853555
C31   C     C_R   0.413514 0.062705 0.452705 0.470192
C32   C     C_R   0.588707 0.066400 0.542749 -0.413199
C33   C     C_R   0.411708 0.933469 0.456768 -0.405383
C34   C     C_R   0.502077 0.127606 0.496731 -0.104019
C35   C     C_R   0.498174 0.872339 0.502947 -0.113056
C36   C     C_R   0.943177 0.420284 0.449356 0.198795
H1    H     H_    0.578313 0.675320 0.737925 0.167353
H2    H     H_    0.537045 0.751867 0.324944 0.241081
H3    H     H_    0.677002 0.856766 0.302016 0.246754
H4    H     H_    0.767726 0.637661 0.295299 0.228159
H5    H     H_    0.792009 0.707503 0.199861 0.205894
H6    H     H_    0.369663 0.127939 0.698144 0.251451
H7    H     H_    0.499169 0.244781 0.679668 0.244230
H8    H     H_    0.464521 0.176478 0.777758 0.269664
H9    H     H_    0.231028 0.270548 0.796097 0.209908
H10   H     H_    0.258006 0.337186 0.699530 0.225393
H11   H     H_    0.736112 0.399553 0.976772 0.337023
H12   H     H_    0.406052 0.333050 0.262721 0.190032
H13   H     H_    0.262109 0.598686 0.022600 0.335474
H14   H     H_    0.442626 0.273069 0.053362 0.328907
H15   H     H_    0.619166 0.769479 0.854441 0.333075
H16   H     H_    0.723148 0.933757 0.620623 0.327338
H17   H     H_    0.277784 0.066220 0.378634 0.330918
H18   H     H_    0.862981 0.181765 0.483814 0.271504
H19   H     H_    0.862433 0.125277 0.381843 0.252108
H20   H     H_    0.020900 0.167064 0.416185 0.261918
H21   H     H_    0.783357 0.340296 0.388186 0.267850
H22   H     H_    0.946669 0.336191 0.331602 0.189358
H23   H     H_    0.303334 0.370988 0.908090 0.164408
H24   H     H_    0.950830 0.617839 0.715870 0.260022
H25   H     H_    0.098607 0.514263 0.705321 0.265364
H26   H     H_    0.109326 0.671794 0.744653 0.254935
H27   H     H_    0.217897 0.667189 0.607207 0.270407
H28   H     H_    0.066003 0.756506 0.611039 0.188879
H29   H     H_    0.710033 0.613093 0.090260 0.174794
H30   H     H_    0.654719 0.119361 0.577006 0.166481
H31   H     H_    0.345691 0.880377 0.422539 0.172718
H32   H     H_    0.152971 0.362405 0.408033 0.182787
H33   H     H_    0.847180 0.638640 0.591328 0.181381
H34   H     H_    0.568530 0.820132 0.226781 0.271354
N1    N     N_R   0.142790 0.500030 0.500020 -0.119295
N2    N     N_R   0.857210 0.499970 0.499980 -0.119409
O1    O     O_R   0.385380 0.683250 0.500010 -0.660056
O2    O     O_3   0.337361 0.563942 0.049378 -0.769186
O3    O     O_3   0.411675 0.284657 0.111645 -0.752316
O4    O     O_3   0.568515 0.716908 0.896068 -0.758214
O5    O     O_3   0.667501 0.873083 0.594162 -0.786304
O6    O     O_3   0.333043 0.126919 0.405350 -0.782312
O7    O     O_R   0.614620 0.316750 0.499990 -0.643593
O8    O     O_R   0.614710 0.683220 0.500000 -0.566119
O9    O     O_R   0.385290 0.316780 0.500000 -0.569319
O10   O     O_R   0.371780 0.500040 0.615800 -0.639645
O11   O     O_R   0.628220 0.499960 0.384200 -0.652749
O12   O     O_R   0.601110 0.500010 0.615800 -0.604418
O13   O     O_R   0.398890 0.499990 0.384200 -0.605622
O14   O     O_3   0.661307 0.435599 0.950180 -0.777123
Zn1   Zn    Zn3+2 0.346870 0.500020 0.500000 0.948627
Zn2   Zn    Zn3+2 0.653130 0.499980 0.500000 0.947671

loop_
_geom_bond_atom_site_label_1
_geom_bond_atom_site_label_2
_ccdc_geom_bond_type
C29   H27   S    
C2    C4    A    
C3    H32   S    
C28   H20   S    
C24   H34   S    
C1    C35   S    
C6    O13   A    
C2    C29   S    
C11   O4    S    
C11   C14   A    
C22   H5    S    
O10   Zn1   S    
C12   O7    A    
C24   H3    S    
C7    C9    A    
C4    H33   S    
C17   C19   A    
O1    Zn1   S    
C13   O3    S    
C30   H24   S    
C24   H2    S    
C31   C33   A    
O11   Zn2   S    
C29   H28   S    
C18   C25   S    
O7    Zn2   S    
N2    Zn2   S    
C28   H19   S    
C26   H7    S    
O13   Zn1   S    
C8    C19   A    
C26   H8    S    
H11   O14   S    
C14   C20   S    
C19   C22   S    
H15   O4    S    
C27   H21   S    
C5    C7    S    
C5    O12   A    
C28   H18   S    
H16   O5    S    
C6    C8    S    
C25   C26   S    
C10   C13   A    
C16   H23   S    
C32   C34   A    
C3    N1    A    
C29   C30   S    
C7    C18   A    
C22   H4    S    
C9    H1    S    
C31   C34   A    
C20   O2    S    
C23   O5    S    
C9    C11   A    
O9    Zn1   S    
N1    Zn1   S    
C16   C18   A    
C23   C35   A    
C13   C15   A    
C10   H12   S    
C14   C16   A    
C12   C34   S    
C2    N1    A    
C25   H9    S    
C4    N2    A    
C33   H31   S    
C31   O6    S    
C32   H30   S    
C15   C17   A    
C21   O14   S    
C6    O11   A    
O12   Zn2   S    
C27   H22   S    
C27   C36   S    
C17   H29   S    
C1    O1    A    
C23   C32   A    
C30   H26   S    
H17   O6    S    
O8    Zn2   S    
H14   O3    S    
C5    O10   A    
C3    C36   A    
C33   C35   A    
C12   O9    A    
C22   C24   S    
C26   H6    S    
C15   C21   S    
C20   C21   D    
C8    C10   A    
C30   H25   S    
C27   C28   S    
C1    O8    A    
H13   O2    S    
C25   H10   S    
C36   N2    A    
