data_mof_unit_61396.cif
_audit_creation_date              2012-12-10T19:36:36-0500
_audit_creation_method            fapswitch 2.2
_symmetry_space_group_name_H-M    P1
_symmetry_Int_Tables_number       1
_space_group_crystal_system       triclinic
_cell_length_a                    30.68556
_cell_length_b                    30.49093
_cell_length_c                    24.663399
_cell_angle_alpha                 90.002204
_cell_angle_beta                  128.269444
_cell_angle_gamma                 90.000061
_cell_volume                      18117.0042176

loop_
_atom_site_label
_atom_site_type_symbol
_atom_type_description
_atom_site_fract_x
_atom_site_fract_y
_atom_site_fract_z
_atom_type_partial_charge
C1    C     C_R   0.810227 0.810087 0.500882 0.891113
C2    C     C_R   0.189775 0.810086 0.499121 0.891195
C3    C     C_R   0.309261 0.310116 0.498907 0.892292
C4    C     C_R   0.690725 0.310114 0.501062 0.892272
C5    C     C_R   0.645163 0.750036 0.289885 -0.036228
C6    C     C_R   0.354841 0.750038 0.710115 -0.036219
C7    C     C_R   0.144872 0.249746 0.289873 -0.035530
C8    C     C_R   0.855142 0.249742 0.710128 -0.035517
C9    C     C_R   0.464930 0.750055 0.930192 0.286512
C10   C     C_R   0.535083 0.750054 0.069808 0.286482
C11   C     C_R   0.965179 0.249436 0.930194 0.287326
C12   C     C_R   0.034853 0.249439 0.069807 0.287289
C13   C     C_R   0.836751 0.851699 0.442319 0.086103
C14   C     C_R   0.163373 0.851795 0.557736 0.086183
C15   C     C_R   0.395818 0.349284 0.555945 0.092220
C16   C     C_R   0.604295 0.349482 0.443852 0.092841
C17   C     C_R   0.842762 0.843841 0.502097 -0.129173
C18   C     C_R   0.157236 0.843838 0.497895 -0.129068
C19   C     C_R   0.340778 0.343943 0.498045 -0.133433
C20   C     C_R   0.659219 0.343938 0.501936 -0.133191
C21   C     C_R   0.874077 0.872830 0.558573 -0.024045
C22   C     C_R   0.125793 0.872736 0.441323 -0.024641
C23   C     C_R   0.315176 0.375286 0.444493 -0.020427
C24   C     C_R   0.684774 0.375103 0.555734 -0.020599
C25   C     C_R   0.905264 0.905483 0.557333 -0.254814
C26   C     C_R   0.094611 0.905397 0.442563 -0.254634
C27   C     C_R   0.347798 0.407790 0.445880 -0.255103
C28   C     C_R   0.652165 0.407614 0.554356 -0.254482
C29   C     C_R   0.904204 0.909293 0.499794 -0.126204
C30   C     C_R   0.095798 0.909299 0.500190 -0.126368
C31   C     C_R   0.404909 0.409230 0.500807 -0.122836
C32   C     C_R   0.595113 0.409235 0.499202 -0.123415
C33   C     C_R   0.867016 0.884180 0.441058 0.154414
C34   C     C_R   0.133105 0.884276 0.558988 0.154552
C35   C     C_R   0.427515 0.381757 0.557525 0.153879
C36   C     C_R   0.572608 0.381954 0.442295 0.154226
C37   C     C_3   0.876928 0.857097 0.399148 -0.466621
C38   C     C_3   0.123369 0.857260 0.601121 -0.466313
C39   C     C_3   0.477707 0.353083 0.593308 -0.472724
C40   C     C_3   0.522280 0.353399 0.405967 -0.471862
C41   C     C_3   0.843446 0.821144 0.400630 -0.482600
C42   C     C_3   0.156856 0.821307 0.599649 -0.482948
C43   C     C_3   0.442564 0.317135 0.591460 -0.479227
C44   C     C_3   0.557412 0.317454 0.407783 -0.480422
C45   C     C_R   0.682743 0.750002 0.365356 0.856889
C46   C     C_R   0.317257 0.750003 0.634644 0.857155
C47   C     C_R   0.182663 0.249925 0.365351 0.863409
C48   C     C_R   0.817341 0.249924 0.634650 0.863527
C49   C     C_R   0.828581 0.746845 0.744795 -0.109597
C50   C     C_R   0.168807 0.750761 0.253362 -0.110063
C51   C     C_R   0.328793 0.250089 0.745284 -0.103976
C52   C     C_R   0.668568 0.251804 0.253125 -0.105056
C53   C     C_R   0.863749 0.744695 0.817316 0.371789
C54   C     C_R   0.132469 0.750139 0.180776 0.372250
C55   C     C_R   0.363876 0.247583 0.817754 0.369852
C56   C     C_R   0.632144 0.250761 0.180573 0.370846
C57   C     C_R   0.921860 0.743029 0.854503 -0.016799
C58   C     C_R   0.074760 0.746508 0.145190 -0.015216
C59   C     C_R   0.421706 0.242677 0.854774 -0.015858
C60   C     C_R   0.574659 0.245948 0.145288 -0.013524
C61   C     C_R   0.943811 0.742002 0.818793 -0.200102
C62   C     C_R   0.054051 0.743956 0.182187 -0.203373
C63   C     C_R   0.443269 0.238554 0.818840 -0.202149
C64   C     C_R   0.554103 0.242484 0.182341 -0.206428
C65   C     C_R   0.909048 0.743846 0.747234 -0.182274
C66   C     C_R   0.089924 0.744498 0.253823 -0.180077
C67   C     C_R   0.408534 0.240483 0.747287 -0.196110
C68   C     C_R   0.590050 0.243223 0.253955 -0.193494
C69   C     C_R   0.851634 0.747027 0.709880 -0.126044
C70   C     C_R   0.147173 0.748225 0.289882 -0.127754
C71   C     C_R   0.351518 0.246976 0.710058 -0.131396
C72   C     C_R   0.647165 0.248189 0.289857 -0.130775
C73   C     C_R   0.035100 0.745444 0.069660 0.334050
C74   C     C_R   0.960740 0.742824 0.930282 0.334419
C75   C     C_R   0.535058 0.244891 0.069916 0.334809
C76   C     C_R   0.460710 0.242491 0.930587 0.333240
C77   C     C_R   0.680255 0.622365 0.543585 0.124283
C78   C     C_R   0.319826 0.621689 0.457775 0.125463
C79   C     C_R   0.140549 0.120452 0.460417 0.131247
C80   C     C_R   0.859936 0.120706 0.540111 0.130849
C81   C     C_R   0.656533 0.657301 0.498252 -0.089901
C82   C     C_R   0.343527 0.657279 0.501810 -0.092762
C83   C     C_R   0.158195 0.157247 0.501817 -0.101080
C84   C     C_R   0.841774 0.157256 0.498152 -0.100135
C85   C     C_R   0.598294 0.660355 0.451315 -0.203177
C86   C     C_R   0.401756 0.660960 0.547423 -0.202600
C87   C     C_R   0.142624 0.162144 0.544506 -0.199775
C88   C     C_R   0.856804 0.161922 0.454875 -0.200926
C89   C     C_R   0.690106 0.689973 0.499989 0.880521
C90   C     C_R   0.309927 0.689964 0.500060 0.880704
C91   C     C_R   0.190180 0.189945 0.500194 0.881408
C92   C     C_R   0.809812 0.189949 0.499799 0.881300
C93   C     C_R   0.565883 0.627884 0.451055 -0.204585
C94   C     C_R   0.434166 0.628489 0.547680 -0.205119
C95   C     C_R   0.110410 0.129705 0.544673 -0.204168
C96   C     C_R   0.889044 0.129491 0.454734 -0.204578
C97   C     C_R   0.591949 0.593344 0.499223 -0.099482
C98   C     C_R   0.408071 0.593310 0.500779 -0.098378
C99   C     C_R   0.092447 0.093301 0.500469 -0.097666
C100  C     C_R   0.907554 0.093336 0.499514 -0.098022
C101  C     C_R   0.649275 0.592166 0.545011 0.131054
C102  C     C_R   0.350761 0.591480 0.456281 0.130290
C103  C     C_R   0.108005 0.090240 0.458686 0.127884
C104  C     C_R   0.892493 0.090513 0.541838 0.128387
C105  C     C_3   0.698184 0.567257 0.603067 -0.472204
C106  C     C_3   0.301884 0.565706 0.399900 -0.476199
C107  C     C_3   0.104214 0.062768 0.406000 -0.481925
C108  C     C_3   0.896921 0.063347 0.595220 -0.480996
C109  C     C_3   0.733809 0.602319 0.601935 -0.477415
C110  C     C_3   0.266276 0.600764 0.401073 -0.476553
C111  C     C_3   0.141112 0.097797 0.407367 -0.478486
C112  C     C_3   0.860009 0.098362 0.593850 -0.479748
C113  C     C_R   0.439982 0.560071 0.500082 0.883836
C114  C     C_R   0.560015 0.560093 0.499920 0.883767
C115  C     C_R   0.939923 0.060038 0.499970 0.883519
C116  C     C_R   0.060092 0.060014 0.500029 0.883624
C117  C     C_R   0.939593 0.940045 0.500058 0.884793
C118  C     C_R   0.060409 0.940047 0.499938 0.884703
C119  C     C_R   0.439706 0.440008 0.500115 0.884597
C120  C     C_R   0.560296 0.440006 0.499884 0.884747
C121  C     C_R   0.816492 0.749336 0.634520 0.881687
C122  C     C_R   0.183399 0.749437 0.365428 0.881050
C123  C     C_R   0.316438 0.249286 0.634583 0.876940
C124  C     C_R   0.683417 0.249424 0.365418 0.876919
C125  C     C_R   0.610930 0.786359 0.253669 -0.188130
C126  C     C_R   0.389075 0.786362 0.746335 -0.188076
C127  C     C_R   0.110067 0.285780 0.253503 -0.165643
C128  C     C_R   0.889987 0.285759 0.746502 -0.165277
C129  C     C_R   0.575390 0.786532 0.181838 -0.154035
C130  C     C_R   0.424619 0.786535 0.818166 -0.153890
C131  C     C_R   0.074510 0.285828 0.181677 -0.151623
C132  C     C_R   0.925551 0.285807 0.818326 -0.151460
C133  C     C_R   0.572973 0.750068 0.145383 0.083284
C134  C     C_R   0.427037 0.750069 0.854617 0.083314
C135  C     C_R   0.072563 0.249481 0.145373 0.081646
C136  C     C_R   0.927466 0.249476 0.854628 0.081647
C137  C     C_R   0.606950 0.713611 0.181649 -0.154244
C138  C     C_R   0.393057 0.713612 0.818347 -0.154243
C139  C     C_R   0.106928 0.213226 0.181776 -0.153106
C140  C     C_R   0.893065 0.213235 0.818224 -0.153149
C141  C     C_R   0.643194 0.713755 0.253492 -0.188324
C142  C     C_R   0.356810 0.713756 0.746504 -0.188221
C143  C     C_R   0.143232 0.213520 0.253621 -0.193599
C144  C     C_R   0.856753 0.213530 0.746379 -0.193715
H1    H     H_    0.612027 0.814780 0.280846 0.158904
H2    H     H_    0.387977 0.814783 0.719161 0.158923
H3    H     H_    0.110740 0.314089 0.280542 0.168637
H4    H     H_    0.889339 0.314056 0.719465 0.168596
H5    H     H_    0.868477 0.791636 0.430154 0.218846
H6    H     H_    0.131859 0.791749 0.570280 0.218822
H7    H     H_    0.456051 0.308090 0.643482 0.203178
H8    H     H_    0.544128 0.308606 0.355788 0.203227
H9    H     H_    0.988241 0.740602 0.846453 0.176974
H10   H     H_    0.009853 0.741086 0.155470 0.174208
H11   H     H_    0.487456 0.234657 0.846297 0.176565
H12   H     H_    0.509997 0.238767 0.155666 0.172989
H13   H     H_    0.927122 0.743597 0.720925 0.163882
H14   H     H_    0.072844 0.742565 0.281239 0.164642
H15   H     H_    0.426444 0.237767 0.720920 0.162011
H16   H     H_    0.573102 0.240510 0.281462 0.161242
H17   H     H_    0.578202 0.687249 0.414874 0.162847
H18   H     H_    0.421864 0.688343 0.582873 0.164027
H19   H     H_    0.155715 0.190450 0.577816 0.177387
H20   H     H_    0.843260 0.190038 0.421092 0.175921
H21   H     H_    0.521046 0.630071 0.414444 0.167281
H22   H     H_    0.479000 0.631154 0.583277 0.166855
H23   H     H_    0.098972 0.133288 0.578116 0.166858
H24   H     H_    0.900071 0.132890 0.420848 0.166765
H25   H     H_    0.701398 0.568162 0.650487 0.219821
H26   H     H_    0.297612 0.565916 0.351736 0.218799
H27   H     H_    0.125060 0.030493 0.427092 0.202915
H28   H     H_    0.876266 0.030950 0.574731 0.202676
H29   H     H_    0.701398 0.534165 0.586872 0.200390
H30   H     H_    0.299742 0.532860 0.417709 0.200782
H31   H     H_    0.061327 0.061528 0.356409 0.216252
H32   H     H_    0.939959 0.062397 0.644577 0.216348
H33   H     H_    0.757231 0.623703 0.648444 0.208651
H34   H     H_    0.241783 0.621445 0.353812 0.206860
H35   H     H_    0.183140 0.085678 0.428748 0.214972
H36   H     H_    0.818169 0.086116 0.573073 0.214871
H37   H     H_    0.549338 0.814939 0.154871 0.152793
H38   H     H_    0.450673 0.814942 0.845137 0.152820
H39   H     H_    0.048100 0.314053 0.154589 0.154379
H40   H     H_    0.951990 0.314020 0.845416 0.154410
H41   H     H_    0.757943 0.589448 0.585576 0.214921
H42   H     H_    0.243213 0.588122 0.419065 0.214971
H43   H     H_    0.119410 0.117014 0.358737 0.202390
H44   H     H_    0.881851 0.117863 0.642234 0.202584
H45   H     H_    0.605951 0.685211 0.154519 0.152731
H46   H     H_    0.394057 0.685211 0.845474 0.152639
H47   H     H_    0.106244 0.184907 0.154746 0.152517
H48   H     H_    0.893725 0.184928 0.845252 0.152448
H49   H     H_    0.669176 0.685325 0.280539 0.158702
H50   H     H_    0.330826 0.685326 0.719454 0.158606
H51   H     H_    0.169562 0.185264 0.280776 0.156715
H52   H     H_    0.830394 0.185286 0.719222 0.156715
H53   H     H_    0.931587 0.926707 0.601791 0.172768
H54   H     H_    0.068193 0.926549 0.398039 0.172972
H55   H     H_    0.329190 0.430854 0.403416 0.169820
H56   H     H_    0.670728 0.430534 0.596995 0.170073
H57   H     H_    0.856106 0.871044 0.346769 0.212756
H58   H     H_    0.144252 0.871294 0.653466 0.212782
H59   H     H_    0.490601 0.345876 0.560856 0.194543
H60   H     H_    0.509118 0.346064 0.438100 0.194493
H61   H     H_    0.921437 0.848527 0.427790 0.196455
H62   H     H_    0.078891 0.848642 0.572628 0.196461
H63   H     H_    0.511480 0.364802 0.646409 0.213876
H64   H     H_    0.488709 0.365307 0.352911 0.214005
H65   H     H_    0.803301 0.814346 0.349124 0.207216
H66   H     H_    0.197066 0.814594 0.651125 0.207247
H67   H     H_    0.434996 0.289000 0.557896 0.218730
H68   H     H_    0.564703 0.289192 0.441003 0.218651
N1    N     N_R   0.517323 0.711710 0.034307 -0.170263
N2    N     N_R   0.482688 0.711710 0.965686 -0.170237
N3    N     N_R   0.017207 0.211090 0.034314 -0.171108
N4    N     N_R   0.982790 0.211089 0.965685 -0.171104
N5    N     N_R   0.482851 0.788395 0.965694 -0.171531
N6    N     N_R   0.517164 0.788394 0.034312 -0.171530
N7    N     N_R   0.982994 0.287776 0.965694 -0.168406
N8    N     N_R   0.017073 0.287778 0.034310 -0.168430
N9    N     N_R   0.009003 0.720066 0.964150 -0.161498
N10   N     N_R   0.986800 0.768081 0.035890 -0.154095
N11   N     N_R   0.508148 0.218601 0.964479 -0.162144
N12   N     N_R   0.487669 0.268705 0.036187 -0.154516
N13   N     N_R   0.045414 0.721174 0.032667 -0.101515
N14   N     N_R   0.950447 0.767021 0.967374 -0.093245
N15   N     N_R   0.544600 0.219643 0.033000 -0.102858
N16   N     N_R   0.451358 0.267764 0.967690 -0.093499
O1    O     O_R   0.821670 0.769930 0.500000 -0.623717
O2    O     O_R   0.178330 0.769930 0.500000 -0.623795
O3    O     O_R   0.321670 0.269930 0.500000 -0.623578
O4    O     O_R   0.678330 0.269930 0.500000 -0.623780
O5    O     O_R   0.482840 0.545830 0.557470 -0.620563
O6    O     O_R   0.517160 0.545830 0.442530 -0.621052
O7    O     O_R   0.982840 0.045830 0.557470 -0.622733
O8    O     O_R   0.017160 0.045830 0.442530 -0.622890
O9    O     O_R   0.925420 0.954200 0.442500 -0.617766
O10   O     O_R   0.074580 0.954200 0.557500 -0.617742
O11   O     O_R   0.425420 0.454200 0.442500 -0.625858
O12   O     O_R   0.574580 0.454200 0.557500 -0.625896
O13   O     O_R   0.982890 0.954220 0.557510 -0.626671
O14   O     O_R   0.017110 0.954220 0.442490 -0.626680
O15   O     O_R   0.482890 0.454220 0.557510 -0.617274
O16   O     O_R   0.517110 0.454220 0.442490 -0.617226
O17   O     O_R   0.769920 0.821660 0.500020 -0.614509
O18   O     O_R   0.230080 0.821660 0.499980 -0.614397
O19   O     O_R   0.269920 0.321660 0.500020 -0.613117
O20   O     O_R   0.730080 0.321660 0.499980 -0.612981
O21   O     O_R   0.724940 0.724130 0.398140 -0.623266
O22   O     O_R   0.275060 0.724130 0.601860 -0.623296
O23   O     O_R   0.224940 0.224130 0.398140 -0.625259
O24   O     O_R   0.775060 0.224130 0.601860 -0.625224
O25   O     O_R   0.673180 0.775850 0.398150 -0.623478
O26   O     O_R   0.326820 0.775850 0.601850 -0.623379
O27   O     O_R   0.173180 0.275850 0.398150 -0.618072
O28   O     O_R   0.826820 0.275850 0.601850 -0.618127
O29   O     O_R   0.730060 0.678320 0.499990 -0.622206
O30   O     O_R   0.269940 0.678320 0.500010 -0.622040
O31   O     O_R   0.230060 0.178320 0.499990 -0.621129
O32   O     O_R   0.769940 0.178320 0.500010 -0.621247
O33   O     O_R   0.678300 0.730040 0.500010 -0.615142
O34   O     O_R   0.321700 0.730040 0.499990 -0.615819
O35   O     O_R   0.178300 0.230040 0.500010 -0.617220
O36   O     O_R   0.821700 0.230040 0.499990 -0.617113
O37   O     O_R   0.826790 0.724120 0.601860 -0.621950
O38   O     O_R   0.173210 0.724120 0.398140 -0.622760
O39   O     O_R   0.326790 0.224120 0.601860 -0.617632
O40   O     O_R   0.673210 0.224120 0.398140 -0.618274
O41   O     O_R   0.775040 0.775850 0.601880 -0.606858
O42   O     O_R   0.224960 0.775850 0.398120 -0.606587
O43   O     O_R   0.275040 0.275850 0.601880 -0.614714
O44   O     O_R   0.724960 0.275850 0.398120 -0.613756
O45   O     O_R   0.425360 0.545810 0.442460 -0.622388
O46   O     O_R   0.574640 0.545810 0.557540 -0.622157
O47   O     O_R   0.925360 0.045810 0.442460 -0.619288
O48   O     O_R   0.074640 0.045810 0.557540 -0.618822
Zn1   Zn    Zn3+2 0.784540 0.715450 0.500000 0.961098
Zn2   Zn    Zn3+2 0.215460 0.715450 0.500000 0.960103
Zn3   Zn    Zn3+2 0.284540 0.215450 0.500000 0.961680
Zn4   Zn    Zn3+2 0.715460 0.215450 0.500000 0.961211
Zn5   Zn    Zn3+2 0.715430 0.784520 0.500010 0.991008
Zn6   Zn    Zn3+2 0.284570 0.784520 0.499990 0.991266
Zn7   Zn    Zn3+2 0.215430 0.284520 0.500010 0.992627
Zn8   Zn    Zn3+2 0.784570 0.284520 0.499990 0.993208
Zn9   Zn    Zn3+2 0.461590 0.500000 0.423210 0.967700
Zn10  Zn    Zn3+2 0.538410 0.500000 0.576790 0.968383
Zn11  Zn    Zn3+2 0.961590 1.000000 0.423210 0.967049
Zn12  Zn    Zn3+2 0.038410 0.000000 0.576790 0.967638
C145  C     C_1   0.768962 0.746654 0.706534 0.280522
N17   N     N_1   0.721326 0.746428 0.675919 -0.166566
C146  C     C_1   0.228140 0.752426 0.289814 0.284588
N18   N     N_1   0.275558 0.753690 0.318969 -0.166235
C147  C     C_1   0.269442 0.254078 0.707600 0.288691
N19   N     N_1   0.222043 0.257309 0.677590 -0.185258
C148  C     C_1   0.727730 0.255256 0.289208 0.286543
N20   N     N_1   0.775000 0.258020 0.317987 -0.184475
Cl1   Cl    Cl    0.834204 0.741343 0.860226 -0.584005
Cl2   Cl    Cl    0.159598 0.756178 0.135319 -0.581529
Cl3   Cl    Cl    0.334202 0.247915 0.860678 -0.582977
Cl4   Cl    Cl    0.658668 0.257713 0.134556 -0.582528
C149  C     C_1   0.877814 0.867689 0.619598 0.170273
N21   N     N_1   0.880788 0.863498 0.668438 -0.187959
C150  C     C_1   0.121927 0.867494 0.380219 0.170744
N22   N     N_1   0.118850 0.863223 0.331318 -0.185177
C151  C     C_1   0.256974 0.372836 0.385799 0.178901
N23   N     N_1   0.210371 0.370873 0.338783 -0.209731
C152  C     C_1   0.742896 0.372459 0.614631 0.178792
N24   N     N_1   0.789433 0.370343 0.661810 -0.209557

loop_
_geom_bond_atom_site_label_1
_geom_bond_atom_site_label_2
_ccdc_geom_bond_type
C99   C103  A    
C40   H64   S    
C133  C137  A    
C55   C59   A    
C76   N16   A    
O45   Zn9   S    
C77   C101  A    
C146  N18   T    
C136  C140  A    
O47   Zn11  S    
O10   Zn12  S    
C114  O6    A    
C107  H27   S    
C149  N21   T    
O38   Zn2   S    
C135  C139  A    
O12   Zn10  S    
C4    O4    A    
C95   C99   A    
C41   H5    S    
C110  H34   S    
C29   C33   A    
C100  C104  A    
C116  O48   A    
C46   O22   A    
C12   C135  S    
C96   H24   S    
C3    C19   S    
C43   H67   S    
C16   C44   S    
C11   N7    A    
C11   N4    A    
C117  O9    A    
C49   C69   A    
C72   C124  S    
C111  H35   S    
O41   Zn5   S    
C130  C134  A    
C100  C115  S    
C51   C71   A    
N12   N16   A    
C13   C41   S    
O25   Zn5   S    
C25   C29   A    
C27   C31   A    
C28   C32   A    
C121  O37   A    
C99   C116  S    
C30   C34   A    
C109  H41   S    
C98   C102  A    
C124  O40   A    
C56   Cl4   S    
C48   O24   A    
C113  O5    A    
N3    N4    A    
C13   C33   A    
C52   C72   A    
C78   C82   A    
O5    Zn10  S    
C68   C72   A    
C80   C112  S    
C142  H50   S    
C92   O36   A    
C105  H25   S    
C129  C133  A    
C89   O33   A    
C113  O45   A    
C90   O30   A    
O20   Zn8   S    
C91   O35   A    
C84   C88   A    
C10   N1    A    
C57   C61   A    
C83   C91   S    
C59   C63   A    
O3    Zn3   S    
C60   C64   A    
O4    Zn4   S    
C75   N15   A    
C50   C70   A    
C1    O17   A    
C11   C136  S    
C66   C70   A    
C49   C53   A    
O1    Zn1   S    
O21   Zn1   S    
C51   C55   A    
O24   Zn4   S    
C127  C131  A    
O15   Zn10  S    
C4    C20   S    
C125  C129  A    
C38   H58   S    
O27   Zn7   S    
C94   C98   A    
C67   H15   S    
C50   C146  S    
C68   H16   S    
C12   N8    A    
O44   Zn8   S    
O29   Zn1   S    
N9    N13   A    
O31   Zn3   S    
C7    C143  A    
C74   N9    A    
C44   H8    S    
C107  H31   S    
O2    Zn2   S    
C64   C68   A    
C71   C123  S    
N11   N15   A    
C45   O21   A    
C139  C143  A    
C8    C128  A    
C40   H60   S    
C87   C95   A    
O46   Zn10  S    
C54   Cl2   S    
C47   O23   A    
C112  H36   S    
O11   Zn9   S    
C105  H29   S    
C106  H26   S    
C79   C103  A    
O7    Zn12  S    
C62   C66   A    
C27   H55   S    
C8    C144  A    
C3    O3    A    
C30   C118  S    
N5    N6    A    
C88   H20   S    
C147  N19   T    
C123  O39   A    
C70   C122  S    
O43   Zn7   S    
C132  C136  A    
C145  N17   T    
O8    Zn11  S    
C141  H49   S    
O42   Zn6   S    
C77   C109  S    
O33   Zn5   S    
O26   Zn6   S    
C55   Cl3   S    
C75   N12   A    
C26   C30   A    
C108  H28   S    
O17   Zn5   S    
C121  O41   A    
C122  O38   A    
C112  H44   S    
C123  O43   A    
C21   C25   A    
C110  H42   S    
C49   C145  S    
C18   C22   A    
C107  C111  S    
C24   C28   A    
C95   H23   S    
C14   C34   A    
C103  C107  S    
C144  H52   S    
O6    Zn9   S    
C1    C17   S    
C13   C17   A    
C24   C152  S    
C15   C43   S    
C148  N20   T    
C125  H1    S    
C16   C36   A    
C119  O11   A    
C96   C100  A    
C61   C65   A    
C37   C41   S    
C26   H54   S    
O23   Zn3   S    
C91   O31   A    
C2    O2    A    
C40   C44   S    
C56   C60   A    
C5    C125  A    
C84   C92   S    
C7    C127  A    
C97   C114  S    
C59   C76   S    
C81   C85   A    
C118  O14   A    
C58   C62   A    
C83   C87   A    
C88   C96   A    
C39   H59   S    
C78   C102  A    
C85   H17   S    
C10   C133  S    
C80   C84   A    
C94   H22   S    
C115  O7    A    
N1    N2    A    
C15   C19   A    
C50   C54   A    
C80   C104  A    
O22   Zn2   S    
C139  H47   S    
C54   C58   A    
C126  C130  A    
C9    N5    A    
O19   Zn7   S    
C131  H39   S    
C124  O44   A    
O30   Zn2   S    
C6    C142  A    
C38   H62   S    
C42   H66   S    
C81   C89   S    
C118  O10   A    
C3    O19   A    
C76   N11   A    
C152  N24   T    
C37   H61   S    
C6    C126  A    
C65   H13   S    
C138  C142  A    
N7    N8    A    
C53   C57   A    
C128  H4    S    
C98   C113  S    
C82   C86   A    
C5    C45   S    
C33   C37   S    
C108  C112  S    
C7    C47   S    
C35   C39   S    
C8    C48   S    
C47   O27   A    
C93   C97   A    
C77   C81   A    
C143  H51   S    
C116  O8    A    
C106  H30   S    
C31   C119  S    
C120  O12   A    
O36   Zn8   S    
C31   C35   A    
C23   C151  S    
O9    Zn11  S    
C32   C36   A    
C104  C108  S    
C43   H7    S    
C114  O46   A    
O48   Zn12  S    
C137  C141  A    
C140  C144  A    
C9    N2    A    
O40   Zn4   S    
C60   C75   S    
C111  H43   S    
C82   C90   S    
C22   C150  S    
C2    O18   A    
C132  H40   S    
C79   C83   A    
O37   Zn1   S    
O34   Zn6   S    
C105  C109  S    
C65   C69   A    
C108  H32   S    
O39   Zn3   S    
O18   Zn6   S    
C67   C71   A    
C52   C148  S    
C17   C21   A    
C122  O42   A    
C109  H33   S    
C74   N14   A    
C151  N23   T    
C22   C26   A    
C37   H57   S    
C12   N3    A    
C46   O26   A    
C87   H19   S    
C2    C18   S    
C14   C18   A    
C19   C23   A    
C53   Cl1   S    
C126  H2    S    
C28   H56   S    
C73   N10   A    
C38   C42   S    
C131  C135  A    
O32   Zn4   S    
N10   N14   A    
O35   Zn7   S    
C120  O16   A    
C4    O20   A    
C86   C94   A    
C150  N22   T    
C39   H63   S    
C86   H18   S    
C23   C27   A    
C48   O28   A    
C16   C20   A    
C14   C42   S    
C41   H65   S    
C9    C134  S    
C93   H21   S    
O16   Zn9   S    
C138  H46   S    
C85   C93   A    
C32   C120  S    
C90   O34   A    
C128  C132  A    
C15   C35   A    
C92   O32   A    
C101  C105  S    
C63   C67   A    
O28   Zn8   S    
C20   C24   A    
C36   C40   S    
C89   O29   A    
C130  H38   S    
C39   C43   S    
C29   C117  S    
C62   H10   S    
C44   H68   S    
C57   C74   S    
C1    O1    A    
C5    C141  A    
C69   C121  S    
C78   C110  S    
C137  H45   S    
C140  H48   S    
C66   H14   S    
C10   N6    A    
C106  C110  S    
C129  H37   S    
C6    C46   S    
C34   C38   S    
C61   H9    S    
C134  C138  A    
C64   H12   S    
C79   C111  S    
C63   H11   S    
C73   N13   A    
C102  C106  S    
C21   C149  S    
O13   Zn12  S    
C42   H6    S    
O14   Zn11  S    
C51   C147  S    
C25   H53   S    
C115  O47   A    
C127  H3    S    
C119  O15   A    
C97   C101  A    
C52   C56   A    
C58   C73   S    
C45   O25   A    
C117  O13   A    
