data_mof_unit_44767.cif
_audit_creation_date              2012-12-10T17:06:42-0500
_audit_creation_method            fapswitch 2.2
_symmetry_space_group_name_H-M    P1
_symmetry_Int_Tables_number       1
_space_group_crystal_system       triclinic
_cell_length_a                    15.833261
_cell_length_b                    11.012413
_cell_length_c                    9.900976
_cell_angle_alpha                 110.984404
_cell_angle_beta                  97.582743
_cell_angle_gamma                 92.651876
_cell_volume                      1589.58874523

loop_
_atom_site_label
_atom_site_type_symbol
_atom_type_description
_atom_site_fract_x
_atom_site_fract_y
_atom_site_fract_z
_atom_type_partial_charge
C1    C     C_R   0.494884 0.254297 0.440589 0.847081
C2    C     C_R   0.506371 0.745781 0.559344 0.838063
C3    C     C_2   0.507883 0.069805 0.515525 -0.146645
C4    C     C_2   0.501180 0.930466 0.483619 -0.171120
C5    C     C_2   0.517509 0.495778 0.077540 0.418184
C6    C     C_2   0.499577 0.475428 0.914826 0.404356
C7    C     C_R   0.340188 0.500891 0.501576 0.801925
C8    C     C_R   0.659773 0.498817 0.498385 0.807260
C9    C     C_3   0.974831 0.421524 0.571221 -0.316861
C10   C     C_3   0.025393 0.576827 0.431843 -0.233777
C11   C     C_3   0.019343 0.379467 0.434462 0.539561
C12   C     C_3   0.980440 0.618546 0.568063 0.540230
C13   C     C_1   0.250765 0.501433 0.504683 -0.177699
C14   C     C_1   0.749091 0.496827 0.495170 -0.164905
C15   C     C_3   0.040167 0.546062 0.642558 -0.322794
C16   C     C_3   0.960487 0.452491 0.359622 -0.305831
C17   C     C_3   0.083484 0.501447 0.504617 0.083185
C18   C     C_3   0.916434 0.496533 0.497104 0.039926
C19   C     C_1   0.175245 0.501593 0.505538 0.005208
C20   C     C_1   0.824588 0.495977 0.494692 -0.032235
C21   C     C_2   0.492167 0.114561 0.407246 -0.362542
C22   C     C_2   0.512103 0.885637 0.592428 -0.351927
Cu1   Cu    Cu3+1 0.514700 0.521810 0.644910 0.967252
Cu2   Cu    Cu3+1 0.485300 0.478190 0.355090 0.976421
H1    H     H_    0.952869 0.357188 0.626768 0.152904
H2    H     H_    0.047365 0.642405 0.377740 0.153658
H3    H     H_    0.927241 0.413499 0.244425 0.153170
H4    H     H_    0.074242 0.584871 0.757218 0.144485
H5    H     H_    0.486278 0.864185 0.369885 0.176498
H6    H     H_    0.524396 0.136138 0.629076 0.224121
H7    H     H_    0.526026 0.952335 0.706128 0.158598
H8    H     H_    0.476273 0.047821 0.293773 0.149161
H9    H     H_    0.554104 0.649402 0.932171 0.126838
H10   H     H_    0.400089 0.432912 0.091658 0.133481
N1    N     N_2   0.463210 0.445420 0.137360 -0.299875
N2    N     N_2   0.536790 0.554580 0.862640 -0.302879
O1    O     O_R   0.507840 0.332340 0.577400 -0.509276
O2    O     O_R   0.492160 0.667660 0.422600 -0.576420
O3    O     O_R   0.483020 0.295500 0.332650 -0.572971
O4    O     O_R   0.516980 0.704500 0.667350 -0.586385
O5    O     O_R   0.391490 0.518400 0.622350 -0.572629
O6    O     O_R   0.608510 0.481600 0.377650 -0.499110
O7    O     O_R   0.366660 0.481570 0.377600 -0.578009
O8    O     O_R   0.633340 0.518430 0.622400 -0.574428
O9    O     O_3   0.046446 0.255044 0.365149 -0.577352
C23   C     C_3   0.974840 0.160395 0.312071 0.071844
H11   H     H_    0.928281 0.181636 0.230808 0.139233
H12   H     H_    0.942387 0.155861 0.403524 0.144014
C24   C     C_3   0.004552 0.026856 0.236262 -0.784174
H13   H     H_    0.051504 0.002694 0.314278 0.254970
H14   H     H_    0.948881 0.951077 0.196390 0.193752
H15   H     H_    0.035072 0.026689 0.141399 0.248362
O10   O     O_3   0.957716 0.747065 0.630307 -0.579056
C25   C     C_3   0.936163 0.768714 0.770318 0.066921
H16   H     H_    0.994951 0.778734 0.850170 0.142496
H17   H     H_    0.890414 0.688278 0.769235 0.145981
C26   C     C_3   0.893855 0.895102 0.821343 -0.785434
H18   H     H_    0.835094 0.888147 0.742933 0.249848
H19   H     H_    0.875942 0.912814 0.931039 0.195784
H20   H     H_    0.938749 0.978584 0.828641 0.251607
O11   O     O_3   0.462167 0.353236 0.817107 -0.551164
C27   C     C_3   0.371844 0.341893 0.807338 0.053969
H21   H     H_    0.344126 0.436909 0.827246 0.129656
H22   H     H_    0.353360 0.297693 0.884790 0.130686
C28   C     C_3   0.330371 0.244498 0.657336 -0.715892
H23   H     H_    0.353614 0.147150 0.638988 0.237753
H24   H     H_    0.259758 0.234758 0.652001 0.197494
H25   H     H_    0.344781 0.276830 0.568640 0.241105
O12   O     O_3   0.601022 0.535163 0.151727 -0.534300
C29   C     C_3   0.624806 0.669270 0.183972 0.056810
H26   H     H_    0.569151 0.728601 0.192372 0.098532
H27   H     H_    0.661061 0.678727 0.099047 0.138383
C30   C     C_3   0.686881 0.727009 0.327672 -0.715101
H28   H     H_    0.742966 0.669542 0.323257 0.247425
H29   H     H_    0.709875 0.829422 0.346379 0.187017
H30   H     H_    0.655106 0.727796 0.420996 0.235582

loop_
_geom_bond_atom_site_label_1
_geom_bond_atom_site_label_2
_ccdc_geom_bond_type
C1    C21   S    
Cu2   O6    S    
C30   H28   S    
H9    N2    S    
C15   H4    S    
C9    H1    S    
O10   C25   S    
C23   C24   S    
C6    O11   S    
C8    O6    A    
C5    C6    S    
C26   H19   S    
C10   C17   S    
Cu1   O4    S    
Cu1   N2    S    
Cu2   O3    S    
H10   N1    S    
C27   H22   S    
C25   H16   S    
C28   H24   S    
C2    C22   S    
Cu2   O2    S    
Cu1   Cu2   S    
C29   H26   S    
C7    O7    A    
C4    H5    S    
C1    O1    A    
C10   H2    S    
C16   H3    S    
C30   H29   S    
O12   C29   S    
C23   H12   S    
C21   H8    S    
C25   H17   S    
Cu2   N1    S    
C22   H7    S    
C13   C19   T    
C14   C20   T    
C26   H20   S    
C24   H14   S    
O9    C23   S    
C5    O12   S    
Cu1   O8    S    
C3    H6    S    
C27   H21   S    
Cu1   O1    S    
C4    C22   D    
C11   C16   S    
C2    O2    A    
C12   C15   S    
C28   H25   S    
C29   C30   S    
C9    C11   S    
C8    O8    A    
C10   C12   S    
C24   H13   S    
C30   H30   S    
C11   O9    S    
C3    C4    S    
C15   C17   S    
C23   H11   S    
C11   C17   S    
C8    C14   S    
C27   C28   S    
C12   O10   S    
C24   H15   S    
Cu1   O5    S    
C9    C15   S    
C10   C16   S    
C26   H18   S    
C5    N1    D    
C17   C19   S    
C6    N2    D    
C18   C20   S    
C7    O5    A    
O11   C27   S    
C3    C21   D    
C1    O3    A    
C2    O4    A    
C9    C18   S    
C7    C13   S    
C16   C18   S    
C28   H23   S    
C12   C18   S    
Cu2   O7    S    
C29   H27   S    
C25   C26   S    
