data_mof_unit_9627.cif
_audit_creation_date              2012-12-10T20:43:21-0500
_audit_creation_method            fapswitch 2.2
_symmetry_space_group_name_H-M    P1
_symmetry_Int_Tables_number       1
_space_group_crystal_system       triclinic
_cell_length_a                    15.771179
_cell_length_b                    10.802896
_cell_length_c                    10.002452
_cell_angle_alpha                 89.867701
_cell_angle_beta                  90.657417
_cell_angle_gamma                 90.865033
_cell_volume                      1703.85154976

loop_
_atom_site_label
_atom_site_type_symbol
_atom_type_description
_atom_site_fract_x
_atom_site_fract_y
_atom_site_fract_z
_atom_type_partial_charge
C1    C     C_R   0.497343 0.260469 0.499619 0.863013
C2    C     C_R   0.469296 0.935104 0.376366 0.456167
C3    C     C_R   0.478604 0.869224 0.498221 -0.215404
C4    C     C_R   0.339738 0.498215 0.499380 0.847221
C5    C     C_R   0.475065 0.936590 0.615700 -0.162904
C6    C     C_3   0.455623 0.928541 0.763371 0.743093
C7    C     C_3   0.463013 0.072923 0.760728 0.856625
C8    C     C_R   0.425541 0.504540 0.069474 0.047965
C9    C     C_R   0.573446 0.517025 0.073232 0.427469
C10   C     C_R   0.572937 0.520527 0.930044 -0.111387
C11   C     C_R   0.426269 0.500743 0.928535 0.023417
C12   C     C_R   0.043110 0.387473 0.542941 -0.266523
C13   C     C_3   0.355849 0.409290 0.921810 -0.586048
C14   C     C_3   0.351248 0.415816 0.074503 0.420759
C15   C     C_R   0.492793 0.738497 0.499663 0.863095
C16   C     C_R   0.660307 0.499313 0.500900 0.905329
C17   C     C_R   0.955381 0.388721 0.546640 -0.162334
C18   C     C_R   0.912967 0.494591 0.504964 0.115269
C19   C     C_R   0.956765 0.599583 0.460078 -0.316156
C20   C     C_R   0.045178 0.599919 0.458914 0.496608
C21   C     C_R   0.087197 0.492357 0.498408 0.058416
C22   C     C_3   0.611646 0.124329 0.788246 0.063115
C23   C     C_1   0.823939 0.495004 0.505325 -0.059508
C24   C     C_3   0.674390 0.186087 0.884869 -0.734084
C25   C     C_3   0.674410 0.651597 0.155568 0.111118
C26   C     C_3   0.770158 0.661858 0.173210 -0.795462
C27   C     C_2   0.651707 0.559319 0.864004 0.992383
C28   C     C_2   0.269505 0.473416 0.121774 0.851945
C29   C     C_3   0.316039 0.207966 0.126293 0.152283
C30   C     C_3   0.268541 0.184812 0.256120 -0.867304
C31   C     C_3   0.080205 0.803319 0.496355 0.107850
C32   C     C_3   0.150794 0.897643 0.471435 -0.854564
C33   C     C_3   0.350488 0.854313 0.278764 0.094662
C34   C     C_1   0.176244 0.491380 0.497968 0.008295
C35   C     C_3   0.308075 0.833475 0.143555 -0.754756
C36   C     C_3   0.348492 0.772700 0.747015 0.126660
C37   C     C_3   0.258802 0.739381 0.790187 -0.864058
C38   C     C_3   0.504599 0.871934 0.977026 0.224667
C39   C     C_3   0.580593 0.927418 0.052561 -0.822673
C40   C     C_3   0.322945 0.135703 0.689498 0.094502
C41   C     C_3   0.235715 0.155770 0.748138 -0.841600
C42   C     C_1   0.251263 0.493825 0.498257 -0.134238
C43   C     C_1   0.748864 0.496688 0.503553 -0.153815
C44   C     C_R   0.481531 0.060822 0.613886 -0.252288
C45   C     C_R   0.489245 0.128354 0.497102 -0.176708
C46   C     C_R   0.480908 0.063792 0.375519 -0.257120
H1    H     H_    0.076497 0.305362 0.574692 0.157839
H2    H     H_    0.734448 0.208334 0.832452 0.219083
H3    H     H_    0.647429 0.272877 0.923885 0.296236
H4    H     H_    0.643631 0.691447 0.244588 0.174179
H5    H     H_    0.657593 0.708763 0.067478 0.124072
H6    H     H_    0.801910 0.630331 0.081108 0.269382
H7    H     H_    0.788989 0.759657 0.192855 0.197032
H8    H     H_    0.791437 0.603895 0.258126 0.265089
H9    H     H_    0.774339 0.524106 0.826760 0.332931
H10   H     H_    0.141538 0.468805 0.118361 0.356254
H11   H     H_    0.352360 0.124029 0.102208 0.183008
H12   H     H_    0.299959 0.446721 0.867305 0.191063
H13   H     H_    0.269938 0.221151 0.042696 0.177404
H14   H     H_    0.230916 0.266749 0.283239 0.272515
H15   H     H_    0.224744 0.104208 0.243675 0.212937
H16   H     H_    0.313950 0.165575 0.338881 0.240864
H17   H     H_    0.083083 0.776739 0.604215 0.129589
H18   H     H_    0.018459 0.847758 0.474189 0.143895
H19   H     H_    0.150632 0.925642 0.364563 0.259333
H20   H     H_    0.141190 0.980773 0.534016 0.209472
H21   H     H_    0.213075 0.857042 0.497733 0.242152
H22   H     H_    0.317676 0.932624 0.327568 0.121678
H23   H     H_    0.378982 0.320928 0.884739 0.291503
H24   H     H_    0.340985 0.769557 0.340429 0.187919
H25   H     H_    0.342024 0.760653 0.088535 0.258779
H26   H     H_    0.240948 0.804272 0.157476 0.252597
H27   H     H_    0.308713 0.919842 0.083739 0.231767
H28   H     H_    0.391924 0.702010 0.787250 0.205284
H29   H     H_    0.347384 0.772970 0.636207 0.122480
H30   H     H_    0.237860 0.651502 0.741989 0.223816
H31   H     H_    0.256256 0.726689 0.899877 0.257998
H32   H     H_    0.214623 0.813780 0.760095 0.262547
H33   H     H_    0.494054 0.775238 0.011565 0.140090
H34   H     H_    0.920702 0.307501 0.580904 0.149709
H35   H     H_    0.448354 0.926634 0.004920 0.194051
H36   H     H_    0.572062 0.028173 0.066679 0.273140
H37   H     H_    0.585881 0.885885 0.153631 0.220358
H38   H     H_    0.640305 0.911175 0.998065 0.257692
H39   H     H_    0.318403 0.049975 0.628335 0.159176
H40   H     H_    0.338497 0.215796 0.624017 0.149843
H41   H     H_    0.234441 0.244337 0.803625 0.256020
H42   H     H_    0.187685 0.159666 0.666407 0.199086
H43   H     H_    0.219089 0.078368 0.816760 0.271655
H44   H     H_    0.922463 0.679937 0.425426 0.146286
H45   H     H_    0.477546 0.112542 0.280923 0.213073
H46   H     H_    0.613897 0.179479 0.694903 0.163444
H47   H     H_    0.632964 0.028851 0.767196 0.183580
H48   H     H_    0.689359 0.124327 0.970126 0.228973
N1    N     N_R   0.499440 0.499140 0.142800 -0.123089
N2    N     N_R   0.499440 0.499180 0.857150 -0.128855
O1    O     O_R   0.500010 0.316790 0.614690 -0.604725
O2    O     O_3   0.650250 0.525620 0.140743 -0.564177
O3    O     O_2   0.654975 0.659234 0.806361 -0.604456
O4    O     O_R   0.723811 0.486176 0.874379 -0.808357
O5    O     O_2   0.271276 0.565179 0.192625 -0.638867
O6    O     O_R   0.191403 0.422611 0.080809 -0.839383
O7    O     O_3   0.375071 0.306599 0.143667 -0.598855
O8    O     O_3   0.091280 0.700671 0.411426 -0.599423
O9    O     O_3   0.438276 0.878413 0.261875 -0.639243
O10   O     O_3   0.371137 0.890411 0.796825 -0.672168
O11   O     O_3   0.520436 0.869078 0.837865 -0.637428
O12   O     O_R   0.500000 0.316760 0.385350 -0.576633
O13   O     O_3   0.383947 0.127292 0.794782 -0.629585
O14   O     O_R   0.378030 0.499990 0.614640 -0.647543
O15   O     O_R   0.378020 0.499950 0.385300 -0.561128
O16   O     O_R   0.500000 0.683240 0.614650 -0.590512
O17   O     O_R   0.499990 0.683210 0.385310 -0.608563
O18   O     O_R   0.621980 0.500050 0.614700 -0.599837
O19   O     O_R   0.621970 0.500010 0.385360 -0.569772
O20   O     O_3   0.529256 0.123467 0.844360 -0.611703
Zn1   Zn    Zn3+2 0.500010 0.500020 0.653130 0.984908
Zn2   Zn    Zn3+2 0.499990 0.499980 0.346870 1.029529

loop_
_geom_bond_atom_site_label_1
_geom_bond_atom_site_label_2
_ccdc_geom_bond_type
C10   C27   S    
C11   N2    A    
C41   H43   S    
C26   H7    S    
C9    O2    S    
C19   C20   A    
C34   C42   T    
C45   C46   A    
C2    C46   A    
C27   O3    D    
C4    C42   S    
O15   Zn2   S    
C5    C6    S    
C36   C37   S    
C39   H38   S    
C24   H48   S    
C38   C39   S    
C38   H33   S    
C23   C43   T    
C29   O7    S    
C18   C19   A    
C40   H40   S    
C38   O11   S    
C25   H4    S    
C28   O5    D    
C29   H13   S    
C30   H14   S    
H9    O4    S    
C6    O11   S    
C15   O17   A    
C9    C10   A    
C9    N1    A    
C22   O20   S    
C35   H25   S    
C13   C14   S    
C8    N1    A    
C12   H1    S    
C26   H8    S    
O14   Zn1   S    
N1    Zn2   S    
C41   H41   S    
C27   O4    S    
C36   O10   S    
C18   C23   S    
C24   H2    S    
C15   O16   A    
O12   Zn2   S    
N2    Zn1   S    
C33   O9    S    
C1    O1    A    
C21   C34   S    
C25   C26   S    
C37   H31   S    
C12   C21   A    
C17   H34   S    
C7    O13   S    
C7    O20   S    
C12   C17   A    
C25   H5    S    
C29   C30   S    
C36   H29   S    
C26   H6    S    
C31   C32   S    
C10   N2    A    
O19   Zn2   S    
C17   C18   A    
C6    O10   S    
C7    C44   S    
C16   C43   S    
C6    C7    S    
C36   H28   S    
C33   H24   S    
C32   H21   S    
C20   O8    S    
C40   C41   S    
C5    C44   A    
C29   H11   S    
C35   H26   S    
C30   H16   S    
C38   H35   S    
C22   H47   S    
C22   C24   S    
C16   O19   A    
C3    C15   S    
C44   C45   A    
C32   H20   S    
C24   H3    S    
C13   H12   S    
C41   H42   S    
C4    O14   A    
C35   H27   S    
C8    C14   S    
C40   H39   S    
C31   H18   S    
C4    O15   A    
C39   H36   S    
C3    C5    A    
C16   O18   A    
C40   O13   S    
C46   H45   S    
C31   H17   S    
C37   H32   S    
C2    O9    S    
C31   O8    S    
C2    C3    A    
C39   H37   S    
C19   H44   S    
C11   C13   S    
C1    C45   S    
C14   O7    S    
O16   Zn1   S    
C13   H23   S    
C8    C11   A    
C33   C35   S    
C37   H30   S    
O1    Zn1   S    
O18   Zn1   S    
C1    O12   A    
H10   O6    S    
O17   Zn2   S    
C28   O6    S    
C25   O2    S    
C20   C21   A    
C30   H15   S    
C22   H46   S    
C14   C28   S    
C33   H22   S    
C32   H19   S    
