data_mof_unit_13088.cif
_audit_creation_date              2012-12-11T16:53:25-0500
_audit_creation_method            fapswitch 2.2
_symmetry_space_group_name_H-M    P1
_symmetry_Int_Tables_number       1
_space_group_crystal_system       triclinic
_cell_length_a                    14.926183
_cell_length_b                    14.746631
_cell_length_c                    17.155818
_cell_angle_alpha                 109.207967
_cell_angle_beta                  106.522463
_cell_angle_gamma                 107.866615
_cell_volume                      3066.25831414

loop_
_atom_site_label
_atom_site_type_symbol
_atom_type_description
_atom_site_fract_x
_atom_site_fract_y
_atom_site_fract_z
_atom_type_partial_charge
C1    C     C_R   0.094472 0.276808 0.031013 -0.124898
C2    C     C_R   0.063082 0.531189 0.265377 0.794101
C3    C     C_R   0.278949 0.785457 0.175744 -0.133207
C4    C     C_R   0.933220 0.526865 0.752722 0.575470
C5    C     C_R   0.732538 0.461233 0.043095 -0.101122
C6    C     C_R   0.335776 0.782261 0.253146 0.018195
C7    C     C_R   0.706799 0.539057 0.029603 0.048990
C8    C     C_R   0.970336 0.505331 0.274730 -0.071074
C9    C     C_R   0.998146 0.824543 0.986733 0.047624
C10   C     C_R   0.520618 0.653928 0.040959 0.125171
C11   C     C_R   0.471592 0.600717 0.082370 0.042658
C12   C     C_R   0.021754 0.588371 0.749956 -0.247125
C13   C     C_R   0.528511 0.568198 0.138770 -0.186228
C14   C     C_R   0.617565 0.561566 0.131881 -0.185564
C15   C     C_R   0.647946 0.586869 0.068255 0.045334
C16   C     C_R   0.763242 0.199748 0.809729 -0.087179
C17   C     C_R   0.608081 0.646955 0.033927 0.148527
C18   C     C_3   0.575043 0.641045 0.940712 -0.497845
C19   C     C_3   0.479366 0.648693 0.948192 -0.451437
C20   C     C_R   0.955980 0.535507 0.358435 -0.079791
C21   C     C_R   0.020937 0.622632 0.679113 0.115258
C22   C     C_R   0.111430 0.710292 0.608346 0.811569
C23   C     C_R   0.749187 0.194001 0.724037 0.096201
C24   C     C_R   0.109057 0.701405 0.686447 -0.324807
C25   C     C_R   0.931867 0.562301 0.596368 -0.114177
C26   C     C_R   0.934766 0.566531 0.518496 -0.008721
C27   C     C_R   0.026655 0.637183 0.522591 -0.300579
C28   C     C_R   0.299692 0.594500 0.002499 -0.108073
C29   C     C_R   0.034229 0.624727 0.440724 0.831594
C30   C     C_R   0.862221 0.472564 0.356061 -0.236800
C31   C     C_R   0.850545 0.490300 0.435430 -0.136350
C32   C     C_R   0.707270 0.098008 0.636689 -0.081252
C33   C     C_R   0.444166 0.856130 0.318558 0.112223
C34   C     C_R   0.359842 0.562406 0.053392 0.040863
C35   C     C_R   0.582375 0.036323 0.395273 -0.173209
C36   C     C_R   0.493213 0.954357 0.319036 -0.159670
C37   C     C_R   0.494002 0.835513 0.388861 -0.178816
C38   C     C_R   0.578990 0.919112 0.467723 0.071134
C39   C     C_R   0.619922 0.021395 0.472303 0.192179
C40   C     C_R   0.779358 0.297944 0.735395 -0.112094
C41   C     C_R   0.687435 0.109432 0.556228 -0.338932
C42   C     C_R   0.678506 0.994481 0.630400 0.768357
C43   C     C_R   0.615124 0.905191 0.545585 -0.317280
C44   C     C_R   0.110002 0.080044 0.916629 0.059246
C45   C     C_R   0.274278 0.689405 0.251789 -0.006479
C46   C     C_R   0.017518 0.075920 0.923566 0.013490
C47   C     C_R   0.927509 0.976548 0.867894 -0.350710
C48   C     C_R   0.934573 0.883782 0.817268 0.749273
C49   C     C_R   0.031250 0.888358 0.821525 0.014541
C50   C     C_R   0.116152 0.988830 0.866159 -0.141223
C51   C     C_3   0.225580 0.026960 0.931001 0.745759
C52   C     C_R   0.296621 0.499058 0.079132 -0.143307
C53   C     C_3   0.218821 0.126419 0.987880 -0.651095
C54   C     C_R   0.105394 0.606760 0.824624 0.651537
C55   C     C_R   0.921246 0.190040 0.960822 -0.124877
C56   C     C_R   0.746502 0.562692 0.971628 -0.117096
C57   C     C_R   0.011492 0.175333 0.974975 0.113841
C58   C     C_R   0.890216 0.441940 0.187663 -0.259967
C59   C     C_R   0.083827 0.808055 0.023730 -0.047144
C60   C     C_R   0.913068 0.724012 0.941788 -0.077433
F1    F     F_    0.160383 0.574338 0.332035 -0.676652
F2    F     F_    0.837476 0.521720 0.714944 -0.683674
F3    F     F_    0.118330 0.695612 0.441590 -0.606132
F4    F     F_    0.199894 0.782501 0.615920 -0.621705
F5    F     F_    0.707116 0.978520 0.705288 -0.716143
F6    F     F_    0.848693 0.788146 0.768984 -0.658839
F7    F     F_    0.234704 0.964051 0.974534 -0.697129
F8    F     F_    0.205502 0.679318 0.858094 -0.703351
H1    H     H_    0.176405 0.296940 0.055874 0.116664
H2    H     H_    0.779288 0.437125 0.432290 0.137221
H3    H     H_    0.177444 0.752324 0.750810 0.235576
H4    H     H_    0.863596 0.499574 0.587983 0.184263
H5    H     H_    0.735326 0.133778 0.824080 0.169515
H6    H     H_    0.458831 0.971525 0.264399 0.127645
H7    H     H_    0.460681 0.758646 0.387786 0.127162
H8    H     H_    0.281884 0.042596 0.900806 0.026614
H9    H     H_    0.221438 0.132958 0.055040 0.227665
H10   H     H_    0.326535 0.659496 0.986157 0.170575
H11   H     H_    0.271557 0.200461 0.990404 0.166848
H12   H     H_    0.740019 0.618615 0.946024 0.105490
H13   H     H_    0.778552 0.326201 0.684901 0.144137
H14   H     H_    0.321750 0.473265 0.130030 0.095975
H15   H     H_    0.298918 0.652570 0.293145 0.154720
H16   H     H_    0.164333 0.867010 0.058449 0.171739
H17   H     H_    0.703636 0.416681 0.076197 0.090565
H18   H     H_    0.497898 0.534639 0.178225 0.129788
H19   H     H_    0.627825 0.712465 0.939925 0.206105
H20   H     H_    0.799117 0.405221 0.294114 0.148742
H21   H     H_    0.714181 0.187235 0.558061 0.150995
H22   H     H_    0.614826 0.114208 0.397456 0.127029
H23   H     H_    0.809451 0.397464 0.169618 0.137852
H24   H     H_    0.587235 0.826256 0.542127 0.189035
H25   H     H_    0.852341 0.969024 0.865635 0.201068
H26   H     H_    0.843180 0.127269 0.926872 0.117719
H27   H     H_    0.835969 0.705390 0.896089 0.163034
H28   H     H_    0.307878 0.837842 0.147886 0.117505
H29   H     H_    0.653263 0.524085 0.167047 0.131852
H30   H     H_    0.556164 0.562453 0.885972 0.211484
H31   H     H_    0.477041 0.724513 0.951634 0.219229
H32   H     H_    0.406872 0.574491 0.897404 0.211560
N1    N     N_R   0.055640 0.348550 0.045600 -0.051181
N2    N     N_R   0.811290 0.303400 0.871650 -0.061381
N3    N     N_R   0.205180 0.552990 0.997660 -0.043190
N4    N     N_R   0.814810 0.361830 0.823710 -0.038731
N5    N     N_R   0.201660 0.494570 0.045600 -0.047500
N6    N     N_R   0.068420 0.560530 0.871650 -0.145782
N7    N     N_R   0.948050 0.295860 0.997660 -0.048304
N8    N     N_R   0.185190 0.638170 0.176290 -0.059398
N9    N     N_R   0.798340 0.505430 0.954400 -0.037436
N10   N     N_R   0.931580 0.439470 0.128350 -0.074896
N11   N     N_R   0.051950 0.704140 0.002340 -0.065404
N12   N     N_R   0.944360 0.651450 0.954400 -0.054551
N13   N     N_R   0.039170 0.492150 0.176290 -0.127220
N14   N     N_R   0.188710 0.696600 0.128350 -0.050379
N15   N     N_R   0.794820 0.447010 0.002340 -0.041758
N16   N     N_R   0.960830 0.507850 0.823710 -0.142593
Ni1   Ni    Ni4+2 0.119330 0.493420 0.109950 0.228520
Ni2   Ni    Ni4+2 0.880670 0.506580 0.890050 0.284019
Ni3   Ni    Ni4+2 0.872590 0.372590 0.000000 0.213038
Ni4   Ni    Ni4+2 0.127410 0.627410 0.000000 0.254807

loop_
_geom_bond_atom_site_label_1
_geom_bond_atom_site_label_2
_ccdc_geom_bond_type
N1    N7    A    
C41   H21   S    
C29   F3    S    
C6    C45   A    
C27   C29   A    
C35   C39   A    
N11   N12   A    
C3    C6    A    
C39   C41   A    
C20   C30   A    
C26   C27   A    
C8    C20   S    
C53   H11   S    
C30   C31   A    
N2    N4    A    
C2    N13   A    
C54   F8    S    
C10   C17   A    
C23   C40   A    
C4    F2    S    
C33   C36   A    
C18   C19   S    
N8    N14   A    
C48   F6    S    
C8    C58   A    
C44   C53   S    
C31   H2    S    
C35   C36   A    
C13   H18   S    
C42   F5    S    
C59   N11   A    
C32   C41   A    
C3    H28   S    
C4    C12   A    
C28   H10   S    
C58   H23   S    
C2    F1    S    
C5    H17   S    
C7    C15   S    
C37   H7    S    
C28   C34   A    
C26   C31   A    
C12   C54   A    
C13   C14   A    
C5    N15   A    
N5    Ni1   S    
C45   H15   S    
C7    C56   A    
C55   H26   S    
N8    Ni1   S    
N7    Ni3   S    
C44   C46   A    
N9    Ni2   S    
C50   C51   S    
N4    Ni2   S    
C20   C29   A    
C54   N6    A    
C16   H5    S    
C59   H16   S    
C5    C7    A    
C19   H31   S    
C25   C26   A    
C12   C21   S    
C1    H1    S    
C55   N7    A    
N11   Ni4   S    
C9    C59   A    
C53   H9    S    
C60   H27   S    
C37   C38   A    
C60   N12   A    
C1    C57   A    
C40   N4    A    
C47   C48   A    
C10   C19   S    
C17   C18   S    
C47   H25   S    
N3    N5    A    
C25   H4    S    
C51   F7    S    
C51   H8    S    
C52   H14   S    
N10   N13   A    
C36   H6    S    
N13   Ni1   S    
C16   N2    A    
C48   C49   A    
C52   N5    A    
C16   C23   A    
N15   Ni3   S    
C22   C27   A    
C55   C57   A    
C46   C57   S    
C22   C24   A    
C42   C43   A    
C30   H20   S    
C1    N1    A    
C56   N9    A    
C14   H29   S    
C44   C50   A    
C15   C17   A    
C21   C25   A    
C46   C47   A    
N6    Ni4   S    
C58   N10   A    
C40   H13   S    
C4    N16   A    
C11   C34   S    
C2    C8    A    
C18   H19   S    
C3    N14   A    
N10   Ni3   S    
C19   H32   S    
C45   N8    A    
C34   C52   A    
C43   H24   S    
C56   H12   S    
C6    C33   S    
C9    C60   A    
N1    Ni1   S    
C23   C32   S    
C38   C43   A    
N12   Ni2   S    
C11   C13   A    
C28   N3    A    
C38   C39   A    
N3    Ni4   S    
N16   Ni2   S    
C33   C37   A    
C10   C11   A    
N9    N15   A    
C22   F4    S    
C35   H22   S    
C49   C50   A    
C21   C24   A    
N6    N16   A    
C32   C42   A    
C14   C15   A    
C18   H30   S    
C51   C53   S    
N14   Ni4   S    
N2    Ni3   S    
C24   H3    S    
