data_mof_unit_60169.cif
_audit_creation_date              2012-12-10T19:01:58-0500
_audit_creation_method            fapswitch 2.2
_symmetry_space_group_name_H-M    P1
_symmetry_Int_Tables_number       1
_space_group_crystal_system       triclinic
_cell_length_a                    43.95187
_cell_length_b                    30.271175
_cell_length_c                    31.802833
_cell_angle_alpha                 89.999921
_cell_angle_beta                  136.456789
_cell_angle_gamma                 90.000035
_cell_volume                      29149.394416

loop_
_atom_site_label
_atom_site_type_symbol
_atom_type_description
_atom_site_fract_x
_atom_site_fract_y
_atom_site_fract_z
_atom_type_partial_charge
C1    C     C_R   0.586237 0.999975 0.085885 0.905997
C2    C     C_R   0.413763 0.999975 0.914115 0.905954
C3    C     C_R   0.086236 0.499975 0.085885 0.905946
C4    C     C_R   0.913763 0.499975 0.914115 0.905956
C5    C     C_3   0.499222 0.000367 0.290356 0.119938
C6    C     C_3   0.500790 0.000328 0.709656 0.119897
C7    C     C_3   0.999209 0.500323 0.290343 0.119891
C8    C     C_3   0.000789 0.500333 0.709655 0.119901
C9    C     C_3   0.462123 0.019333 0.197874 -0.126440
C10   C     C_3   0.539064 0.016808 0.803311 -0.126333
C11   C     C_3   0.960811 0.516516 0.196565 -0.126320
C12   C     C_3   0.038927 0.517123 0.803174 -0.126344
C13   C     C_3   0.497260 0.042220 0.261099 -0.222823
C14   C     C_3   0.505514 0.041963 0.741674 -0.223178
C15   C     C_3   0.994172 0.541922 0.258012 -0.223223
C16   C     C_3   0.005174 0.542004 0.741334 -0.223139
C17   C     C_1   0.499598 0.000055 0.162949 -0.043855
C18   C     C_1   0.500403 0.000053 0.837052 -0.043838
C19   C     C_1   0.999597 0.500052 0.162947 -0.043833
C20   C     C_1   0.000403 0.500053 0.837052 -0.043840
C21   C     C_1   0.499547 0.000228 0.336180 -0.004574
C22   C     C_1   0.500458 0.000204 0.663825 -0.004557
C23   C     C_1   0.999541 0.500200 0.336174 -0.004552
C24   C     C_1   0.000458 0.500207 0.663825 -0.004557
C25   C     C_R   0.703940 0.034141 0.186187 -0.312126
C26   C     C_R   0.296060 0.034142 0.813810 -0.312160
C27   C     C_R   0.203940 0.534141 0.186186 -0.312175
C28   C     C_R   0.796060 0.534140 0.813814 -0.312176
C29   C     C_R   0.658036 0.035153 0.139378 0.545439
C30   C     C_R   0.341964 0.035154 0.860620 0.545424
C31   C     C_R   0.158035 0.535152 0.139377 0.545415
C32   C     C_R   0.841965 0.535152 0.860623 0.545418
C33   C     C_R   0.634229 0.999709 0.133165 -0.207247
C34   C     C_R   0.365771 0.999709 0.866834 -0.207272
C35   C     C_R   0.134229 0.499709 0.133166 -0.207280
C36   C     C_R   0.865771 0.499709 0.866834 -0.207273
C37   C     C_R   0.656591 0.962993 0.171943 -0.291794
C38   C     C_R   0.343409 0.962993 0.828057 -0.291841
C39   C     C_R   0.156591 0.462995 0.171946 -0.291838
C40   C     C_R   0.843409 0.462995 0.828054 -0.291831
C41   C     C_R   0.702371 0.961725 0.217880 0.303511
C42   C     C_R   0.297629 0.961725 0.782120 0.303481
C43   C     C_R   0.202370 0.461727 0.217883 0.303475
C44   C     C_R   0.797629 0.461727 0.782117 0.303481
C45   C     C_R   0.499882 0.999972 0.081162 0.890148
C46   C     C_R   0.500118 0.999972 0.918838 0.890101
C47   C     C_R   0.999882 0.499972 0.081162 0.890089
C48   C     C_R   0.000118 0.499972 0.918838 0.890100
C49   C     C_R   0.726013 0.997713 0.225240 -0.058787
C50   C     C_R   0.273987 0.997714 0.774759 -0.058802
C51   C     C_R   0.226013 0.497713 0.225241 -0.058809
C52   C     C_R   0.773987 0.497713 0.774759 -0.058800
C53   C     C_R   0.796668 0.998250 0.258055 -0.154929
C54   C     C_R   0.203332 0.998251 0.741944 -0.154909
C55   C     C_R   0.296668 0.498248 0.258056 -0.154911
C56   C     C_R   0.703332 0.498248 0.741944 -0.154922
C57   C     C_R   0.842433 0.998969 0.303939 -0.187808
C58   C     C_R   0.157567 0.998970 0.696061 -0.187816
C59   C     C_R   0.342433 0.498968 0.303939 -0.187819
C60   C     C_R   0.657567 0.498968 0.696061 -0.187822
C61   C     C_R   0.865472 0.999651 0.365293 -0.042121
C62   C     C_R   0.134528 0.999651 0.634707 -0.042108
C63   C     C_R   0.365472 0.499652 0.365293 -0.042105
C64   C     C_R   0.634528 0.499651 0.634707 -0.042104
C65   C     C_R   0.842298 0.999862 0.380278 -0.184789
C66   C     C_R   0.157702 0.999862 0.619721 -0.184793
C67   C     C_R   0.342298 0.499865 0.380278 -0.184796
C68   C     C_R   0.657702 0.499865 0.619722 -0.184806
C69   C     C_R   0.796523 0.999165 0.334306 -0.100013
C70   C     C_R   0.203476 0.999165 0.665693 -0.100083
C71   C     C_R   0.296524 0.499168 0.334307 -0.100087
C72   C     C_R   0.703476 0.499168 0.665693 -0.100082
C73   C     C_R   0.773823 0.997992 0.273329 0.177203
C74   C     C_R   0.226176 0.997992 0.726670 0.177228
C75   C     C_R   0.273823 0.497992 0.273330 0.177235
C76   C     C_R   0.726177 0.497992 0.726670 0.177237
C77   C     C_R   0.500000 0.913522 0.500000 0.910552
C78   C     C_R   1.000000 0.413522 0.500000 0.910328
C79   C     C_R   0.499919 0.999955 0.418638 0.904502
C80   C     C_R   0.500081 0.999954 0.581362 0.904337
C81   C     C_R   0.999919 0.499954 0.418638 0.904312
C82   C     C_R   0.000081 0.499954 0.581362 0.904351
C83   C     C_R   0.500000 0.086167 0.500000 0.856920
C84   C     C_R   0.000000 0.586167 0.500000 0.857005
C85   C     C_3   0.535868 0.981545 0.299497 0.602591
C86   C     C_3   0.462982 0.983973 0.699357 0.602579
C87   C     C_3   0.037138 0.484252 0.300763 0.602580
C88   C     C_3   0.963115 0.483670 0.699489 0.602580
C89   C     C_R   1.000000 0.086431 0.500000 0.886233
C90   C     C_R   0.500000 0.586431 0.500000 0.886237
C91   C     C_R   0.913488 0.999962 0.413439 0.884254
C92   C     C_R   0.086512 0.999962 0.586561 0.884250
C93   C     C_R   0.413488 0.499962 0.413439 0.884255
C94   C     C_R   0.586512 0.499962 0.586561 0.884248
C95   C     C_R   1.000000 0.913522 0.500000 0.878474
C96   C     C_R   0.500000 0.413522 0.500000 0.878474
C97   C     C_R   0.459700 0.796563 0.459855 0.260424
C98   C     C_R   0.540300 0.796563 0.540143 0.260416
C99   C     C_R   0.959700 0.296563 0.459842 0.260385
C100  C     C_R   0.040300 0.296563 0.540157 0.260387
C101  C     C_R   0.459876 0.842377 0.460028 -0.208581
C102  C     C_R   0.540124 0.842377 0.539970 -0.208505
C103  C     C_R   0.959876 0.342377 0.460016 -0.208682
C104  C     C_R   0.040124 0.342377 0.539984 -0.208702
C105  C     C_R   0.500000 0.865457 0.499999 -0.147064
C106  C     C_R   0.000000 0.365457 0.500000 -0.147092
C107  C     C_R   0.500000 0.773696 0.499999 -0.074817
C108  C     C_R   1.000000 0.273696 0.499999 -0.074807
C109  C     C_R   0.999869 0.203349 0.538082 -0.086284
C110  C     C_R   0.000131 0.203349 0.461917 -0.086314
C111  C     C_R   0.499866 0.703349 0.538079 -0.086341
C112  C     C_R   0.500134 0.703349 0.461920 -0.086234
C113  C     C_R   0.999869 0.157564 0.538127 -0.181791
C114  C     C_R   0.000131 0.157564 0.461873 -0.181788
C115  C     C_R   0.499867 0.657564 0.538124 -0.181783
C116  C     C_R   0.500134 0.657564 0.461875 -0.181817
C117  C     C_R   1.000000 0.134451 0.500000 -0.045299
C118  C     C_R   0.500000 0.634451 0.500000 -0.045299
C119  C     C_3   0.534795 0.023271 0.270829 -0.252535
C120  C     C_3   0.466812 0.025541 0.730780 -0.252866
C121  C     C_3   0.032996 0.525791 0.269027 -0.252907
C122  C     C_3   0.966606 0.525267 0.730574 -0.252832
C123  C     C_R   1.000000 0.226002 0.499999 0.186233
C124  C     C_R   0.500000 0.726002 0.499999 0.186209
C125  C     C_R   0.461978 0.202991 0.449696 -0.169150
C126  C     C_R   0.538022 0.202991 0.550304 -0.169196
C127  C     C_R   0.961978 0.702991 0.449695 -0.169152
C128  C     C_R   0.038022 0.702991 0.550305 -0.169134
C129  C     C_R   0.461867 0.157193 0.449838 -0.184352
C130  C     C_R   0.538133 0.157193 0.550162 -0.184414
C131  C     C_R   0.961867 0.657192 0.449837 -0.184325
C132  C     C_R   0.038132 0.657193 0.550162 -0.184306
C133  C     C_R   0.500000 0.134134 0.500000 -0.030744
C134  C     C_R   1.000000 0.634134 0.500000 -0.030730
C135  C     C_R   0.500000 0.225891 0.500000 0.105513
C136  C     C_R   1.000000 0.725891 0.500000 0.105509
C137  C     C_R   0.012379 0.796718 0.548744 -0.165341
C138  C     C_R   0.987621 0.796718 0.451256 -0.165325
C139  C     C_R   0.512380 0.296718 0.548744 -0.165320
C140  C     C_R   0.487620 0.296718 0.451255 -0.165379
C141  C     C_R   0.012112 0.842516 0.548578 -0.178826
C142  C     C_R   0.987888 0.842516 0.451422 -0.178833
C143  C     C_R   0.512112 0.342516 0.548578 -0.178842
C144  C     C_R   0.487887 0.342516 0.451422 -0.178830
C145  C     C_R   1.000000 0.865567 0.500000 -0.034501
C146  C     C_R   0.500000 0.365567 0.500000 -0.034496
C147  C     C_R   1.000000 0.773818 0.500000 0.107585
C148  C     C_R   0.500000 0.273818 0.500000 0.107589
C149  C     C_1   0.499713 0.000003 0.125512 -0.182131
C150  C     C_1   0.500288 0.000003 0.874489 -0.182119
C151  C     C_1   0.999712 0.500003 0.125511 -0.182116
C152  C     C_1   0.000288 0.500003 0.874489 -0.182119
C153  C     C_1   0.499781 0.000094 0.373970 -0.163194
C154  C     C_1   0.500220 0.000082 0.626031 -0.163173
C155  C     C_1   0.999780 0.500080 0.373969 -0.163166
C156  C     C_1   0.000220 0.500083 0.626031 -0.163174
C157  C     C_3   0.501348 0.958014 0.237384 -0.253791
C158  C     C_3   0.495875 0.958216 0.759840 -0.253527
C159  C     C_3   0.004439 0.458249 0.240474 -0.253494
C160  C     C_3   0.996216 0.458181 0.760181 -0.253554
C161  C     C_3   0.499559 0.000107 0.208381 0.129272
C162  C     C_3   0.500443 0.000102 0.791621 0.129238
C163  C     C_3   0.999557 0.500100 0.208379 0.129231
C164  C     C_3   0.000442 0.500102 0.791620 0.129242
C165  C     C_3   0.464081 0.977483 0.227922 -0.222178
C166  C     C_3   0.534344 0.975176 0.770502 -0.221717
C167  C     C_3   0.965843 0.474920 0.229686 -0.221659
C168  C     C_3   0.034546 0.475454 0.770705 -0.221766
H1    H     H_    0.563753 0.041791 0.287695 0.148385
H2    H     H_    0.439141 0.045936 0.715203 0.148379
H3    H     H_    0.060513 0.546394 0.284450 0.148377
H4    H     H_    0.938770 0.545436 0.714831 0.148372
H5    H     H_    0.779022 0.997642 0.210739 0.138225
H6    H     H_    0.220979 0.997643 0.789260 0.138244
H7    H     H_    0.279021 0.497639 0.210740 0.138230
H8    H     H_    0.720979 0.497638 0.789260 0.138224
H9    H     H_    0.859691 0.998901 0.291398 0.161069
H10   H     H_    0.140309 0.998902 0.708602 0.161075
H11   H     H_    0.359691 0.498898 0.291398 0.161070
H12   H     H_    0.640309 0.498897 0.708602 0.161067
H13   H     H_    0.859453 0.000575 0.427338 0.163147
H14   H     H_    0.140546 0.000574 0.572661 0.163119
H15   H     H_    0.359453 0.500579 0.427338 0.163116
H16   H     H_    0.640547 0.500579 0.572662 0.163116
H17   H     H_    0.778752 0.999588 0.346075 0.153661
H18   H     H_    0.221248 0.999588 0.653924 0.153572
H19   H     H_    0.278752 0.499592 0.346076 0.153562
H20   H     H_    0.721248 0.499592 0.653924 0.153577
H21   H     H_    0.428632 0.859798 0.428904 0.198067
H22   H     H_    0.571368 0.859798 0.571094 0.198065
H23   H     H_    0.928632 0.359798 0.428881 0.198067
H24   H     H_    0.071368 0.359798 0.571119 0.198067
H25   H     H_    0.999768 0.221155 0.567537 0.146035
H26   H     H_    0.000232 0.221155 0.432462 0.146011
H27   H     H_    0.499763 0.721156 0.567532 0.146014
H28   H     H_    0.500237 0.721155 0.432467 0.146108
H29   H     H_    0.999766 0.140351 0.567877 0.160900
H30   H     H_    0.000234 0.140351 0.432123 0.160892
H31   H     H_    0.499761 0.640352 0.567872 0.160889
H32   H     H_    0.500239 0.640351 0.432128 0.160902
H33   H     H_    0.432378 0.220588 0.410768 0.141386
H34   H     H_    0.567622 0.220587 0.589232 0.141367
H35   H     H_    0.932378 0.720588 0.410766 0.141371
H36   H     H_    0.067622 0.720588 0.589233 0.141381
H37   H     H_    0.432186 0.139877 0.410621 0.159315
H38   H     H_    0.567813 0.139877 0.589378 0.159294
H39   H     H_    0.932187 0.639877 0.410620 0.159302
H40   H     H_    0.067813 0.639877 0.589379 0.159310
H41   H     H_    0.021768 0.779122 0.586439 0.137439
H42   H     H_    0.978232 0.779122 0.413560 0.137447
H43   H     H_    0.521769 0.279122 0.586440 0.137446
H44   H     H_    0.478231 0.279122 0.413560 0.137414
H45   H     H_    0.021706 0.859841 0.586558 0.157370
H46   H     H_    0.978293 0.859841 0.413442 0.157368
H47   H     H_    0.521708 0.359841 0.586558 0.157367
H48   H     H_    0.478292 0.359841 0.413442 0.157360
H49   H     H_    0.495269 0.076518 0.271310 0.157938
H50   H     H_    0.509766 0.076053 0.733722 0.157818
H51   H     H_    0.989665 0.575979 0.265708 0.157804
H52   H     H_    0.009148 0.576128 0.733104 0.157829
H53   H     H_    0.431631 0.034953 0.154894 0.140811
H54   H     H_    0.570522 0.030383 0.847255 0.140730
H55   H     H_    0.929252 0.529854 0.152520 0.140725
H56   H     H_    0.070274 0.530953 0.847007 0.140738
H57   H     H_    0.435086 0.959101 0.211130 0.160380
H58   H     H_    0.562060 0.954915 0.786012 0.160480
H59   H     H_    0.938281 0.454451 0.214329 0.160496
H60   H     H_    0.062427 0.455420 0.786379 0.160473
H61   H     H_    0.503207 0.923664 0.227153 0.149289
H62   H     H_    0.491752 0.924065 0.767807 0.149445
H63   H     H_    0.008818 0.424131 0.232763 0.149467
H64   H     H_    0.992371 0.423998 0.768426 0.149430
H65   H     H_    0.722394 0.061812 0.192033 0.176668
H66   H     H_    0.277606 0.061814 0.807963 0.176663
H67   H     H_    0.222394 0.561810 0.192030 0.176668
H68   H     H_    0.777606 0.561810 0.807970 0.176664
H69   H     H_    0.638487 0.935332 0.166862 0.207601
H70   H     H_    0.361513 0.935331 0.833139 0.207641
H71   H     H_    0.138487 0.435334 0.166867 0.207649
H72   H     H_    0.861513 0.435334 0.833133 0.207638
O1    O     O_R   0.565460 0.963010 0.065460 -0.630824
O2    O     O_R   0.434540 0.963010 0.934540 -0.630800
O3    O     O_R   0.065460 0.463010 0.065460 -0.630785
O4    O     O_R   0.934540 0.463010 0.934540 -0.630792
O5    O     O_R   0.934500 0.999950 0.469270 -0.622763
O6    O     O_R   0.065500 0.999950 0.530730 -0.622771
O7    O     O_R   0.434500 0.499950 0.469270 -0.622772
O8    O     O_R   0.565500 0.499950 0.530730 -0.622774
O9    O     O_R   0.934490 0.999950 0.399700 -0.627081
O10   O     O_R   0.065510 0.999950 0.600300 -0.627078
O11   O     O_R   0.434490 0.499950 0.399700 -0.627078
O12   O     O_R   0.565510 0.499950 0.600300 -0.627081
O13   O     O_R   0.000010 0.934490 0.534800 -0.623384
O14   O     O_R   0.999990 0.934490 0.465200 -0.623385
O15   O     O_R   0.500010 0.434490 0.534800 -0.623383
O16   O     O_R   0.499990 0.434490 0.465200 -0.623390
O17   O     O_R   0.565400 0.036920 0.065400 -0.567182
O18   O     O_R   0.434600 0.036920 0.934600 -0.567230
O19   O     O_R   0.065400 0.536920 0.065400 -0.567229
O20   O     O_R   0.934600 0.536920 0.934600 -0.567221
O21   O     O_R   0.499990 0.963010 0.061610 -0.615059
O22   O     O_R   0.500010 0.963010 0.938390 -0.614908
O23   O     O_R   0.999990 0.463010 0.061610 -0.614889
O24   O     O_R   0.000010 0.463010 0.938390 -0.614925
O25   O     O_R   0.499940 0.036920 0.061550 -0.614854
O26   O     O_R   0.500060 0.036920 0.938450 -0.614940
O27   O     O_R   0.999940 0.536920 0.061550 -0.614947
O28   O     O_R   0.000060 0.536920 0.938450 -0.614928
O29   O     O_R   0.536910 0.934410 0.536900 -0.621918
O30   O     O_R   0.463090 0.934410 0.463100 -0.621955
O31   O     O_R   0.036910 0.434410 0.536900 -0.621979
O32   O     O_R   0.963090 0.434410 0.463100 -0.621969
O33   O     O_R   0.536920 0.999880 0.475310 -0.603046
O34   O     O_R   0.463080 0.999880 0.524690 -0.602736
O35   O     O_R   0.036920 0.499880 0.475310 -0.602698
O36   O     O_R   0.963080 0.499880 0.524690 -0.602770
O37   O     O_R   0.463000 0.999950 0.401380 -0.619531
O38   O     O_R   0.537000 0.999950 0.598620 -0.619629
O39   O     O_R   0.963000 0.499950 0.401380 -0.619642
O40   O     O_R   0.037000 0.499950 0.598620 -0.619619
O41   O     O_R   0.536940 0.065340 0.536940 -0.624955
O42   O     O_R   0.463060 0.065340 0.463060 -0.624841
O43   O     O_R   0.036940 0.565340 0.536940 -0.624840
O44   O     O_R   0.963060 0.565340 0.463060 -0.624871
O45   O     O_R   0.999920 0.065420 0.534690 -0.624776
O46   O     O_R   0.000080 0.065420 0.465310 -0.624782
O47   O     O_R   0.499920 0.565420 0.534690 -0.624783
O48   O     O_R   0.500080 0.565420 0.465310 -0.624780
Zn1   Zn    Zn3+2 0.500000 0.950610 0.000000 0.979823
Zn2   Zn    Zn3+2 0.000000 0.450610 0.000000 0.979983
Zn3   Zn    Zn3+2 0.500000 0.049320 0.000000 1.029850
Zn4   Zn    Zn3+2 0.000000 0.549320 0.000000 1.029781
Zn5   Zn    Zn3+2 0.549320 0.999860 0.549320 0.986255
Zn6   Zn    Zn3+2 0.450680 0.999860 0.450680 0.986568
Zn7   Zn    Zn3+2 0.049320 0.499860 0.549320 0.986531
Zn8   Zn    Zn3+2 0.950680 0.499860 0.450680 0.986454
Zn9   Zn    Zn3+2 0.999970 0.999950 0.546410 0.966068
Zn10  Zn    Zn3+2 0.000030 0.999950 0.453590 0.966042
Zn11  Zn    Zn3+2 0.499970 0.499950 0.546410 0.966035
Zn12  Zn    Zn3+2 0.500030 0.499950 0.453590 0.966030
Br1   Br    Br    0.730976 0.909737 0.267911 -0.515091
Br2   Br    Br    0.269023 0.909737 0.732089 -0.515019
Br3   Br    Br    0.230976 0.409741 0.267918 -0.515000
Br4   Br    Br    0.769024 0.409741 0.732082 -0.515064
Br5   Br    Br    0.403859 0.766472 0.404202 -0.504693
Br6   Br    Br    0.596141 0.766473 0.595795 -0.504728
Br7   Br    Br    0.903859 0.266473 0.404171 -0.504766
Br8   Br    Br    0.096141 0.266472 0.595827 -0.504787
O49   O     O_3   0.573883 0.962070 0.355297 -0.602010
C169  C     C_3   0.602016 0.947619 0.351011 -0.284693
H73   H     H_    0.613386 0.975698 0.342619 0.157013
H74   H     H_    0.585847 0.921972 0.315068 0.158518
H75   H     H_    0.631722 0.932395 0.395141 0.205654
O50   O     O_3   0.423763 0.967050 0.642355 -0.601910
C170  C     C_3   0.394740 0.954493 0.645756 -0.284998
H76   H     H_    0.385254 0.983263 0.656033 0.156804
H77   H     H_    0.409182 0.927835 0.679969 0.158771
H78   H     H_    0.364092 0.941265 0.600687 0.205518
O51   O     O_3   0.076483 0.467624 0.357890 -0.601897
C171  C     C_3   0.105598 0.455285 0.354581 -0.285037
H79   H     H_    0.114869 0.484126 0.344087 0.156780
H80   H     H_    0.091357 0.428520 0.320569 0.158801
H81   H     H_    0.136346 0.442288 0.399749 0.205501
O52   O     O_3   0.924035 0.466429 0.642626 -0.601922
C172  C     C_3   0.895115 0.453634 0.646130 -0.284969
H82   H     H_    0.885394 0.482327 0.656172 0.156822
H83   H     H_    0.909773 0.427095 0.680559 0.158747
H84   H     H_    0.864575 0.440158 0.601168 0.205533
O53   O     O_3   0.636772 0.071502 0.101290 -0.581144
C173  C     C_3   0.631840 0.064785 0.052726 -0.280971
H85   H     H_    0.611742 0.034794 0.025842 0.141484
H86   H     H_    0.664488 0.062549 0.069474 0.150625
H87   H     H_    0.614069 0.093533 0.021452 0.198712
O54   O     O_3   0.363227 0.071504 0.898706 -0.581171
C174  C     C_3   0.368160 0.064788 0.947270 -0.280993
H88   H     H_    0.388258 0.034798 0.974155 0.141556
H89   H     H_    0.335512 0.062554 0.930522 0.150672
H90   H     H_    0.385931 0.093537 0.978543 0.198607
O55   O     O_3   0.136772 0.571500 0.101286 -0.581171
C175  C     C_3   0.131839 0.564779 0.052722 -0.280953
H91   H     H_    0.111741 0.534788 0.025841 0.141500
H92   H     H_    0.164487 0.562543 0.069470 0.150635
H93   H     H_    0.114068 0.593526 0.021447 0.198691
O56   O     O_3   0.863228 0.571500 0.898714 -0.581170
C176  C     C_3   0.868160 0.564779 0.947277 -0.280950
H94   H     H_    0.888259 0.534788 0.974159 0.141485
H95   H     H_    0.835512 0.562542 0.930530 0.150623
H96   H     H_    0.885932 0.593526 0.978553 0.198714

loop_
_geom_bond_atom_site_label_1
_geom_bond_atom_site_label_2
_ccdc_geom_bond_type
O18   Zn3   S    
C99   C103  A    
C4    C36   S    
C89   O45   A    
C23   C155  T    
O24   Zn2   S    
C119  C161  S    
C126  H34   S    
C158  C166  S    
C112  C124  A    
C55   C59   A    
C26   C50   A    
O6    Zn10  S    
C104  H24   S    
C29   C33   A    
C100  C104  A    
O40   Zn7   S    
C38   H70   S    
C16   C122  S    
C8    C168  S    
C54   C74   A    
C11   C15   S    
C12   C16   S    
O52   C172  S    
C70   C74   A    
C99   Br7   S    
O28   Zn4   S    
C95   O13   A    
O29   Zn5   S    
C141  C145  A    
C17   C161  S    
C125  C135  A    
C45   O25   A    
C66   H14   S    
C8    C16   S    
C11   C167  S    
C166  H58   S    
C107  C124  S    
C41   C49   A    
C25   C29   A    
C169  H74   S    
C173  H85   S    
C27   C31   A    
C171  H81   S    
C28   C32   A    
C127  C136  A    
C88   C122  S    
C11   H55   S    
C174  H89   S    
C62   C66   A    
O2    Zn1   S    
O50   C170  S    
C98   C102  A    
C159  H63   S    
C110  C123  A    
C68   C72   A    
C115  C118  A    
C125  H33   S    
O48   Zn12  S    
C78   O31   A    
C176  H96   S    
C173  H86   S    
C129  C133  A    
C125  C129  A    
C90   O48   A    
C49   C73   S    
C90   C118  S    
C143  H47   S    
C10   C162  S    
C47   O27   A    
C68   H16   S    
C111  C124  A    
C81   O39   A    
C59   C63   A    
C82   O40   A    
C71   H19   S    
C94   O12   A    
C57   C61   A    
C92   O10   A    
C101  H21   S    
O11   Zn12  S    
C78   C106  S    
C60   C64   A    
C139  H43   S    
C54   H6    S    
C64   C94   S    
C66   C70   A    
C3    O19   A    
C9    C165  S    
C87   C159  S    
C88   C160  S    
C127  C131  A    
C10   H54   S    
O1    Zn1   S    
C174  H88   S    
C97   C107  A    
C61   C65   A    
C5    C21   S    
C132  C134  A    
O25   Zn3   S    
C21   C153  T    
C14   H50   S    
C18   C150  T    
C24   C156  T    
C20   C164  S    
C69   H17   S    
O20   Zn4   S    
C175  H93   S    
C131  H39   S    
C39   H71   S    
C157  H61   S    
C99   C108  A    
C56   H8    S    
C64   C68   A    
O27   Zn4   S    
C50   C74   S    
O36   Zn8   S    
C79   C153  S    
C121  C163  S    
C122  C164  S    
C42   Br2   S    
C85   C119  S    
C9    C13   S    
C93   O7    A    
O41   Zn5   S    
C139  C143  A    
C112  H28   S    
O43   Zn7   S    
C19   C151  T    
C160  H64   S    
C109  H25   S    
O13   Zn9   S    
C110  C114  A    
C120  C162  S    
C5    C85   S    
C26   H66   S    
C160  C168  S    
O9    Zn10  S    
O44   Zn8   S    
C165  H57   S    
C27   C51   A    
C84   O43   A    
C139  C148  A    
C100  C108  A    
C30   C34   A    
C96   O16   A    
C10   C14   S    
C157  C165  S    
C144  H48   S    
O54   C174  S    
C109  C123  A    
C19   C163  S    
C115  H31   S    
C138  H42   S    
C8    C88   S    
C171  H80   S    
C130  H38   S    
C9    H53   S    
C6    C14   S    
C45   O21   A    
C3    C35   S    
C10   C166  S    
C44   Br4   S    
C11   C163  S    
C4    O20   A    
C58   H10   S    
O33   Zn5   S    
C9    C161  S    
C2    O2    A    
O31   Zn7   S    
C67   H15   S    
C28   H68   S    
C113  C117  A    
C42   C50   A    
C26   C30   A    
C77   O29   A    
C103  H23   S    
C15   H51   S    
C112  C116  A    
C31   O55   S    
O17   Zn3   S    
C46   C150  S    
C7    C167  S    
C170  H78   S    
C2    O18   A    
C5    C13   S    
C89   C117  S    
C52   C76   S    
C168  H60   S    
C32   C36   A    
C96   C146  S    
C97   Br5   S    
C77   C105  S    
C6    C86   S    
O22   Zn1   S    
C40   H72   S    
C83   O42   A    
C57   H9    S    
C2    C34   S    
O19   Zn4   S    
C7    C23   S    
C7    C15   S    
C8    C24   S    
C16   H52   S    
C37   C41   A    
C114  C117  A    
C70   H18   S    
C170  H76   S    
C29   O53   S    
O56   C176  S    
C87   O51   S    
C114  H30   S    
O8    Zn12  S    
C86   C120  S    
C94   O8    A    
C4    O4    A    
C111  H27   S    
C58   C62   A    
C143  C146  A    
C6    C166  S    
C95   C145  S    
C131  C134  A    
C104  C106  A    
C84   C134  S    
O47   Zn11  S    
C160  C164  S    
C175  H92   S    
O16   Zn12  S    
C128  C136  A    
C54   C58   A    
C126  C130  A    
C6    C22   S    
C102  C105  A    
C128  H36   S    
C12   H56   S    
C7    C87   S    
O37   Zn6   S    
C173  H87   S    
O21   Zn1   S    
C69   C73   A    
C78   O32   A    
C176  H95   S    
C89   O46   A    
C79   O33   A    
C80   O38   A    
C142  C145  A    
C140  C148  A    
O12   Zn11  S    
C85   C157  S    
C1    O17   A    
C53   C73   A    
C53   H5    S    
C30   O54   S    
C142  H46   S    
C144  C146  A    
C138  C142  A    
C87   C121  S    
C53   C57   A    
O42   Zn6   S    
C85   O49   S    
C43   Br3   S    
C33   C37   A    
C98   C107  A    
C56   C60   A    
C137  H41   S    
C35   C39   A    
O14   Zn10  S    
C12   C164  S    
C129  H37   S    
C167  H59   S    
O55   C175  S    
C46   O26   A    
O10   Zn9   S    
O30   Zn6   S    
C175  H91   S    
C95   O14   A    
O32   Zn8   S    
O4    Zn2   S    
C47   C151  S    
C126  C135  A    
C14   C120  S    
C48   C152  S    
C31   C35   A    
C130  C133  A    
C108  C123  S    
C157  C161  S    
C140  H44   S    
C91   O9    A    
C137  C141  A    
C169  H73   S    
C92   O6    A    
O45   Zn9   S    
C137  C147  A    
C140  C144  A    
C81   C155  S    
C174  H90   S    
C80   C154  S    
C60   H12   S    
C63   C93   S    
C59   H11   S    
O34   Zn6   S    
C18   C162  S    
C120  H2    S    
C43   C51   A    
C65   C69   A    
C102  H22   S    
C67   C71   A    
C172  H82   S    
C25   C49   A    
O51   C171  S    
O5    Zn9   S    
O35   Zn7   S    
C20   C152  T    
C90   O47   A    
C13   H49   S    
C127  H35   S    
C169  H75   S    
C91   O5    A    
C56   C76   A    
C98   Br6   S    
O53   C173  S    
C72   C76   A    
C158  H62   S    
C1    C33   S    
C65   H13   S    
O49   C169  S    
C84   O44   A    
C51   C75   S    
C38   C42   A    
C116  H32   S    
C48   O28   A    
O39   Zn8   S    
C119  H1    S    
C172  H83   S    
C72   H20   S    
C62   C92   S    
C110  H26   S    
O26   Zn3   S    
C5    C165  S    
C88   O52   S    
C27   H67   S    
C82   C156  S    
O3    Zn2   S    
C25   H65   S    
C159  C167  S    
C128  C132  A    
C13   C119  S    
C86   O50   S    
C101  C105  A    
C63   C67   A    
C170  H77   S    
C36   C40   A    
C141  H45   S    
C41   Br1   S    
C39   C43   A    
C47   O23   A    
O38   Zn5   S    
C48   O24   A    
O7    Zn11  S    
C81   O35   A    
C172  H84   S    
C82   O36   A    
C83   O41   A    
C37   H69   S    
C40   C44   A    
C138  C147  A    
C79   O37   A    
C80   O34   A    
C3    O3    A    
C86   C158  S    
C55   H7    S    
C1    O1    A    
C116  C118  A    
C121  H3    S    
C132  H40   S    
C122  H4    S    
O23   Zn2   S    
C159  C163  S    
O15   Zn11  S    
C32   O56   S    
C22   C154  T    
C15   C121  S    
C34   C38   A    
C17   C149  T    
C96   O15   A    
C12   C168  S    
C109  C113  A    
C46   O22   A    
C171  H79   S    
C55   C75   A    
C71   C75   A    
C28   C52   A    
C44   C52   A    
C103  C106  A    
C45   C149  S    
C83   C133  S    
C136  C147  S    
C158  C162  S    
C100  Br8   S    
C93   O11   A    
C135  C148  S    
C113  H29   S    
C77   O30   A    
O46   Zn10  S    
C111  C115  A    
C176  H94   S    
C97   C101  A    
C61   C91   S    
