data_mof_unit_21312.cif
_audit_creation_date              2013-03-05T15:48:37-0500
_audit_creation_method            fapswitch 2.2
_symmetry_space_group_name_H-M    P1
_symmetry_Int_Tables_number       1
_space_group_crystal_system       triclinic
_cell_length_a                    16.689049
_cell_length_b                    16.674065
_cell_length_c                    42.718588
_cell_angle_alpha                 90.26259
_cell_angle_beta                  89.860782
_cell_angle_gamma                 119.89941
_cell_volume                      10305.1744448

loop_
_atom_site_label
_atom_site_type_symbol
_atom_site_description
_atom_site_fract_x
_atom_site_fract_y
_atom_site_fract_z
_atom_type_partial_charge
O1    O     O_R   0.509640 0.171340 0.784000 -0.439011
O2    O     O_R   0.661700 0.490360 0.716000 -0.437974
O3    O     O_R   0.828660 0.338300 0.784000 -0.428511
O4    O     O_R   0.509640 0.171340 0.716000 -0.438135
O5    O     O_R   0.661700 0.490360 0.784000 -0.415082
O6    O     O_R   0.828660 0.338300 0.716000 -0.442762
O7    O     O_R   0.171340 0.509640 0.284000 -0.430699
O8    O     O_R   0.490360 0.661700 0.216000 -0.411163
O9    O     O_R   0.338300 0.828660 0.284000 -0.432938
O10   O     O_R   0.171340 0.509640 0.216000 -0.443534
O11   O     O_R   0.490360 0.661700 0.284000 -0.441552
O12   O     O_R   0.338300 0.828660 0.216000 -0.423800
O13   O     O_R   0.539230 0.345420 0.781810 -0.470395
O14   O     O_R   0.806190 0.460770 0.718190 -0.454346
O15   O     O_R   0.654580 0.193810 0.781810 -0.446291
O16   O     O_R   0.539230 0.345420 0.718190 -0.459593
O17   O     O_R   0.806190 0.460770 0.781810 -0.445752
O18   O     O_R   0.654580 0.193810 0.718190 -0.465241
O19   O     O_R   0.345420 0.539230 0.281810 -0.454362
O20   O     O_R   0.460770 0.806190 0.218190 -0.452567
O21   O     O_R   0.193810 0.654580 0.281810 -0.448656
O22   O     O_R   0.345420 0.539230 0.218190 -0.484301
O23   O     O_R   0.460770 0.806190 0.281810 -0.457903
O24   O     O_R   0.193810 0.654580 0.218190 -0.451361
C1    C     C_R   0.583683 0.426577 0.794428 0.624825
C2    C     C_R   0.844348 0.416890 0.705563 0.595125
C3    C     C_R   0.572232 0.153520 0.793695 0.617152
C4    C     C_R   0.583497 0.426401 0.705593 0.606960
C5    C     C_R   0.843860 0.417398 0.794470 0.620764
C6    C     C_R   0.573694 0.157127 0.705274 0.588777
C7    C     C_R   0.426430 0.583807 0.294460 0.629127
C8    C     C_R   0.418206 0.845389 0.206037 0.612296
C9    C     C_R   0.154950 0.572847 0.294265 0.630545
C10   C     C_R   0.426600 0.583217 0.205716 0.615256
C11   C     C_R   0.417479 0.844645 0.294376 0.614303
C12   C     C_R   0.155180 0.572752 0.205813 0.613932
Cr1   Cr    Cr6+3 0.530290 0.262330 0.750000 1.223598
Cr2   Cr    Cr6+3 0.732040 0.469710 0.750000 1.254135
Cr3   Cr    Cr6+3 0.737670 0.267960 0.750000 1.252023
Cr4   Cr    Cr6+3 0.262330 0.530290 0.250000 1.221798
Cr5   Cr    Cr6+3 0.469710 0.732040 0.250000 1.257260
Cr6   Cr    Cr6+3 0.267960 0.737670 0.250000 1.262558
O25   O     O_3   0.666667 0.333333 0.750000 -0.332678
O26   O     O_3   0.333333 0.666667 0.250000 -0.317654
C13   C     C_R   0.893312 0.451480 0.824910 -0.080243
C14   C     C_R   0.558694 0.106089 0.675117 -0.095297
C15   C     C_R   0.555760 0.439255 0.825940 -0.078848
C16   C     C_R   0.899766 0.453133 0.676115 -0.070392
C17   C     C_R   0.553073 0.095563 0.822298 -0.071599
C18   C     C_R   0.551145 0.441049 0.675131 -0.070290
C19   C     C_R   0.455892 0.899200 0.323940 -0.073166
C20   C     C_R   0.095513 0.551521 0.177502 -0.072792
C21   C     C_R   0.437318 0.557727 0.326416 -0.077247
C22   C     C_R   0.456693 0.901888 0.177204 -0.078099
C23   C     C_R   0.101696 0.557066 0.324080 -0.080533
C24   C     C_R   0.439987 0.552558 0.174786 -0.081325
C25   C     C_R   0.900571 0.481003 0.040003 0.067571
C26   C     C_R   0.535635 0.908988 0.470510 0.069934
C27   C     C_R   0.412462 0.409470 0.033518 0.058713
C28   C     C_R   0.929651 0.535021 0.463654 0.055558
C29   C     C_R   0.449666 0.909728 0.029406 0.061432
C30   C     C_R   0.405021 0.402041 0.467311 0.052762
C31   C     C_R   0.547383 0.935490 0.536057 0.059985
C32   C     C_R   0.867555 0.455657 0.974873 0.078051
C33   C     C_R   0.401137 0.390437 0.533367 0.053434
C34   C     C_R   0.466318 0.932406 0.963992 0.063616
C35   C     C_R   0.905544 0.521434 0.529307 0.060854
C36   C     C_R   0.415174 0.413829 0.967519 0.056304
C37   C     C_R   0.920977 0.497105 0.072148 0.534461
C38   C     C_R   0.523482 0.895966 0.437980 0.533736
C39   C     C_R   0.410030 0.410567 0.066346 0.532654
C40   C     C_R   0.942308 0.535750 0.431023 0.531902
C41   C     C_R   0.442381 0.899053 0.061961 0.517857
C42   C     C_R   0.405063 0.410357 0.434531 0.507832
C43   C     C_R   0.546308 0.948895 0.568581 0.536269
C44   C     C_R   0.855665 0.446952 0.942178 0.540535
C45   C     C_R   0.404539 0.384502 0.566155 0.522551
C46   C     C_R   0.475227 0.944488 0.931455 0.500238
C47   C     C_R   0.893993 0.508778 0.561852 0.526049
C48   C     C_R   0.418396 0.415097 0.934683 0.524885
O27   O     O_2   0.881723 0.527642 0.088346 -0.381255
O28   O     O_2   0.492047 0.818425 0.426845 -0.358340
O29   O     O_2   0.343398 0.349998 0.080320 -0.393095
O30   O     O_2   0.875368 0.502310 0.413569 -0.382667
O31   O     O_2   0.395059 0.822044 0.073226 -0.398966
O32   O     O_2   0.349472 0.345259 0.418609 -0.399019
O33   O     O_2   0.514464 0.882402 0.586165 -0.376857
O34   O     O_2   0.789731 0.448807 0.930635 -0.342349
O35   O     O_2   0.358057 0.310141 0.579179 -0.374536
O36   O     O_2   0.439759 0.877178 0.914044 -0.417230
O37   O     O_2   0.816293 0.470560 0.573059 -0.351836
O38   O     O_2   0.352727 0.356764 0.919632 -0.397910
N1    N     N_R   0.985648 0.478949 0.085434 -0.368654
N2    N     N_R   0.544121 0.969983 0.418636 -0.369000
N3    N     N_R   0.481074 0.481674 0.082907 -0.362770
N4    N     N_R   0.030119 0.571678 0.418736 -0.364684
N5    N     N_R   0.488689 0.975036 0.081357 -0.364653
N6    N     N_R   0.466316 0.492844 0.420389 -0.362175
N7    N     N_R   0.578551 0.036754 0.580590 -0.364559
N8    N     N_R   0.915588 0.431994 0.923467 -0.381807
N9    N     N_R   0.463162 0.461865 0.583509 -0.362677
N10   N     N_R   0.523889 0.032263 0.919066 -0.364564
N11   N     N_R   0.969691 0.536070 0.581133 -0.370950
N12   N     N_R   0.496570 0.480341 0.919311 -0.361398
C49   C     C_R   0.029018 0.441767 0.067828 0.513334
C50   C     C_R   0.585163 0.059097 0.430319 0.523744
C51   C     C_R   0.559632 0.547935 0.067866 0.512507
C52   C     C_R   0.107142 0.614526 0.437834 0.518545
C53   C     C_R   0.541330 0.063021 0.069373 0.524785
C54   C     C_R   0.532704 0.566025 0.437671 0.523414
C55   C     C_R   0.618202 0.113384 0.561278 0.519580
C56   C     C_R   0.958071 0.388244 0.937887 0.515874
C57   C     C_R   0.512524 0.547578 0.569488 0.508608
C58   C     C_R   0.567106 0.109543 0.938160 0.540658
C59   C     C_R   0.058384 0.581578 0.569161 0.525559
C60   C     C_R   0.570912 0.548557 0.935616 0.520326
O39   O     O_2   0.085139 0.425344 0.080273 -0.325927
O40   O     O_2   0.605943 0.123573 0.412452 -0.335840
O41   O     O_2   0.622375 0.608908 0.083173 -0.335303
O42   O     O_2   0.184131 0.652943 0.426100 -0.316445
O43   O     O_2   0.582233 0.128619 0.087210 -0.333273
O44   O     O_2   0.591172 0.635251 0.424230 -0.342781
O45   O     O_2   0.652019 0.190810 0.572754 -0.336631
O46   O     O_2   0.976441 0.337018 0.922973 -0.318346
O47   O     O_2   0.556383 0.616423 0.585765 -0.342148
O48   O     O_2   0.609550 0.186424 0.926440 -0.313354
O49   O     O_2   0.124162 0.607152 0.586857 -0.335691
O50   O     O_2   0.638591 0.606146 0.921274 -0.326517
C61   C     C_R   0.010016 0.424222 0.035594 -0.019049
C62   C     C_R   0.601259 0.075423 0.462780 -0.013739
C63   C     C_R   0.566007 0.547429 0.034946 -0.028606
C64   C     C_R   0.097299 0.613049 0.470675 -0.013484
C65   C     C_R   0.548390 0.076902 0.036723 -0.014313
C66   C     C_R   0.529592 0.563122 0.470597 -0.015729
C67   C     C_R   0.617657 0.102509 0.528521 -0.006421
C68   C     C_R   0.974863 0.397737 0.970425 -0.022937
C69   C     C_R   0.516406 0.554973 0.536656 -0.016201
C70   C     C_R   0.561945 0.100058 0.970941 -0.016975
C71   C     C_R   0.072932 0.596650 0.536576 -0.016671
C72   C     C_R   0.570050 0.550079 0.968618 -0.026666
C73   C     C_R   0.947326 0.446728 0.021552 -0.097222
C74   C     C_R   0.573012 0.999095 0.483010 -0.099039
C75   C     C_R   0.490305 0.479254 0.017723 -0.099787
C76   C     C_R   0.007571 0.571159 0.483591 -0.097177
C77   C     C_R   0.502737 0.999190 0.016707 -0.094982
C78   C     C_R   0.465161 0.480174 0.485436 -0.094581
C79   C     C_R   0.580063 0.012509 0.515903 -0.097495
C80   C     C_R   0.931186 0.434898 0.988880 -0.104268
C81   C     C_R   0.460812 0.475253 0.518529 -0.091673
C82   C     C_R   0.510314 0.010661 0.983836 -0.094253
C83   C     C_R   0.995445 0.563744 0.516548 -0.099682
C84   C     C_R   0.491907 0.481140 0.984574 -0.098812
C85   C     C_R   0.834952 0.498720 0.025833 -0.028198
C86   C     C_R   0.508155 0.833610 0.490849 0.000027
C87   C     C_R   0.337182 0.342396 0.016175 -0.037719
C88   C     C_R   0.840829 0.496059 0.476828 -0.037157
C89   C     C_R   0.405618 0.832762 0.009347 -0.070180
C90   C     C_R   0.344032 0.318783 0.482433 -0.063461
C91   C     C_R   0.513325 0.846597 0.523179 -0.012295
C92   C     C_R   0.818053 0.485418 0.993728 -0.008594
C93   C     C_R   0.343013 0.312718 0.515000 -0.062857
C94   C     C_R   0.414318 0.843900 0.977072 -0.068225
C95   C     C_R   0.828988 0.489818 0.509195 -0.020266
C96   C     C_R   0.338248 0.344933 0.983627 -0.042481
C97   C     C_R   0.052341 0.385586 0.016947 0.445801
C98   C     C_R   0.642103 0.165295 0.475679 0.445624
C99   C     C_R   0.644084 0.615223 0.018735 0.426954
C100  C     C_R   0.174356 0.649835 0.490941 0.448145
C101  C     C_R   0.600271 0.165773 0.023529 0.438136
C102  C     C_R   0.585606 0.641962 0.488990 0.422903
C103  C     C_R   0.650759 0.178667 0.508040 0.445991
C104  C     C_R   0.034059 0.371445 0.984902 0.450754
C105  C     C_R   0.577605 0.638494 0.521501 0.422659
C106  C     C_R   0.606550 0.177222 0.991134 0.428335
C107  C     C_R   0.162339 0.641341 0.523365 0.443691
C108  C     C_R   0.646102 0.616488 0.986089 0.430066
C109  C     C_R   0.987751 0.434248 0.140473 0.187338
C110  C     C_R   0.427079 0.933558 0.377418 0.195655
C111  C     C_R   0.515925 0.493358 0.140052 0.191243
C112  C     C_R   0.063849 0.489881 0.376888 0.187355
C113  C     C_R   0.431838 0.983765 0.134149 0.194586
C114  C     C_R   0.409596 0.563067 0.382366 0.195311
C115  C     C_R   0.501581 0.080407 0.621075 0.181538
C116  C     C_R   0.975773 0.429430 0.868342 0.186946
C117  C     C_R   0.580536 0.467033 0.619113 0.200307
C118  C     C_R   0.452571 0.028658 0.867986 0.199509
C119  C     C_R   0.930192 0.419880 0.622721 0.191055
C120  C     C_R   0.503698 0.517491 0.862565 0.195206
C121  C     C_R   0.028895 0.458250 0.170443 0.146621
C122  C     C_R   0.396674 0.906540 0.346353 0.160830
C123  C     C_R   0.503771 0.520966 0.170304 0.129608
C124  C     C_R   0.094586 0.489920 0.346037 0.156918
C125  C     C_R   0.419119 0.956235 0.165821 0.152797
C126  C     C_R   0.409011 0.592806 0.351771 0.172878
C127  C     C_R   0.499772 0.109595 0.651906 0.143249
C128  C     C_R   0.951414 0.418820 0.836183 0.142444
C129  C     C_R   0.611111 0.463774 0.649238 0.170343
C130  C     C_R   0.463371 0.051820 0.835959 0.151847
C131  C     C_R   0.902136 0.390895 0.653707 0.151164
C132  C     C_R   0.526361 0.504344 0.831672 0.135524
C133  C     C_R   0.112642 0.621080 0.155207 0.196176
C134  C     C_R   0.549300 0.930529 0.332412 0.165873
C135  C     C_R   0.387417 0.554800 0.149267 0.193124
C136  C     C_R   0.066554 0.616232 0.332505 0.169505
C137  C     C_R   0.520051 0.890287 0.158127 0.179223
C138  C     C_R   0.473604 0.498424 0.332303 0.150957
C139  C     C_R   0.612021 0.063725 0.667615 0.169681
C140  C     C_R   0.875946 0.509267 0.844775 0.180693
C141  C     C_R   0.459302 0.422442 0.670530 0.175011
C142  C     C_R   0.627045 0.097765 0.839386 0.173683
C143  C     C_R   0.939475 0.547906 0.667990 0.188976
C144  C     C_R   0.560381 0.386147 0.850918 0.195805
C145  C     C_R   0.072239 0.596084 0.125470 0.448691
C146  C     C_R   0.577429 0.954323 0.363671 0.449490
C147  C     C_R   0.400345 0.527791 0.119658 0.435773
C148  C     C_R   0.040403 0.618388 0.363693 0.455544
C149  C     C_R   0.532084 0.918305 0.126949 0.439454
C150  C     C_R   0.482699 0.477127 0.363579 0.448453
C151  C     C_R   0.615486 0.037841 0.636466 0.458956
C152  C     C_R   0.893986 0.511649 0.876854 0.436838
C153  C     C_R   0.429964 0.428243 0.640053 0.456038
C154  C     C_R   0.614944 0.073598 0.871012 0.440404
C155  C     C_R   0.963093 0.574670 0.636514 0.460263
C156  C     C_R   0.536287 0.398862 0.881031 0.436554
C157  C     C_R   0.012647 0.503375 0.117695 0.154233
C158  C     C_R   0.516001 0.952529 0.386278 0.156844
C159  C     C_R   0.464210 0.498077 0.114754 0.142143
C160  C     C_R   0.042516 0.558434 0.386013 0.150439
C161  C     C_R   0.484829 0.960187 0.114559 0.149620
C162  C     C_R   0.451557 0.509664 0.388459 0.141086
C163  C     C_R   0.563349 0.049186 0.613117 0.145211
C164  C     C_R   0.926393 0.455023 0.889686 0.131079
C165  C     C_R   0.490329 0.450750 0.614501 0.144477
C166  C     C_R   0.530098 0.044380 0.885679 0.160049
C167  C     C_R   0.954502 0.510177 0.613742 0.151389
C168  C     C_R   0.509321 0.464144 0.887070 0.145693
H1    H     H_    0.767939 0.500997 0.983577 0.191512
H2    H     H_    0.488911 0.786442 0.538073 0.212801
H3    H     H_    0.278713 0.292251 0.971091 0.218860
H4    H     H_    0.759306 0.458039 0.518415 0.232009
H5    H     H_    0.379749 0.782858 0.962367 0.196268
H6    H     H_    0.296409 0.246876 0.525770 0.202275
H7    H     H_    0.479933 0.763831 0.481846 0.214741
H8    H     H_    0.797029 0.523761 0.039478 0.202111
H9    H     H_    0.297299 0.257768 0.469100 0.201627
H10   H     H_    0.364717 0.763409 0.018559 0.194058
H11   H     H_    0.779924 0.468630 0.462126 0.214328
H12   H     H_    0.276453 0.288404 0.027741 0.219532
F1    F     F_    0.077883 0.335641 0.967924 -0.490856
F2    F     F_    0.689192 0.266610 0.519166 -0.528977
F3    F     F_    0.723190 0.683315 0.971742 -0.472095
F4    F     F_    0.238986 0.676012 0.541678 -0.510152
F5    F     F_    0.657101 0.264435 0.979716 -0.540296
F6    F     F_    0.632412 0.716842 0.538041 -0.495418
F7    F     F_    0.672774 0.240979 0.457124 -0.509816
F8    F     F_    0.112132 0.361592 0.029506 -0.501355
F9    F     F_    0.646633 0.723887 0.475637 -0.499157
F10   F     F_    0.645168 0.242446 0.041842 -0.514365
F11   F     F_    0.262050 0.692070 0.479548 -0.511731
F12   F     F_    0.719082 0.681231 0.034329 -0.477637
N13   N     N_R   0.840857 0.566226 0.832933 0.144225
O51   O     O_R   0.885049 0.625056 0.810685 -0.210341
O52   O     O_R   0.775711 0.571631 0.847914 -0.203281
N14   N     N_R   0.662254 0.046341 0.691442 0.137834
O53   O     O_R   0.624205 0.014087 0.718540 -0.248486
O54   O     O_R   0.742226 0.054116 0.685292 -0.110600
N15   N     N_R   0.593061 0.321746 0.846448 0.105246
O55   O     O_R   0.560459 0.247874 0.863623 -0.257644
O56   O     O_R   0.665413 0.343761 0.829280 -0.376394
N16   N     N_R   0.956622 0.616879 0.691510 0.137562
O57   O     O_R   0.984758 0.610128 0.719252 -0.254097
O58   O     O_R   0.954509 0.691653 0.684472 -0.115928
N17   N     N_R   0.715194 0.125964 0.825259 0.137519
O59   O     O_R   0.720197 0.083488 0.800337 -0.207465
O60   O     O_R   0.790892 0.183942 0.839705 -0.181808
N18   N     N_R   0.396416 0.399545 0.696470 0.132538
O61   O     O_R   0.426075 0.437837 0.723773 -0.253100
O62   O     O_R   0.308171 0.344321 0.692506 -0.125781
N19   N     N_R   0.616080 0.938614 0.309459 0.130004
O63   O     O_R   0.620206 0.976380 0.282465 -0.247054
O64   O     O_R   0.677781 0.915463 0.316291 -0.150825
N20   N     N_R   0.174478 0.716975 0.161708 0.138105
O65   O     O_R   0.150402 0.759718 0.181907 -0.208861
O66   O     O_R   0.243350 0.765306 0.142924 -0.211639
N21   N     N_R   0.502982 0.461234 0.307112 0.127446
O67   O     O_R   0.539489 0.508803 0.281798 -0.230556
O68   O     O_R   0.497360 0.380910 0.309950 -0.131962
N22   N     N_R   0.571209 0.848461 0.169696 0.142757
O69   O     O_R   0.629979 0.888054 0.192419 -0.211705
O70   O     O_R   0.571869 0.781550 0.154112 -0.202312
N23   N     N_R   0.054910 0.672264 0.309417 0.134124
O71   O     O_R   0.021347 0.637702 0.281985 -0.256069
O72   O     O_R   0.066778 0.753295 0.316771 -0.112816
N24   N     N_R   0.322617 0.587218 0.152763 0.111741
O73   O     O_R   0.245554 0.547853 0.137082 -0.240980
O74   O     O_R   0.345782 0.663579 0.167867 -0.347106
F13   F     F_    0.887522 0.575574 0.894867 -0.492898
F14   F     F_    0.671257 0.003281 0.628554 -0.473137
F15   F     F_    0.545274 0.352000 0.905479 -0.506891
F16   F     F_    0.994777 0.663681 0.627778 -0.485118
F17   F     F_    0.686602 0.079798 0.887973 -0.503923
F18   F     F_    0.343890 0.415274 0.635268 -0.483803
F19   F     F_    0.665263 0.979924 0.372299 -0.489514
F20   F     F_    0.093897 0.662250 0.103420 -0.505694
F21   F     F_    0.523479 0.426107 0.370054 -0.487962
F22   F     F_    0.589001 0.903161 0.108123 -0.503115
F23   F     F_    0.013084 0.679334 0.372632 -0.482105
F24   F     F_    0.354707 0.536189 0.094698 -0.510334
N25   N     N_R   0.000112 0.388662 0.194168 0.132173
O75   O     O_R   0.962257 0.396873 0.219738 -0.230716
O76   O     O_R   0.026593 0.327384 0.192843 -0.177757
N26   N     N_R   0.303077 0.879624 0.338653 0.138086
O77   O     O_R   0.235523 0.813912 0.354330 -0.207527
O78   O     O_R   0.286117 0.930366 0.319771 -0.180780
N27   N     N_R   0.552279 0.512178 0.196578 0.123975
O79   O     O_R   0.605042 0.583798 0.213834 -0.185707
O80   O     O_R   0.546860 0.433159 0.202525 -0.171332
N28   N     N_R   0.117021 0.420573 0.337106 0.144711
O81   O     O_R   0.051167 0.337173 0.330681 -0.180597
O82   O     O_R   0.201835 0.437528 0.339036 -0.253367
N29   N     N_R   0.366180 0.981294 0.186089 0.142651
O83   O     O_R   0.285341 0.967059 0.177509 -0.142846
O84   O     O_R   0.398796 0.018322 0.213335 -0.225520
N30   N     N_R   0.384975 0.663559 0.347185 0.095363
O85   O     O_R   0.326832 0.655367 0.325625 -0.355243
O86   O     O_R   0.415057 0.732853 0.366598 -0.274298
N31   N     N_R   0.439472 0.145054 0.659132 0.142742
O87   O     O_R   0.350777 0.088857 0.660802 -0.171447
O88   O     O_R   0.471153 0.233783 0.658608 -0.299679
N32   N     N_R   0.992042 0.383145 0.814549 0.140327
O89   O     O_R   0.979865 0.300400 0.818243 -0.137806
O90   O     O_R   0.031762 0.428702 0.789175 -0.222676
N33   N     N_R   0.702354 0.478312 0.653102 0.092454
O91   O     O_R   0.722516 0.417832 0.641925 -0.310566
O92   O     O_R   0.768426 0.560106 0.661006 -0.224823
N34   N     N_R   0.384041 0.035074 0.817874 0.137549
O93   O     O_R   0.366105 0.989754 0.791552 -0.217776
O94   O     O_R   0.330940 0.066969 0.827211 -0.181269
N35   N     N_R   0.870640 0.296244 0.661452 0.133575
O95   O     O_R   0.802810 0.230439 0.645800 -0.237255
O96   O     O_R   0.920172 0.276096 0.679798 -0.168770
N36   N     N_R   0.514572 0.553122 0.806098 0.126403
O97   O     O_R   0.583174 0.603542 0.787483 -0.200475
O98   O     O_R   0.435729 0.549806 0.802027 -0.167654
N37   N     N_R   0.920287 0.340183 0.133018 0.130306
O99   O     O_R   0.938451 0.273807 0.137529 -0.158908
O100  O     O_R   0.844491 0.321883 0.118538 -0.209742
N38   N     N_R   0.367256 0.941714 0.399912 0.130198
O101  O     O_R   0.325914 0.988033 0.393043 -0.176087
O102  O     O_R   0.351424 0.900731 0.426901 -0.231259
N39   N     N_R   0.582150 0.463388 0.134813 0.148893
O103  O     O_R   0.663159 0.506761 0.147998 -0.154357
O104  O     O_R   0.563698 0.395699 0.115530 -0.210684
N40   N     N_R   0.055424 0.421344 0.399184 0.132317
O105  O     O_R   0.986140 0.385034 0.418583 -0.248140
O106  O     O_R   0.115108 0.392798 0.399815 -0.175098
N41   N     N_R   0.390614 0.034813 0.121856 0.145890
O107  O     O_R   0.342718 0.008420 0.096093 -0.230430
O108  O     O_R   0.403926 0.110101 0.135744 -0.166448
N42   N     N_R   0.360449 0.581356 0.406554 0.155719
O109  O     O_R   0.278730 0.569190 0.400707 -0.193918
O110  O     O_R   0.398152 0.615840 0.433497 -0.262003
N43   N     N_R   0.443524 0.086118 0.597362 0.131489
O111  O     O_R   0.399773 0.018412 0.577595 -0.254963
O112  O     O_R   0.437636 0.160647 0.594404 -0.183429
N44   N     N_R   0.064289 0.441091 0.877170 0.146158
O113  O     O_R   0.092732 0.386447 0.866453 -0.128605
O114  O     O_R   0.118538 0.509207 0.895528 -0.239157
N45   N     N_R   0.642059 0.488090 0.592991 0.136002
O115  O     O_R   0.721434 0.564359 0.592803 -0.173224
O116  O     O_R   0.616906 0.433742 0.568646 -0.274605
N46   N     N_R   0.363615 0.991515 0.882676 0.141945
O117  O     O_R   0.354135 0.027985 0.908419 -0.241933
O118  O     O_R   0.291918 0.920066 0.870609 -0.168842
N47   N     N_R   0.935530 0.357554 0.600570 0.128341
O119  O     O_R   0.982356 0.316715 0.607389 -0.169569
O120  O     O_R   0.888586 0.336096 0.574629 -0.225489
N48   N     N_R   0.478554 0.586747 0.869217 0.145724
O121  O     O_R   0.522184 0.667308 0.855795 -0.163029
O122  O     O_R   0.415160 0.571460 0.889893 -0.223091

loop_
_geom_bond_atom_site_label_1
_geom_bond_atom_site_label_2
_geom_bond_distance
_ccdc_geom_bond_type
C64   C76   1.411188 A    
C100  C107  1.396755 A    
C117  C165  1.404444 A    
C10   C24   1.470839 S    
N41   O107  1.301131 A    
N9    C57   1.382606 Am   
C52   O42   1.221373 D    
C45   N9    1.381058 Am   
N23   O71   1.301642 A    
O13   C1    1.290936 A    
N33   O91   1.300490 A    
C45   O35   1.222261 D    
N20   O65   1.300806 A    
C112  N40   1.442917 S    
C56   O46   1.218434 D    
C76   C83   1.419040 A    
C37   N1    1.381663 Am   
C39   N3    1.380918 Am   
C28   C40   1.408554 A    
C153  F18   1.357700 S    
C142  N17   1.434628 S    
O17   C5    1.291988 A    
N46   O117  1.301203 A    
O10   Cr4   2.004727 S    
C20   C133  1.418538 A    
C31   C79   1.413330 A    
O12   Cr6   2.006425 S    
N12   C60   1.381405 Am   
C18   C141  1.418109 A    
N30   O85   1.295976 A    
C70   C106  1.411276 A    
C101  C106  1.394391 A    
C114  C126  1.401801 A    
C89   H10   1.083508 S    
C72   C84   1.412469 A    
C129  N33   1.427474 S    
O1    Cr1   2.006648 S    
N4    C52   1.382961 Am   
C24   C123  1.415750 A    
O3    Cr3   2.002648 S    
C50   O40   1.221946 D    
C21   C126  1.416191 A    
O7    C9    1.288579 A    
Cr6   O26   1.969700 S    
C36   C96   1.404992 A    
C66   C78   1.411744 A    
C33   C45   1.407902 A    
N32   O89   1.300792 A    
C16   C131  1.423531 A    
C53   C65   1.409877 A    
C121  N25   1.434227 S    
C35   C47   1.405495 A    
N36   O97   1.300788 A    
C26   C38   1.405016 A    
O4    C6    1.287656 A    
C140  N13   1.435680 S    
C5    C13   1.491953 S    
C48   O38   1.222889 D    
C69   C105  1.410237 A    
N10   C58   1.382974 Am   
O14   Cr2   1.890515 S    
C106  F5    1.358580 S    
O15   C3    1.295028 A    
C72   C108  1.410664 A    
C22   C137  1.420511 A    
C143  C155  1.410680 A    
C134  C146  1.404808 A    
C94   H5    1.083458 S    
O15   Cr3   1.896068 S    
C40   O30   1.222351 D    
C19   C122  1.422432 A    
O5    C1    1.282884 A    
C67   C79   1.411281 A    
C59   C71   1.414376 A    
N10   C166  1.437633 S    
C131  N35   1.432973 S    
C11   C19   1.498495 S    
N16   O58   1.301325 A    
C65   C77   1.414025 A    
C145  F20   1.358458 S    
C63   C75   1.412355 A    
C148  F23   1.357903 S    
C146  F19   1.358011 S    
C135  C147  1.392662 A    
C50   C62   1.412287 A    
C86   H7    1.083484 S    
C154  C166  1.394879 A    
N34   O93   1.301282 A    
C88   H11   1.083412 S    
N7    C163  1.444326 S    
N47   O119  1.301050 A    
C61   C97   1.412344 A    
C44   N8    1.394310 Am   
O23   Cr5   1.888112 S    
C97   F8    1.358748 S    
Cr2   O25   1.971753 S    
N21   O68   1.301324 A    
C53   O43   1.222070 D    
N38   O101  1.301130 A    
C20   C121  1.420980 A    
N19   O64   1.301280 A    
C33   C81   1.412333 A    
C38   O28   1.221668 D    
N3    C159  1.440956 S    
O21   Cr6   1.896632 S    
C40   N4    1.380550 Am   
N1    C157  1.443309 S    
O21   C9    1.297992 A    
N29   O83   1.301220 A    
C33   C93   1.406078 A    
C117  C129  1.396746 A    
N48   O121  1.301256 A    
C89   C94   1.389597 A    
C28   C76   1.413840 A    
C142  C154  1.396777 A    
N39   O103  1.301260 A    
C31   C91   1.405997 A    
C42   N6    1.380075 Am   
C139  N14   1.439461 S    
C137  C149  1.394051 A    
C148  C160  1.397771 A    
N4    C160  1.444622 S    
N23   O72   1.301176 A    
C100  F11   1.358991 S    
N13   O51   1.301291 A    
C58   O48   1.222524 D    
C134  N19   1.437968 S    
C120  C132  1.417875 A    
C104  F1    1.358685 S    
N26   O77   1.300605 A    
O3    C5    1.290520 A    
N28   O82   1.300647 A    
N6    C162  1.440104 S    
C114  C162  1.405593 A    
C111  N39   1.438658 S    
N14   O53   1.301589 A    
C17   C142  1.420276 A    
C47   O37   1.221781 D    
C77   C82   1.414853 A    
C12   C20   1.493350 S    
C19   C134  1.422377 A    
C13   C128  1.414147 A    
C27   C75   1.411677 A    
C32   C80   1.406088 A    
C47   N11   1.381995 Am   
C56   C68   1.411120 A    
C114  N42   1.440755 S    
N42   O109  1.299569 A    
C98   F7    1.358716 S    
C39   O29   1.222937 D    
N25   O76   1.300791 A    
O22   C10   1.291059 A    
C92   H1    1.083704 S    
C137  N22   1.434719 S    
C128  N32   1.435839 S    
O8    Cr5   1.997206 S    
N31   O88   1.299722 A    
C42   O32   1.222261 D    
C113  N41   1.436413 S    
N22   O70   1.301325 A    
N5    C53   1.380557 Am   
O2    Cr2   2.005496 S    
N19   O63   1.301582 A    
N7    C55   1.383894 Am   
C96   H3    1.083406 S    
C43   N7    1.381090 Am   
C21   C138  1.416955 A    
C111  C123  1.417604 A    
C9    C23   1.498575 S    
O8    C10   1.283173 A    
C149  F22   1.358809 S    
C118  N46   1.436585 S    
C41   O31   1.223479 D    
C68   C80   1.407084 A    
C43   O33   1.222372 D    
C13   C140  1.415005 A    
C123  N27   1.435526 S    
C101  F10   1.358875 S    
C54   C66   1.407548 A    
C130  N34   1.435993 S    
C115  C163  1.407458 A    
O20   C8    1.291935 A    
C117  N45   1.435753 S    
C153  C165  1.403130 A    
N16   O57   1.301638 A    
C74   C79   1.417761 A    
C6    C14   1.491878 S    
C30   C42   1.407722 A    
C151  C163  1.399207 A    
C133  N20   1.432141 S    
C119  N47   1.437425 S    
N15   O55   1.299906 A    
C136  C148  1.406840 A    
N20   O66   1.300957 A    
C85   C92   1.395140 A    
C86   C91   1.393192 A    
C120  N48   1.438727 S    
O6    C2    1.283456 A    
C31   C43   1.407695 A    
C71   C83   1.413881 A    
N17   O60   1.300825 A    
C91   H2    1.083527 S    
N46   O118  1.301130 A    
C147  C159  1.396366 A    
O17   Cr2   1.895809 S    
C58   C70   1.407629 A    
C111  C159  1.411365 A    
C62   C74   1.413787 A    
C52   C64   1.411011 A    
C145  C157  1.397570 A    
O19   Cr4   1.895495 S    
C122  N26   1.432427 S    
C35   C95   1.406454 A    
Cr4   O26   1.971966 S    
N18   O61   1.301489 A    
N30   O86   1.299892 A    
N40   O105  1.300910 A    
C66   C102  1.410067 A    
N11   C167  1.444271 S    
C3    C17   1.493326 S    
C118  C166  1.406690 A    
C132  N36   1.436118 S    
C36   C48   1.403468 A    
N6    C54   1.381818 Am   
C46   N10   1.379013 Am   
O24   Cr6   1.891839 S    
C138  N21   1.441334 S    
O19   C7    1.292430 A    
C24   C135  1.413251 A    
C141  C153  1.412657 A    
C46   O36   1.222865 D    
N32   O90   1.301328 A    
C48   N12   1.379939 Am   
C38   N2    1.381594 Am   
C34   C82   1.413513 A    
C144  C156  1.393343 A    
N24   O73   1.300844 A    
C110  C122  1.411174 A    
N36   O98   1.301216 A    
C61   C73   1.411313 A    
C34   C94   1.404133 A    
C51   O41   1.222097 D    
C29   C77   1.411332 A    
N44   O113  1.300564 A    
C150  C162  1.402556 A    
C26   C86   1.406525 A    
C90   C93   1.394793 A    
C147  F24   1.359512 S    
C68   C104  1.409924 A    
C88   C95   1.393257 A    
C156  F15   1.359710 S    
C115  C127  1.407500 A    
N43   O111  1.301207 A    
C30   C90   1.406014 A    
C90   H9    1.083279 S    
C67   C103  1.411284 A    
N37   O100  1.301209 A    
C113  C125  1.411907 A    
C1    C15   1.471902 S    
C2    C16   1.499068 S    
O16   Cr1   1.896963 S    
N27   O79   1.300620 A    
N41   O108  1.301179 A    
O5    Cr2   1.999068 S    
C49   O39   1.222384 D    
C8    C22   1.490198 S    
C18   C129  1.410302 A    
N33   O92   1.299322 A    
C34   C46   1.402269 A    
C55   O45   1.222594 D    
N34   O94   1.301342 A    
C154  F17   1.358690 S    
C29   C41   1.400128 A    
N25   O75   1.300944 A    
C25   C85   1.407253 A    
C112  C160  1.409336 A    
C138  C150  1.411836 A    
C119  C131  1.407930 A    
Cr1   O25   1.973684 S    
N11   C59   1.381474 Am   
O18   Cr3   1.892776 S    
C28   C88   1.405457 A    
N21   O67   1.300986 A    
C36   C84   1.412280 A    
C29   C89   1.405024 A    
C78   C81   1.416019 A    
C62   C98   1.410599 A    
N35   O95   1.300406 A    
C16   C143  1.420109 A    
C105  F6    1.358651 S    
C141  N18   1.440126 S    
C32   C92   1.406888 A    
N38   O102  1.300687 A    
O24   C12   1.294177 A    
C133  C145  1.400415 A    
C93   H6    1.083291 S    
N3    C51   1.382276 Am   
C75   C84   1.416459 A    
N8    C56   1.391453 Am   
O23   C11   1.295417 A    
N9    C165  1.442769 S    
Cr5   O26   1.973566 S    
C99   F12   1.358544 S    
N48   O122  1.301181 A    
C115  N43   1.439312 S    
N39   O104  1.301334 A    
C25   C73   1.412146 A    
C23   C124  1.422693 A    
C156  C168  1.392554 A    
N31   O87   1.300571 A    
C116  C128  1.418710 A    
C54   O44   1.222550 D    
N15   O56   1.298808 A    
C55   C67   1.409668 A    
C23   C136  1.421013 A    
N26   O78   1.301035 A    
C102  F9    1.358662 S    
C37   O27   1.222426 D    
N2    C158  1.441867 S    
O4    Cr1   1.997775 S    
N14   O54   1.301248 A    
O9    C11   1.290076 A    
O6    Cr3   2.005091 S    
C118  C130  1.409871 A    
C136  N23   1.440064 S    
O10   C12   1.287330 A    
C95   H4    1.083358 S    
C102  C105  1.393612 A    
O16   C4    1.291832 A    
C71   C107  1.411192 A    
C108  F3    1.358539 S    
N42   O110  1.299238 A    
O20   Cr5   1.896773 S    
C14   C127  1.419890 A    
C87   H12   1.083404 S    
C70   C82   1.411565 A    
C41   N5    1.380674 Am   
C103  F2    1.358296 S    
O9    Cr6   2.000479 S    
C127  N31   1.430945 S    
C57   O47   1.222462 D    
C59   O49   1.221802 D    
C26   C74   1.411210 A    
C73   C80   1.416243 A    
C149  C161  1.394366 A    
C4    C18   1.477313 S    
N5    C161  1.436675 S    
C144  N15   1.438230 S    
C113  C161  1.406082 A    
N29   O84   1.301367 A    
C143  N16   1.441089 S    
C126  N30   1.437150 S    
O7    Cr4   2.001665 S    
O18   C6    1.295435 A    
C44   O34   1.221335 D    
C125  N29   1.437297 S    
C151  F14   1.357963 S    
N1    C49   1.383590 Am   
C97   C104  1.396438 A    
O11   C7    1.283108 A    
C98   C103  1.395563 A    
C22   C125  1.422277 A    
C15   C144  1.416275 A    
O12   C8    1.290278 A    
N43   O112  1.301220 A    
C69   C81   1.411363 A    
C17   C130  1.422928 A    
N47   O120  1.300360 A    
Cr3   O25   1.969796 S    
C14   C139  1.420233 A    
N27   O80   1.301113 A    
C109  C121  1.412929 A    
C152  C164  1.414150 A    
C35   C83   1.410723 A    
N8    C164  1.482307 S    
C116  C164  1.426876 A    
C51   C63   1.410374 A    
C112  C124  1.412945 A    
N13   O52   1.301341 A    
C27   C87   1.405063 A    
C49   C61   1.410049 A    
C109  C157  1.406726 A    
O14   C2    1.300392 A    
N28   O81   1.300500 A    
C124  N28   1.431672 S    
C140  C152  1.399877 A    
N12   C168  1.437888 S    
C152  F13   1.358901 S    
O22   Cr4   1.891643 S    
N17   O59   1.301366 A    
C32   C44   1.407797 A    
C7    C21   1.473450 S    
C155  C167  1.400224 A    
C116  N44   1.441500 S    
N35   O96   1.301093 A    
N18   O62   1.301261 A    
N40   O106  1.300882 A    
C30   C78   1.412470 A    
C15   C132  1.416481 A    
C65   C101  1.410448 A    
N45   O115  1.301025 A    
N2    C50   1.380695 Am   
O13   Cr1   1.888363 S    
C64   C100  1.411958 A    
C120  C168  1.409998 A    
C87   C96   1.391068 A    
C155  F16   1.357705 S    
C139  C151  1.406925 A    
C25   C37   1.407647 A    
N22   O69   1.301255 A    
C150  F21   1.357814 S    
N24   O74   1.299935 A    
C107  F4    1.358676 S    
C110  N38   1.438081 S    
O11   Cr5   2.006222 S    
C135  N24   1.437106 S    
C57   C69   1.407015 A    
C146  C158  1.396207 A    
N44   O114  1.301850 A    
C110  C158  1.406859 A    
C63   C99   1.410539 A    
C60   O50   1.222260 D    
C85   H8    1.083548 S    
C109  N37   1.437266 S    
O1    C3    1.289838 A    
O2    C4    1.284193 A    
N45   O116  1.301229 A    
N37   O99   1.300265 A    
C119  C167  1.405035 A    
C27   C39   1.403149 A    
C99   C108  1.394935 A    
C60   C72   1.410053 A    
