data_mof_unit_17024.cif
_audit_creation_date              2012-12-10T16:47:49-0500
_audit_creation_method            fapswitch 2.2
_symmetry_space_group_name_H-M    P1
_symmetry_Int_Tables_number       1
_space_group_crystal_system       triclinic
_cell_length_a                    7.774
_cell_length_b                    8.573899
_cell_length_c                    10.659718
_cell_angle_alpha                 90.589325
_cell_angle_beta                  86.4822
_cell_angle_gamma                 93.568136
_cell_volume                      707.779025331

loop_
_atom_site_label
_atom_site_type_symbol
_atom_type_description
_atom_site_fract_x
_atom_site_fract_y
_atom_site_fract_z
_atom_type_partial_charge
C1    C     C_R   0.545721 0.794668 0.497194 0.954140
C2    C     C_2   0.569807 0.958159 0.496256 -0.391332
C3    C     C_3   0.468270 0.791874 0.865138 0.111594
C4    C     C_3   0.437674 0.929832 0.952824 -0.813354
C5    C     C_2   0.430331 0.041852 0.506537 -0.388034
C6    C     C_R   0.504640 0.506634 0.736959 0.762008
C7    C     C_R   0.454330 0.205331 0.503809 0.961899
C8    C     C_R   0.494899 0.489391 0.263004 0.918632
C9    C     C_2   0.617864 0.422935 0.059860 -0.139504
C10   C     C_2   0.480316 0.457889 0.132701 -0.249303
C11   C     C_2   0.605457 0.419872 0.925732 -0.274534
C12   C     C_2   0.519873 0.527320 0.868931 0.356976
H1    H     H_    0.740675 0.400564 0.097477 0.171610
H2    H     H_    0.533432 0.935464 0.026173 0.258573
H3    H     H_    0.451452 0.040273 0.898516 0.202025
H4    H     H_    0.305467 0.917286 0.998855 0.258367
H5    H     H_    0.353987 0.464641 0.095208 0.188420
H6    H     H_    0.670567 0.329507 0.872417 0.135058
H7    H     H_    0.701584 0.009118 0.486567 0.182752
H8    H     H_    0.298567 0.990889 0.516450 0.181151
H9    H     H_    0.013067 0.382403 0.406654 0.189345
H10   H     H_    0.986929 0.617582 0.593362 0.190465
H11   H     H_    0.371255 0.790418 0.792645 0.160104
H12   H     H_    0.600766 0.809947 0.819221 0.119646
N1    N     N_2   0.950320 0.457950 0.466680 -0.172234
N2    N     N_2   0.049680 0.542050 0.533320 -0.171268
O1    O     O_R   0.389250 0.738570 0.508180 -0.614999
O2    O     O_R   0.678390 0.711630 0.486820 -0.625168
O3    O     O_R   0.355470 0.513470 0.691600 -0.609624
O4    O     O_R   0.644610 0.486520 0.670240 -0.640695
O5    O     O_R   0.321610 0.288370 0.513180 -0.629499
O6    O     O_R   0.610750 0.261430 0.491820 -0.612775
O7    O     O_R   0.355390 0.513480 0.329760 -0.623210
O8    O     O_R   0.644530 0.486530 0.308400 -0.613259
O9    O     O_3   0.449466 0.652069 0.935386 -0.613604
Zn1   Zn    Zn3+2 0.306940 0.517990 0.514260 0.941983
Zn2   Zn    Zn3+2 0.693060 0.482010 0.485740 0.937648

loop_
_geom_bond_atom_site_label_1
_geom_bond_atom_site_label_2
_ccdc_geom_bond_type
C4    H4    S    
C1    O2    A    
C11   C12   D    
C11   H6    S    
O1    Zn1   S    
O8    Zn2   S    
C9    C10   D    
C3    H11   S    
C3    O9    S    
O7    Zn1   S    
C4    H3    S    
N1    N2    D    
C5    H8    S    
C8    O8    A    
O6    Zn2   S    
C12   O9    S    
C4    H2    S    
C9    C11   S    
O3    Zn1   S    
C3    H12   S    
O2    Zn2   S    
N2    Zn1   S    
C6    O4    A    
C5    C7    S    
C8    O7    A    
C6    C12   S    
C2    C5    D    
C7    O5    A    
C10   H5    S    
C3    C4    S    
C6    O3    A    
C8    C10   S    
C1    C2    S    
H10   N2    S    
C1    O1    A    
C9    H1    S    
O5    Zn1   S    
H9    N1    S    
C7    O6    A    
N1    Zn2   S    
C2    H7    S    
O4    Zn2   S    
