data_mof_unit_9459.cif
_audit_creation_date              2012-12-10T16:53:06-0500
_audit_creation_method            fapswitch 2.2
_symmetry_space_group_name_H-M    P1
_symmetry_Int_Tables_number       1
_space_group_crystal_system       triclinic
_cell_length_a                    10.911612
_cell_length_b                    10.929696
_cell_length_c                    9.729072
_cell_angle_alpha                 90.182271
_cell_angle_beta                  90.092344
_cell_angle_gamma                 89.96294
_cell_volume                      1160.28736683

loop_
_atom_site_label
_atom_site_type_symbol
_atom_type_description
_atom_site_fract_x
_atom_site_fract_y
_atom_site_fract_z
_atom_type_partial_charge
C1    C     C_R   0.496196 0.265689 0.499816 0.820173
C2    C     C_R   0.063452 0.475920 0.628963 0.049014
C3    C     C_R   0.129292 0.476543 0.504058 -0.150974
C4    C     C_R   0.065005 0.473996 0.380498 -0.277389
C5    C     C_R   0.937739 0.473705 0.380016 0.251652
C6    C     C_R   0.873234 0.501798 0.502179 -0.153886
C7    C     C_2   0.483485 0.933018 0.394990 -0.214477
C8    C     C_2   0.523569 0.866427 0.502272 0.114127
C9    C     C_2   0.496668 0.066096 0.388644 -0.153499
C10   C     C_2   0.482066 0.134492 0.501498 -0.279888
C11   C     C_2   0.548750 0.414861 0.922151 -0.086725
C12   C     C_R   0.262939 0.490020 0.500702 0.813376
C13   C     C_2   0.546725 0.413723 0.077375 -0.066226
C14   C     C_R   0.505179 0.734546 0.500497 0.792480
C15   C     C_R   0.738085 0.503210 0.500481 0.806490
C16   C     C_R   0.114895 0.437118 0.754605 -0.167366
C17   C     C_R   0.054875 0.460016 0.879379 0.299404
C18   C     C_R   0.945877 0.527167 0.876837 -0.205136
C19   C     C_R   0.889099 0.554079 0.752465 -0.190279
C20   C     C_R   0.940080 0.512706 0.627367 0.042231
Cu1   Cu    Cu3+1 0.500020 0.500020 0.638630 0.925121
Cu2   Cu    Cu3+1 0.499980 0.499980 0.361370 0.940820
H1    H     H_    0.113229 0.465994 0.284063 0.191014
H2    H     H_    0.455750 0.093849 0.598469 0.184015
H3    H     H_    0.594800 0.339388 0.871255 0.160622
H4    H     H_    0.455715 0.571091 0.893720 0.188025
H5    H     H_    0.588547 0.335994 0.127902 0.155048
H6    H     H_    0.460414 0.573569 0.106473 0.190230
H7    H     H_    0.197161 0.382432 0.754666 0.164225
H8    H     H_    0.901997 0.556524 0.970383 0.138879
H9    H     H_    0.806368 0.608159 0.756727 0.173704
H10   H     H_    0.438961 0.888910 0.307999 0.140744
H11   H     H_    0.513080 0.107822 0.289158 0.155474
N1    N     N_2   0.498640 0.498660 0.846910 -0.292884
N2    N     N_2   0.498610 0.498630 0.153040 -0.283282
O1    O     O_R   0.500020 0.321960 0.617040 -0.584540
O2    O     O_R   0.499980 0.321920 0.382900 -0.583450
O3    O     O_R   0.319670 0.500020 0.617100 -0.583705
O4    O     O_R   0.319630 0.499980 0.382950 -0.579222
O5    O     O_R   0.500020 0.678080 0.617100 -0.571202
O6    O     O_R   0.499980 0.678040 0.382960 -0.594334
O7    O     O_R   0.680370 0.500020 0.617050 -0.588969
O8    O     O_R   0.680330 0.499980 0.382900 -0.527366
N3    N     N_2   0.099189 0.413724 0.006966 -0.465644
H12   H     H_    0.044256 0.346158 0.047062 0.250353
C21   C     C_3   0.228729 0.388759 0.021413 -0.685360
H13   H     H_    0.250720 0.370798 0.130849 0.240807
H14   H     H_    0.282166 0.469256 0.987564 0.240702
H15   H     H_    0.254872 0.306224 0.961357 0.214038
N4    N     N_2   0.876068 0.441892 0.256536 -0.397281
H16   H     H_    0.917296 0.477642 0.171187 0.248954
C22   C     C_3   0.851566 0.312238 0.242826 -0.678339
H17   H     H_    0.938366 0.259100 0.246891 0.210735
H18   H     H_    0.806331 0.294084 0.142623 0.205548
H19   H     H_    0.789911 0.280888 0.326330 0.239035
N5    N     N_2   0.600969 0.919370 0.605230 -0.419566
H20   H     H_    0.692356 0.898078 0.592562 0.245088
C23   C     C_3   0.560548 0.909509 0.746566 -0.691827
H21   H     H_    0.599819 0.986380 0.807072 0.219416
H22   H     H_    0.593326 0.822418 0.792363 0.234039
H23   H     H_    0.458947 0.914635 0.753652 0.227233

loop_
_geom_bond_atom_site_label_1
_geom_bond_atom_site_label_2
_ccdc_geom_bond_type
N4    C22   S    
C18   H8    S    
C6    C20   A    
C9    C10   D    
Cu2   O8    S    
C22   H19   S    
C1    O2    A    
C6    C15   S    
C19   H9    S    
C8    N5    S    
C12   O4    A    
C17   C18   A    
C23   H21   S    
C17   N3    S    
C15   O8    A    
C7    C8    D    
Cu1   O1    S    
Cu1   Cu2   S    
N5    H20   S    
C9    H11   S    
Cu2   N2    S    
C11   C13   S    
C21   H15   S    
Cu1   O7    S    
Cu1   O5    S    
C23   H23   S    
C14   O6    A    
Cu2   O4    S    
C14   O5    A    
N5    C23   S    
C22   H18   S    
C13   N2    D    
H6    N2    S    
C2    C3    A    
C12   O3    A    
C5    C6    A    
C7    H10   S    
C21   H14   S    
C5    N4    S    
Cu2   O6    S    
C16   C17   A    
C11   H3    S    
C2    C20   A    
C3    C4    A    
Cu1   O3    S    
C2    C16   A    
N3    H12   S    
C1    O1    A    
C10   H2    S    
C18   C19   A    
C7    C9    S    
C4    H1    S    
C21   H13   S    
C13   H5    S    
C8    C14   S    
Cu1   N1    S    
N3    C21   S    
C3    C12   S    
N4    H16   S    
C16   H7    S    
Cu2   O2    S    
C23   H22   S    
H4    N1    S    
C11   N1    D    
C1    C10   S    
C19   C20   A    
C15   O7    A    
C22   H17   S    
C4    C5    A    
