data_mof_unit_67599.cif
_audit_creation_date              2013-03-05T16:06:41-0500
_audit_creation_method            fapswitch 2.2
_symmetry_space_group_name_H-M    P1
_symmetry_Int_Tables_number       1
_space_group_crystal_system       triclinic
_cell_length_a                    11.029263
_cell_length_b                    9.637405
_cell_length_c                    15.27332
_cell_angle_alpha                 89.937469
_cell_angle_beta                  93.711423
_cell_angle_gamma                 89.794265
_cell_volume                      1620.03756108

loop_
_atom_site_label
_atom_site_type_symbol
_atom_site_description
_atom_site_fract_x
_atom_site_fract_y
_atom_site_fract_z
_atom_type_partial_charge
O1    O     O_R   0.319640 0.618740 0.499990 -0.552343
O2    O     O_R   0.680360 0.381260 0.500010 -0.515231
O3    O     O_R   0.680360 0.618740 0.500010 -0.546129
O4    O     O_R   0.319640 0.381260 0.499990 -0.510148
N1    N     N_R   0.500000 0.852070 0.500000 -0.315922
N2    N     N_R   0.500000 0.147930 0.500000 -0.303654
C1    C     C_R   0.262116 0.499702 0.498041 0.878345
C2    C     C_R   0.737929 0.499459 0.502019 0.879664
O5    O     O_R   0.499990 0.618780 0.371460 -0.527307
O6    O     O_R   0.500010 0.381220 0.628540 -0.505440
O7    O     O_R   0.500010 0.618780 0.628540 -0.530083
O8    O     O_R   0.499990 0.381220 0.371460 -0.508386
C3    C     C_R   0.507139 0.500176 0.330383 0.886995
C4    C     C_R   0.490719 0.500238 0.669465 0.887499
Cu1   Cu    Cu3+1 0.500000 0.640660 0.500000 1.108393
Cu2   Cu    Cu3+1 0.500000 0.359340 0.500000 1.130084
C5    C     C_R   0.428387 0.072638 0.439332 0.325347
C6    C     C_R   0.583608 0.926065 0.551395 0.329791
C7    C     C_R   0.571412 0.072037 0.560579 0.329856
C8    C     C_R   0.416447 0.926675 0.448595 0.327526
C9    C     C_R   0.060034 0.374922 0.487923 0.302162
C10   C     C_R   0.937253 0.622227 0.490982 0.356967
C11   C     C_R   0.941009 0.374921 0.514566 0.297319
C12   C     C_R   0.062361 0.622381 0.509629 0.349158
C13   C     C_R   0.543879 0.617088 0.094935 0.334983
C14   C     C_R   0.498657 0.378447 0.903497 0.380475
C15   C     C_R   0.438766 0.621812 0.902586 0.343004
C16   C     C_R   0.459581 0.385232 0.098013 0.396501
C17   C     C_R   0.532444 0.624325 0.185480 0.188672
C18   C     C_R   0.468914 0.374327 0.812840 0.186755
C19   C     C_R   0.459038 0.626092 0.813004 0.189606
C20   C     C_R   0.504687 0.375209 0.185582 0.196256
C21   C     C_R   0.518299 0.500117 0.233819 -0.415477
C22   C     C_R   0.471038 0.500629 0.765340 -0.416840
C23   C     C_R   0.492514 0.501832 0.048486 -0.204140
C24   C     C_R   0.474304 0.500842 0.950789 -0.197853
C25   C     C_R   0.872188 0.498386 0.502805 -0.391031
C26   C     C_R   0.128032 0.498613 0.498313 -0.390824
N3    N     N_R   0.370645 0.134414 0.361323 0.168426
O9    O     O_R   0.311685 0.250109 0.363557 -0.360970
O10   O     O_R   0.358991 0.062605 0.289298 -0.275063
N4    N     N_R   0.691035 0.861573 0.591305 0.185193
O11   O     O_R   0.683791 0.771705 0.654030 -0.304491
O12   O     O_R   0.795221 0.921144 0.582496 -0.348062
N5    N     N_R   0.627615 0.133286 0.638820 0.166220
O13   O     O_R   0.688157 0.247496 0.636704 -0.361442
O14   O     O_R   0.635620 0.062157 0.711275 -0.293880
N6    N     N_R   0.309161 0.862754 0.408985 0.183759
O15   O     O_R   0.316461 0.774641 0.345342 -0.309120
O16   O     O_R   0.204909 0.922441 0.418650 -0.349956
O17   O     O_3   0.586410 0.733664 0.053856 -0.502751
C27   C     C_3   0.697301 0.703473 0.016717 0.116296
H1    H     H_    0.681076 0.639521 0.956718 0.145256
H2    H     H_    0.761413 0.646787 0.063572 0.093691
C28   C     C_3   0.756005 0.840157 0.991548 -0.246226
H3    H     H_    0.686121 0.910497 0.959910 0.285925
H4    H     H_    0.795498 0.892330 0.051579 0.200012
C29   C     C_3   0.855087 0.815900 0.928195 -0.940095
H5    H     H_    0.919359 0.735026 0.954603 0.233885
H6    H     H_    0.905597 0.913573 0.918574 0.268465
H7    H     H_    0.814074 0.781195 0.863589 0.303405
O18   O     O_3   0.546413 0.260600 0.945112 -0.498997
C30   C     C_3   0.672921 0.276823 0.964529 0.079802
H8    H     H_    0.699417 0.208326 0.021199 0.189156
H9    H     H_    0.698778 0.384113 0.985292 0.090020
C31   C     C_3   0.744387 0.232212 0.886530 -0.291433
H10   H     H_    0.721125 0.123354 0.869015 0.287514
H11   H     H_    0.719801 0.299721 0.829059 0.234036
C32   C     C_3   0.880902 0.241908 0.908228 -0.988147
H12   H     H_    0.906596 0.349578 0.927346 0.260521
H13   H     H_    0.929567 0.212970 0.849674 0.267467
H14   H     H_    0.908881 0.169435 0.962434 0.257352
O19   O     O_3   0.408880 0.745931 0.942002 -0.499496
C33   C     C_3   0.298150 0.735850 0.983122 0.098732
H15   H     H_    0.311273 0.678435 0.045989 0.154120
H16   H     H_    0.226988 0.682138 0.940986 0.093135
C34   C     C_3   0.254595 0.883167 0.002509 -0.219174
H17   H     H_    0.332327 0.946005 0.030119 0.306649
H18   H     H_    0.219080 0.933215 0.940398 0.203707
C35   C     C_3   0.155994 0.883779 0.068075 -0.919111
H19   H     H_    0.079576 0.816439 0.044671 0.241758
H20   H     H_    0.121396 0.991136 0.075916 0.258837
H21   H     H_    0.193399 0.845711 0.133026 0.305327
O20   O     O_3   0.389196 0.277968 0.062076 -0.506115
C36   C     C_3   0.266886 0.322371 0.047403 0.088837
H22   H     H_    0.218907 0.243604 0.005011 0.175502
H23   H     H_    0.258939 0.422080 0.010626 0.102285
C37   C     C_3   0.202526 0.333122 0.133522 -0.346074
H24   H     H_    0.208444 0.231730 0.168334 0.266885
H25   H     H_    0.247177 0.413155 0.176745 0.216788
C38   C     C_3   0.069272 0.373631 0.116151 -0.971451
H26   H     H_    0.060947 0.471395 0.077440 0.256565
H27   H     H_    0.027227 0.390454 0.179313 0.260822
H28   H     H_    0.019359 0.289432 0.080042 0.262361
N7    N     N_R   0.525759 0.759143 0.223935 0.213468
O21   O     O_R   0.614166 0.804338 0.276141 -0.388717
O22   O     O_R   0.446626 0.847533 0.190128 -0.241589
N8    N     N_R   0.427890 0.246093 0.772251 0.180038
O23   O     O_R   0.342254 0.250081 0.709617 -0.396239
O24   O     O_R   0.448154 0.128189 0.812217 -0.225155
N9    N     N_R   0.476370 0.759518 0.774658 0.218479
O25   O     O_R   0.391339 0.814224 0.722892 -0.379641
O26   O     O_R   0.561298 0.839357 0.809182 -0.253833
N10   N     N_R   0.548800 0.243335 0.219637 0.184694
O27   O     O_R   0.639171 0.240531 0.278745 -0.389340
O28   O     O_R   0.527228 0.130823 0.174352 -0.220359
O29   O     O_3   0.104722 0.256773 0.449504 -0.534423
C39   C     C_3   0.046906 0.241737 0.363662 0.159345
H29   H     H_    0.112513 0.194419 0.320720 0.226848
H30   H     H_    0.019836 0.342905 0.332263 0.076546
C40   C     C_3   0.937633 0.143522 0.361670 -0.319991
H31   H     H_    0.961757 0.048371 0.400178 0.276031
H32   H     H_    0.859427 0.194859 0.390397 0.268207
C41   C     C_3   0.898208 0.103576 0.267233 -0.880336
H33   H     H_    0.876615 0.197957 0.227327 0.268812
H34   H     H_    0.815642 0.038146 0.266270 0.303563
H35   H     H_    0.971493 0.044614 0.237067 0.253175
O30   O     O_3   0.883037 0.745334 0.463959 -0.518458
C42   C     C_3   0.852500 0.739556 0.372518 0.126467
H36   H     H_    0.805433 0.838245 0.355363 0.218469
H37   H     H_    0.788040 0.653533 0.355839 0.144098
C43   C     C_3   0.963111 0.729196 0.316012 -0.368654
H38   H     H_    0.020533 0.822694 0.326057 0.284756
H39   H     H_    0.018970 0.636192 0.333834 0.213559
C44   C     C_3   0.922444 0.716362 0.219091 -0.922992
H40   H     H_    0.867676 0.620755 0.207892 0.251450
H41   H     H_    0.003242 0.709326 0.179703 0.267051
H42   H     H_    0.867276 0.807834 0.197032 0.276754
O31   O     O_3   0.895239 0.255228 0.550173 -0.535343
C45   C     C_3   0.951765 0.234456 0.635986 0.152948
H43   H     H_    0.886160 0.182381 0.676690 0.230387
H44   H     H_    0.976168 0.333585 0.670652 0.087525
C46   C     C_3   0.062471 0.137611 0.636491 -0.317789
H45   H     H_    0.039442 0.043370 0.597089 0.277000
H46   H     H_    0.139613 0.190642 0.607989 0.275367
C47   C     C_3   0.103118 0.095309 0.730403 -0.880561
H47   H     H_    0.121439 0.188757 0.771605 0.269224
H48   H     H_    0.187990 0.033327 0.730828 0.308782
H49   H     H_    0.031866 0.032318 0.759576 0.247479
O32   O     O_3   0.115949 0.746039 0.535167 -0.519617
C48   C     C_3   0.152480 0.740175 0.625718 0.137317
H50   H     H_    0.196949 0.840230 0.641911 0.214799
H51   H     H_    0.221169 0.657172 0.640082 0.145494
C49   C     C_3   0.046642 0.722682 0.685819 -0.376194
H52   H     H_    0.984239 0.813061 0.678503 0.281169
H53   H     H_    0.994263 0.627196 0.668993 0.210164
C50   C     C_3   0.094826 0.708869 0.781115 -0.924425
H54   H     H_    0.159553 0.620371 0.788625 0.251165
H55   H     H_    0.018487 0.688221 0.822758 0.263505
H56   H     H_    0.141378 0.805496 0.803585 0.278309

loop_
_geom_bond_atom_site_label_1
_geom_bond_atom_site_label_2
_geom_bond_distance
_ccdc_geom_bond_type
C31   H11   1.110850 S    
C28   H3    1.111048 S    
C30   H9    1.114528 S    
N9    O25   1.296978 A    
C16   O20   1.387226 S    
O19   C33   1.412584 S    
N7    O21   1.295921 A    
C48   H51   1.111628 S    
N10   O28   1.301124 A    
C41   H33   1.110856 S    
N3    O10   1.299845 A    
N1    C8    1.372201 A    
N5    O13   1.290897 A    
C12   O32   1.377651 S    
N2    C7    1.382547 A    
C33   H16   1.111924 S    
C19   N9    1.430957 S    
C50   H55   1.106031 S    
O4    C1    1.303329 A    
O7    C4    1.309172 A    
C42   C43   1.542305 S    
C31   C32   1.523828 S    
C29   H6    1.109991 S    
Cu1   Cu2   2.711195 S    
C17   C21   1.420090 A    
C5    C8    1.421090 A    
C39   H29   1.105177 S    
C11   O31   1.385492 S    
C6    C7    1.420685 A    
C5    N3    1.441212 S    
C32   H13   1.107833 S    
O5    C3    1.309072 A    
O30   C42   1.416489 S    
C50   H54   1.111317 S    
O7    Cu1   1.974288 S    
C9    C26   1.414235 A    
O8    Cu2   1.974288 S    
C16   C23   1.415467 A    
C33   C34   1.532510 S    
C44   H42   1.108982 S    
C12   C26   1.409860 A    
O29   C39   1.428084 S    
C20   N10   1.443558 S    
O1    Cu1   2.001168 S    
O2    Cu2   2.001167 S    
C27   C28   1.529521 S    
C34   H17   1.112231 S    
C37   H24   1.111622 S    
C29   H7    1.110941 S    
N6    O16   1.300839 A    
C31   H10   1.109816 S    
C30   C31   1.531525 S    
N9    O26   1.299840 A    
C46   H46   1.106884 S    
N4    O12   1.301044 A    
C49   C50   1.522337 S    
N10   O27   1.300943 A    
C27   H2    1.114207 S    
N5    O14   1.299081 A    
C13   C17   1.398562 A    
C19   C22   1.422227 A    
C33   H15   1.108763 S    
C18   C22   1.417391 A    
C36   H23   1.112853 S    
C15   C19   1.401165 A    
O17   C27   1.410627 S    
C16   C20   1.399587 A    
C50   H56   1.109014 S    
O32   C48   1.416251 S    
C49   H53   1.109830 S    
O3    C2    1.310629 A    
O6    C4    1.313725 A    
C48   C49   1.540604 S    
N3    O9    1.290358 A    
C17   N7    1.430089 S    
C35   H19   1.106692 S    
N1    C6    1.373787 A    
C29   H5    1.109503 S    
C36   H22   1.111339 S    
C10   C25   1.412261 A    
C23   C24   1.492716 S    
C47   H49   1.110312 S    
O4    Cu2   1.999659 S    
C32   H14   1.110234 S    
C45   H44   1.118022 S    
C13   O17   1.384292 S    
C3    C21   1.487901 S    
O18   C30   1.416791 S    
C38   H27   1.108922 S    
C37   C38   1.525774 S    
C7    N5    1.438381 S    
C34   H18   1.111550 S    
C40   H32   1.108006 S    
C28   H4    1.110895 S    
C8    N6    1.434925 S    
O20   C36   1.417604 S    
C9    O29   1.385149 S    
C42   H37   1.113056 S    
C35   H20   1.110761 S    
C13   C23   1.418537 A    
C46   C47   1.529283 S    
C47   H48   1.108282 S    
N6    O15   1.297646 A    
C37   H25   1.111300 S    
C14   C18   1.402787 A    
N8    O24   1.301040 A    
C9    C11   1.399317 A    
C44   H40   1.110895 S    
C10   C12   1.390779 A    
C45   C46   1.533818 S    
C2    C25   1.480047 S    
C43   H39   1.109427 S    
C38   H26   1.112134 S    
O3    Cu1   1.999658 S    
C27   H1    1.110152 S    
C35   H21   1.110875 S    
O31   C45   1.428039 S    
C36   C37   1.537973 S    
C14   C24   1.417734 A    
C10   O30   1.377465 S    
N2    C5    1.385560 A    
C40   H31   1.111048 S    
O1    C1    1.312391 A    
O2    C2    1.305548 A    
C49   H52   1.109224 S    
C4    C22   1.494181 S    
C41   H34   1.108834 S    
C42   H36   1.105000 S    
N7    O22   1.299751 A    
C15   C24   1.418556 A    
C18   N8    1.444195 S    
C39   C40   1.533912 S    
C20   C21   1.415401 A    
C43   C44   1.524008 S    
C6    N4    1.435997 S    
C45   H43   1.105488 S    
C14   O18   1.386404 S    
C11   C25   1.414087 A    
C48   H50   1.104425 S    
C38   H28   1.109303 S    
C34   C35   1.525268 S    
C46   H45   1.111149 S    
C1    C26   1.479197 S    
C39   H30   1.117189 S    
C40   C41   1.529357 S    
O5    Cu1   1.974746 S    
C32   H12   1.111012 S    
N1    Cu1   2.037444 S    
C41   H35   1.110846 S    
N2    Cu2   2.037445 S    
C30   H8    1.111276 S    
O8    C3    1.311336 A    
N8    O23   1.300533 A    
N4    O11   1.297266 A    
C28   C29   1.523381 S    
C44   H41   1.108929 S    
C47   H47   1.110853 S    
O6    Cu2   1.974746 S    
C43   H38   1.108339 S    
C15   O19   1.387933 S    
