data_mof_unit_19606.cif
_audit_creation_date              2012-12-11T15:42:38-0500
_audit_creation_method            fapswitch 2.2
_symmetry_space_group_name_H-M    P1
_symmetry_Int_Tables_number       1
_space_group_crystal_system       triclinic
_cell_length_a                    6.937078
_cell_length_b                    14.546382
_cell_length_c                    16.178266
_cell_angle_alpha                 90.340014
_cell_angle_beta                  89.966385
_cell_angle_gamma                 90.04792
_cell_volume                      1632.50930411

loop_
_atom_site_label
_atom_site_type_symbol
_atom_type_description
_atom_site_fract_x
_atom_site_fract_y
_atom_site_fract_z
_atom_type_partial_charge
O1    O     O_R   0.505810 0.583360 0.413880 -0.538353
O2    O     O_R   0.175870 0.595480 0.585520 -0.543578
O3    O     O_R   0.005540 0.416640 0.586120 -0.540933
C1    C     C_R   0.344933 0.617621 0.614661 0.684972
O4    O     O_R   0.176100 0.594390 0.414490 -0.541369
O5    O     O_R   0.005770 0.415540 0.413870 -0.541881
C2    C     C_R   0.345138 0.616410 0.385822 0.707388
O6    O     O_R   0.505580 0.584460 0.586130 -0.541584
O7    O     O_3   0.339190 0.441320 0.500000 -0.370407
V1    V     V_3+5 0.064350 0.510890 0.500000 1.401562
O8    O     O_R   0.676050 0.404520 0.414480 -0.543933
C3    C     C_R   0.845113 0.382103 0.385725 0.685749
O9    O     O_R   0.675830 0.405610 0.585510 -0.539860
C4    C     C_R   0.845005 0.383651 0.613691 0.747463
V2    V     V_3+5 0.564340 0.489110 0.500000 1.403552
O10   O     O_3   0.839370 0.558680 0.500000 -0.371239
C5    C     C_2   0.720412 0.208823 0.786086 -0.128543
C6    C     C_2   0.885687 0.181928 0.822620 -0.310007
H1    H     H_    0.584570 0.179900 0.806960 0.136656
H2    H     H_    0.023221 0.210205 0.803950 0.127669
C7    C     C_2   0.707912 0.277409 0.718178 -0.134048
C8    C     C_2   0.861434 0.315308 0.680432 -0.308148
H3    H     H_    0.563916 0.296620 0.698445 0.135148
H4    H     H_    0.006577 0.296724 0.698215 0.129310
C9    C     C_R   0.047263 0.223125 0.219278 -0.156014
H5    H     H_    0.187977 0.204680 0.195440 0.116577
C10   C     C_R   0.035979 0.287148 0.284063 -0.150807
H6    H     H_    0.168584 0.316216 0.307968 0.118950
C11   C     C_R   0.856399 0.313326 0.317339 -0.045809
C12   C     C_R   0.688417 0.273734 0.283954 -0.155635
H7    H     H_    0.547704 0.292179 0.307793 0.116691
C13   C     C_R   0.699701 0.209710 0.219169 -0.151780
H8    H     H_    0.567097 0.180643 0.195262 0.118261
C14   C     C_R   0.879282 0.183532 0.185894 -0.044517
C15   C     C_R   0.188406 0.723358 0.719168 -0.155983
H9    H     H_    0.047623 0.705128 0.695280 0.115994
C16   C     C_R   0.199768 0.785536 0.785541 -0.141456
C17   C     C_R   0.379370 0.811387 0.819125 -0.045977
C18   C     C_R   0.547262 0.773172 0.784344 -0.154788
H10   H     H_    0.688042 0.791398 0.808240 0.117631
C19   C     C_R   0.535899 0.710989 0.717975 -0.149031
H11   H     H_    0.668536 0.682992 0.693130 0.118749
C20   C     C_R   0.356305 0.685189 0.684347 -0.048064
C21   C     C_R   0.218790 0.682162 0.253362 -0.230694
H12   H     H_    0.108235 0.629540 0.253209 0.123914
C22   C     C_R   0.228867 0.744970 0.187185 0.459410
C23   C     C_R   0.378772 0.810840 0.184778 -0.129595
C24   C     C_R   0.514735 0.812466 0.249166 -0.257559
C25   C     C_R   0.504715 0.749179 0.314073 -0.153734
H13   H     H_    0.612244 0.752081 0.362538 0.127419
C26   C     C_R   0.355462 0.684021 0.317348 -0.096704
O11   O     O_R   0.230120 0.912300 0.917180 -0.536568
O12   O     O_R   0.559740 0.902430 0.088770 -0.555869
O13   O     O_R   0.729930 0.081310 0.089370 -0.542863
C27   C     C_R   0.390502 0.879588 0.116929 0.731594
O14   O     O_R   0.559840 0.901330 0.917750 -0.545747
O15   O     O_R   0.730030 0.080210 0.917120 -0.537382
C28   C     C_R   0.390759 0.879078 0.888704 0.696144
O16   O     O_R   0.230020 0.913400 0.089430 -0.521217
O17   O     O_3   0.396460 0.055470 0.003290 -0.372866
V3    V     V_3+5 0.671360 0.985960 0.003250 1.395129
O18   O     O_R   0.059740 0.091300 0.917690 -0.545415
C29   C     C_R   0.891056 0.113249 0.889494 0.745455
O19   O     O_R   0.059640 0.092400 0.088720 -0.545938
C30   C     C_R   0.890578 0.114759 0.117508 0.678829
V4    V     V_3+5 0.171350 0.007820 0.003190 1.421979
O20   O     O_3   0.896380 0.938200 0.003220 -0.367307
H14   H     H_    0.067129 0.813522 0.810397 0.119258
O21   O     O_3   0.107730 0.735028 0.119753 -0.560865
C31   C     C_3   0.918497 0.758672 0.143159 -0.170867
H15   H     H_    0.826377 0.757794 0.087156 0.170991
H16   H     H_    0.912789 0.829362 0.169776 0.124932
H17   H     H_    0.856916 0.708007 0.187043 0.121276
H18   H     H_    0.628124 0.863631 0.249753 0.126285

loop_
_geom_bond_atom_site_label_1
_geom_bond_atom_site_label_2
_ccdc_geom_bond_type
C27   O16   A    
C3    C11   S    
C10   C11   A    
C19   H11   S    
C15   H9    S    
C1    O6    A    
C18   C19   A    
O13   C30   A    
O18   C29   A    
C15   C16   A    
C16   C17   A    
O16   V4    S    
O5    C3    A    
C17   C18   A    
C6    C29   S    
V2    O10   S    
C16   H14   S    
C22   O21   S    
C17   C28   S    
O8    V2    S    
C25   C26   A    
C31   H15   S    
O1    V2    S    
C15   C20   A    
O7    V1    S    
C9    C14   A    
V4    O20   S    
O17   V4    S    
O9    C4    A    
C19   C20   A    
O12   V3    S    
C14   C30   S    
C21   C22   A    
O15   C29   A    
O12   C27   A    
O18   V4    S    
C24   H18   S    
C18   H10   S    
O4    C2    A    
C9    H5    S    
C5    C7    S    
O17   V3    S    
C13   C14   A    
O2    C1    A    
C11   C12   A    
V3    O20   S    
C23   C24   A    
C31   H17   S    
C5    C6    D    
O3    C4    A    
O11   C28   A    
C21   C26   A    
C24   C25   A    
C1    C20   S    
O6    V2    S    
O9    V2    S    
C8    H4    S    
O2    V1    S    
O11   V4    S    
C21   H12   S    
C23   C27   S    
C22   C23   A    
O1    C2    A    
O5    V1    S    
O8    C3    A    
O15   V3    S    
O13   V3    S    
C9    C10   A    
C13   H8    S    
C4    C8    S    
C7    H3    S    
O7    V2    S    
C2    C26   S    
O4    V1    S    
O3    V1    S    
V1    O10   S    
O19   C30   A    
C12   C13   A    
C12   H7    S    
C5    H1    S    
O14   C28   A    
C6    H2    S    
O21   C31   S    
C25   H13   S    
C10   H6    S    
O14   V3    S    
C31   H16   S    
C7    C8    D    
O19   V4    S    
