data_mof_unit_55940.cif
_audit_creation_date              2012-12-11T16:28:30-0500
_audit_creation_method            fapswitch 2.2
_symmetry_space_group_name_H-M    P1
_symmetry_Int_Tables_number       1
_space_group_crystal_system       triclinic
_cell_length_a                    16.635617
_cell_length_b                    7.247791
_cell_length_c                    15.348933
_cell_angle_alpha                 89.68356
_cell_angle_beta                  94.528245
_cell_angle_gamma                 89.442062
_cell_volume                      1844.74255899

loop_
_atom_site_label
_atom_site_type_symbol
_atom_type_description
_atom_site_fract_x
_atom_site_fract_y
_atom_site_fract_z
_atom_type_partial_charge
O1    O     O_R   0.663460 0.361760 0.165970 -0.542100
O2    O     O_R   0.336540 0.638240 0.834030 -0.531673
O3    O     O_R   0.836540 0.861760 0.334030 -0.537233
O4    O     O_R   0.163460 0.138240 0.665970 -0.538437
O5    O     O_R   0.827100 0.689870 0.163730 -0.534270
O6    O     O_R   0.172900 0.310130 0.836270 -0.540192
O7    O     O_R   0.672900 0.189870 0.336270 -0.540081
O8    O     O_R   0.327100 0.810130 0.663730 -0.537377
C1    C     C_R   0.853414 0.522575 0.143614 0.733966
C2    C     C_R   0.144633 0.477070 0.854006 0.741407
C3    C     C_R   0.644676 0.023485 0.354075 0.741340
C4    C     C_R   0.355282 0.976533 0.645869 0.745163
O9    O     O_R   0.663490 0.691370 0.155500 -0.526354
O10   O     O_R   0.336510 0.308630 0.844500 -0.539644
O11   O     O_R   0.836510 0.191370 0.344500 -0.535685
O12   O     O_R   0.163490 0.808630 0.655500 -0.536580
O13   O     O_R   0.671770 0.863320 0.325740 -0.532340
O14   O     O_R   0.328230 0.136680 0.674260 -0.535080
O15   O     O_R   0.828230 0.363320 0.174260 -0.535154
O16   O     O_R   0.171770 0.636680 0.825740 -0.533489
C5    C     C_R   0.638194 0.524004 0.130922 0.730352
C6    C     C_R   0.363273 0.476538 0.867367 0.767168
C7    C     C_R   0.863101 0.021223 0.367356 0.766572
C8    C     C_R   0.136849 0.978998 0.632674 0.766366
H1    H     H_    0.096976 0.803921 0.232281 0.137478
H2    H     H_    0.904915 0.223675 0.764077 0.140389
H3    H     H_    0.404530 0.326814 0.271332 0.138648
H4    H     H_    0.611244 0.533869 0.726300 0.147459
O17   O     O_3   0.752910 0.528800 0.305860 -0.382187
O18   O     O_3   0.247090 0.471200 0.694140 -0.385760
O19   O     O_3   0.747090 0.028800 0.194140 -0.384306
O20   O     O_3   0.252910 0.971200 0.805860 -0.386341
V1    V     V_3+5 0.749460 0.803010 0.239640 1.405147
V2    V     V_3+5 0.250540 0.196990 0.760360 1.399082
V3    V     V_3+5 0.750540 0.303010 0.260360 1.403900
V4    V     V_3+5 0.249460 0.696990 0.739640 1.409605
C9    C     C_1   0.469618 0.994538 0.531016 -0.008964
C10   C     C_1   0.530288 0.005669 0.468864 -0.010377
C11   C     C_1   0.029130 0.494609 0.967486 -0.007879
C12   C     C_1   0.967764 0.504335 0.028883 -0.013372
C13   C     C_R   0.019396 0.896748 0.325552 -0.232190
C14   C     C_R   0.981665 0.114971 0.673134 -0.233936
C15   C     C_R   0.481330 0.415487 0.176623 -0.231325
C16   C     C_R   0.525920 0.517474 0.821168 -0.223246
C17   C     C_R   0.094445 0.849884 0.298859 -0.188455
C18   C     C_R   0.907294 0.170219 0.698704 -0.191763
C19   C     C_R   0.406783 0.368135 0.203829 -0.192671
C20   C     C_R   0.602092 0.552108 0.794688 -0.201073
C21   C     C_R   0.164296 0.872310 0.354725 0.317922
C22   C     C_R   0.837227 0.147258 0.643467 0.315408
C23   C     C_R   0.336879 0.384659 0.147028 0.320277
C24   C     C_R   0.664110 0.614037 0.854387 0.332673
C25   C     C_R   0.156028 0.933069 0.441289 0.202478
C26   C     C_R   0.844632 0.079647 0.557871 0.203759
C27   C     C_R   0.344599 0.442745 0.059758 0.198707
C28   C     C_R   0.647987 0.637240 0.943361 0.186590
C29   C     C_R   0.078316 0.957701 0.473245 0.008078
C30   C     C_R   0.922095 0.048372 0.526274 0.007618
C31   C     C_R   0.422056 0.464714 0.027483 0.006036
C32   C     C_R   0.576109 0.560167 0.973176 -0.043541
C33   C     C_R   0.009308 0.952440 0.412041 0.003975
C34   C     C_R   0.991165 0.053205 0.587433 0.005025
C35   C     C_R   0.491026 0.464437 0.088971 0.023071
C36   C     C_R   0.511063 0.521023 0.910163 0.026625
C37   C     C_R   0.068270 0.996794 0.563014 -0.118539
C38   C     C_R   0.931834 0.005066 0.436853 -0.118899
C39   C     C_R   0.432618 0.486385 0.936367 -0.122694
C40   C     C_R   0.567602 0.519430 0.063337 -0.136765
C41   C     C_1   0.417955 0.985560 0.583564 -0.204820
C42   C     C_1   0.581978 0.014561 0.416345 -0.206752
C43   C     C_1   0.081420 0.486484 0.915633 -0.207422
C44   C     C_1   0.915755 0.512625 0.081066 -0.216272
H5    H     H_    0.969330 0.886986 0.276581 0.138433
H6    H     H_    0.031695 0.124841 0.722085 0.140301
H7    H     H_    0.531292 0.412065 0.226076 0.140670
H8    H     H_    0.479691 0.479235 0.771116 0.122384
N1    N     N_2   0.225390 0.994491 0.491988 -0.541598
H9    H     H_    0.273197 0.903030 0.496533 0.246727
C45   C     C_3   0.245740 0.186413 0.478617 -0.547655
H10   H     H_    0.250639 0.259087 0.541835 0.241665
H11   H     H_    0.198643 0.260577 0.436137 0.193706
H12   H     H_    0.304538 0.195767 0.449457 0.176316
N2    N     N_2   0.774766 0.017379 0.508386 -0.540745
H13   H     H_    0.727889 0.110957 0.500745 0.244113
C46   C     C_3   0.752678 0.828073 0.525231 -0.543237
H14   H     H_    0.746007 0.751165 0.463148 0.235047
H15   H     H_    0.694404 0.824940 0.555713 0.181215
H16   H     H_    0.799670 0.754394 0.568050 0.194132
N3    N     N_2   0.274708 0.501813 0.008011 -0.540862
H17   H     H_    0.228109 0.409262 0.004271 0.246812
C47   C     C_3   0.251582 0.693164 0.020034 -0.544240
H18   H     H_    0.246024 0.765710 0.956368 0.242969
H19   H     H_    0.297431 0.768679 0.062265 0.192220
H20   H     H_    0.192540 0.701011 0.048918 0.174934
N4    N     N_2   0.689081 0.772880 0.997582 -0.506207
H21   H     H_    0.650023 0.870532 0.019631 0.265035
C48   C     C_3   0.765954 0.850808 0.980613 -0.459489
H22   H     H_    0.786703 0.942501 0.035279 0.199402
H23   H     H_    0.759544 0.936923 0.921083 0.192280
H24   H     H_    0.812328 0.741511 0.976842 0.191273
N5    N     N_2   0.759610 0.189102 0.673826 -0.537363
H25   H     H_    0.709148 0.155129 0.634461 0.264023
C49   C     C_3   0.749097 0.164329 0.765798 -0.589353
H26   H     H_    0.683955 0.167455 0.777160 0.208981
H27   H     H_    0.779031 0.275984 0.804370 0.206904
H28   H     H_    0.775631 0.030823 0.788477 0.223654
N6    N     N_2   0.242847 0.836558 0.325206 -0.533978
H29   H     H_    0.291538 0.895438 0.359497 0.263967
C50   C     C_3   0.252633 0.823947 0.232661 -0.589402
H30   H     H_    0.317453 0.803601 0.222257 0.208146
H31   H     H_    0.230435 0.951779 0.198227 0.228450
H32   H     H_    0.219603 0.703671 0.204882 0.220862
N7    N     N_2   0.742884 0.646526 0.827052 -0.528343
H33   H     H_    0.787828 0.567857 0.859428 0.249002
C51   C     C_3   0.753716 0.678262 0.735712 -0.598710
H34   H     H_    0.815572 0.729896 0.729109 0.210804
H35   H     H_    0.709640 0.783447 0.708485 0.220913
H36   H     H_    0.746317 0.548561 0.698277 0.231934
N8    N     N_2   0.258778 0.344318 0.175885 -0.533982
H37   H     H_    0.209294 0.403892 0.141990 0.262981
C52   C     C_3   0.248862 0.320657 0.267954 -0.590617
H38   H     H_    0.184578 0.292513 0.277308 0.208569
H39   H     H_    0.267252 0.446986 0.304542 0.229914
H40   H     H_    0.285046 0.200935 0.294003 0.220001

loop_
_geom_bond_atom_site_label_1
_geom_bond_atom_site_label_2
_ccdc_geom_bond_type
C30   C34   A    
C28   N4    S    
C16   C20   A    
C4    C41   S    
C10   C42   T    
O1    C5    A    
N5    H25   S    
C27   C31   A    
O3    C7    A    
N4    H21   S    
C1    C44   S    
C13   C33   A    
C48   H22   S    
C3    C42   S    
C15   C35   A    
C21   N6    S    
C46   H14   S    
C16   C36   A    
O7    C3    A    
C22   C26   A    
C7    C38   S    
C9    C41   T    
C50   H31   S    
C14   C18   A    
O4    C8    A    
C21   C25   A    
O3    V1    S    
H3    C19   S    
C51   H34   S    
O8    V4    S    
C16   H8    S    
C52   H40   S    
C31   C39   A    
C33   C38   A    
C30   C38   A    
H4    C20   S    
C2    O16   A    
C51   H35   S    
O5    V1    S    
O2    C6    A    
C23   N8    S    
N6    H29   S    
O19   V1    S    
N3    C47   S    
C14   C34   A    
C2    C43   S    
C46   H15   S    
O12   C8    A    
N6    C50   S    
O13   V1    S    
O11   V3    S    
C26   N2    S    
C48   H23   S    
C1    O15   A    
N8    C52   S    
C15   H7    S    
O4    V2    S    
C14   H6    S    
C36   C39   A    
C50   H32   S    
C47   H18   S    
C45   H11   S    
C25   C29   A    
C19   C23   A    
N1    H9    S    
O6    V2    S    
O20   V2    S    
C25   N1    S    
O5    C1    A    
C9    C10   S    
C47   H19   S    
N2    H13   S    
C17   C21   A    
O8    C4    A    
C51   H36   S    
N1    C45   S    
O9    C5    A    
C49   H27   S    
O14   V2    S    
C52   H38   S    
C8    C37   S    
N2    C46   S    
C5    C40   S    
H1    C17   S    
C11   C12   S    
C48   H24   S    
O1    V3    S    
N7    H33   S    
C26   C30   A    
C46   H16   S    
O2    V4    S    
O17   V3    S    
C35   C40   A    
C3    O13   A    
C11   C43   T    
C12   C44   T    
C34   C37   A    
O7    V3    S    
C29   C37   A    
O10   V2    S    
C45   H12   S    
N8    H37   S    
N4    C48   S    
C29   C33   A    
C18   C22   A    
C31   C35   A    
O18   V4    S    
C32   C36   A    
O10   C6    A    
C27   N3    S    
O15   V3    S    
C50   H30   S    
O12   V4    S    
C47   H20   S    
C24   N7    S    
O11   C7    A    
C49   H28   S    
C23   C27   A    
C6    C39   S    
C52   H39   S    
O6    C2    A    
H2    C18   S    
C13   H5    S    
C45   H10   S    
O16   V4    S    
C28   C32   A    
C20   C24   A    
C32   C40   A    
C22   N5    S    
N5    C49   S    
O9    V1    S    
C4    O14   A    
C49   H26   S    
C13   C17   A    
N3    H17   S    
C15   C19   A    
C24   C28   A    
N7    C51   S    
