data_mof_unit_27933.cif
_audit_creation_date              2012-12-11T15:17:35-0500
_audit_creation_method            fapswitch 2.2
_symmetry_space_group_name_H-M    P1
_symmetry_Int_Tables_number       1
_space_group_crystal_system       triclinic
_cell_length_a                    15.739979
_cell_length_b                    15.699489
_cell_length_c                    34.592879
_cell_angle_alpha                 89.789988
_cell_angle_beta                  89.928356
_cell_angle_gamma                 119.998435
_cell_volume                      7403.00741082

loop_
_atom_site_label
_atom_site_type_symbol
_atom_type_description
_atom_site_fract_x
_atom_site_fract_y
_atom_site_fract_z
_atom_type_partial_charge
C1    C     C_R   0.578152 0.441755 0.554754 0.577473
C2    C     C_R   0.490027 0.933309 0.217524 0.335743
C3    C     C_3   0.315164 0.009543 0.102109 -0.121437
C4    C     C_3   0.689251 0.650323 0.093374 -0.096134
C5    C     C_3   0.101847 0.336331 0.117686 -0.097322
C6    C     C_3   0.079149 0.328576 0.903083 -0.050828
C7    C     C_3   0.689654 0.670437 0.911073 -0.068714
C8    C     C_3   0.386313 0.057036 0.935565 -0.079586
C9    C     C_3   0.337977 0.093823 0.399718 -0.060399
C10   C     C_3   0.755694 0.667564 0.399560 -0.059005
C11   C     C_3   0.049407 0.374135 0.434136 -0.092856
C12   C     C_3   0.039877 0.733319 0.649465 -0.001234
C13   C     C_R   0.465106 0.519896 0.216757 0.354823
C14   C     C_3   0.050491 0.820871 0.672179 -0.355932
C15   C     C_3   0.267953 0.299437 0.650913 -0.003543
C16   C     C_3   0.185041 0.218178 0.674352 -0.359222
C17   C     C_3   0.668458 0.935587 0.655570 -0.004151
C18   C     C_3   0.752967 0.929552 0.674004 -0.360971
C19   C     C_3   0.593109 0.808460 0.175749 -0.003759
C20   C     C_3   0.677359 0.801972 0.194189 -0.350781
C21   C     C_3   0.292731 0.617804 0.180105 -0.019528
C22   C     C_3   0.258712 0.639191 0.218132 -0.327922
C23   C     C_3   0.113691 0.773888 0.159730 0.009139
C24   C     C_R   0.993747 0.515145 0.210579 0.348493
C25   C     C_3   0.116952 0.840943 0.192037 -0.358740
C26   C     C_3   0.047149 0.348267 0.810017 -0.103592
C27   C     C_3   0.602249 0.424344 0.846237 -0.076122
C28   C     C_3   0.453094 0.141730 0.829089 -0.096376
C29   C     C_3   0.354484 0.043311 0.309273 -0.107300
C30   C     C_3   0.686703 0.662935 0.309002 -0.118771
C31   C     C_3   0.125956 0.432606 0.325977 -0.094404
C32   C     C_3   0.157650 0.776634 0.830047 0.012098
C33   C     C_3   0.161836 0.845533 0.798108 -0.326506
C34   C     C_3   0.300467 0.589037 0.816319 -0.025716
C35   C     C_R   0.013615 0.442430 0.850570 0.239384
C36   C     C_3   0.277688 0.608302 0.775586 -0.350877
C37   C     C_3   0.580974 0.826214 0.821129 -0.010622
C38   C     C_3   0.656100 0.810837 0.799370 -0.344052
C39   C     C_3   0.686665 0.945013 0.355267 0.020176
C40   C     C_3   0.769123 0.937956 0.335387 -0.335204
C41   C     C_3   0.272972 0.284995 0.350598 -0.011913
C42   C     C_3   0.193306 0.210681 0.324248 -0.363197
C43   C     C_3   0.011117 0.728186 0.345217 0.005665
C44   C     C_3   0.004676 0.805045 0.320481 -0.359048
C45   C     C_R   0.541242 0.526562 0.854403 0.221600
C46   C     C_R   0.437536 0.998720 0.852325 0.240589
C47   C     C_R   0.435018 0.000134 0.353229 0.245957
C48   C     C_R   0.567954 0.568897 0.353725 0.240069
C49   C     C_R   0.992823 0.432778 0.351665 0.257973
C50   C     C_R   0.041094 0.449587 0.889765 0.274361
C51   C     C_R   0.558332 0.136775 0.555090 0.576673
C52   C     C_R   0.536996 0.552532 0.893035 0.248414
C53   C     C_R   0.415493 0.968550 0.891090 0.263093
C54   C     C_R   0.445156 0.035729 0.391340 0.274448
C55   C     C_R   0.591187 0.557609 0.392015 0.277150
C56   C     C_R   0.965169 0.411984 0.390688 0.282603
C57   C     C_R   0.089558 0.622923 0.889033 -0.195867
C58   C     C_R   0.374935 0.529705 0.880922 -0.204416
C59   C     C_R   0.535827 0.914736 0.889698 -0.181917
C60   C     C_R   0.613675 0.069743 0.392290 -0.177324
C61   C     C_R   0.462306 0.385751 0.390992 -0.198005
C62   C     C_R   0.863033 0.421462 0.555018 0.568077
C63   C     C_R   0.923846 0.541753 0.391100 -0.191757
C64   C     C_R   0.060467 0.616500 0.850513 0.207448
C65   C     C_R   0.383040 0.514907 0.841751 0.202125
C66   C     C_R   0.555100 0.940446 0.850722 0.214259
C67   C     C_R   0.601819 0.026984 0.355927 0.209876
C68   C     C_R   0.437132 0.396573 0.353359 0.204608
C69   C     C_R   0.952260 0.563861 0.352357 0.201709
C70   C     C_R   0.022979 0.526336 0.830948 0.003075
C71   C     C_R   0.465112 0.510273 0.828494 -0.003380
C72   C     C_R   0.502619 0.978461 0.831279 -0.011056
C73   C     C_R   0.440480 0.578873 0.055271 0.599946
C74   C     C_R   0.513912 0.995663 0.335387 -0.001230
C75   C     C_R   0.492374 0.487111 0.334296 0.010032
C76   C     C_R   0.978464 0.503362 0.331590 -0.003369
C77   C     C_R   0.083935 0.541621 0.908317 -0.056853
C78   C     C_R   0.451350 0.549412 0.906465 -0.045992
C79   C     C_R   0.460746 0.920666 0.909163 -0.077164
C80   C     C_R   0.536996 0.076149 0.410007 -0.058632
C81   C     C_R   0.540845 0.464084 0.409985 -0.052263
C82   C     C_R   0.922980 0.461700 0.409617 -0.069700
C83   C     C_R   0.577970 0.442974 0.445720 0.580128
C84   C     C_R   0.137249 0.558579 0.055242 0.573564
C85   C     C_R   0.557627 0.135471 0.445524 0.579415
C86   C     C_R   0.864792 0.422548 0.445516 0.561183
C87   C     C_R   0.441943 0.578019 0.945577 0.598434
C88   C     C_R   0.135867 0.557983 0.945417 0.577777
C89   C     C_R   0.422232 0.864320 0.945426 0.555277
C90   C     C_R   0.915777 0.454769 0.592086 -0.000510
C91   C     C_R   0.542404 0.463055 0.590732 -0.003066
C92   C     C_R   0.536580 0.079116 0.591342 -0.004234
C93   C     C_R   0.448156 0.900495 0.095280 -0.014912
C94   C     C_R   0.447900 0.558260 0.095818 0.004823
C95   C     C_R   0.420170 0.860311 0.055824 0.563389
C96   C     C_R   0.081417 0.538248 0.091855 -0.013145
C97   C     C_R   0.936617 0.391775 0.614387 0.259667
C98   C     C_R   0.599014 0.552804 0.610338 0.256992
C99   C     C_R   0.447420 0.046763 0.611503 0.256294
C100  C     C_R   0.384561 0.917832 0.118507 0.243486
C101  C     C_R   0.529044 0.555118 0.110689 0.245002
C102  C     C_R   0.049747 0.449688 0.112467 0.255587
C103  C     C_R   0.961973 0.414744 0.653463 -0.164000
C104  C     C_R   0.573989 0.561395 0.648399 -0.157234
C105  C     C_R   0.438035 0.010395 0.649403 -0.156865
C106  C     C_R   0.975315 0.508609 0.711955 0.366242
C107  C     C_R   0.399111 0.927350 0.158574 -0.168764
C108  C     C_R   0.531542 0.537790 0.150402 -0.165775
C109  C     C_R   0.012615 0.440853 0.150147 -0.148551
C110  C     C_R   0.965670 0.497534 0.670072 0.012686
C111  C     C_R   0.496598 0.481198 0.667462 0.004682
C112  C     C_R   0.517203 0.010298 0.668036 -0.004338
C113  C     C_R   0.478176 0.924177 0.175547 -0.007489
C114  C     C_R   0.458972 0.533613 0.175305 -0.001661
C115  C     C_R   0.012083 0.520401 0.168385 0.005299
C116  C     C_R   0.956192 0.565796 0.646962 0.244837
C117  C     C_R   0.487463 0.486610 0.709466 0.352002
C118  C     C_R   0.434073 0.395478 0.646662 0.243666
C119  C     C_R   0.601937 0.032839 0.646343 0.240907
C120  C     C_R   0.544881 0.912720 0.152280 0.251532
C121  C     C_R   0.381930 0.544741 0.160696 0.237635
C122  C     C_R   0.038957 0.607054 0.147110 0.247474
C123  C     C_R   0.929670 0.543024 0.608152 -0.181531
C124  C     C_R   0.458209 0.386984 0.608511 -0.178789
C125  C     C_R   0.611116 0.067684 0.608467 -0.170727
C126  C     C_R   0.530700 0.903197 0.112331 -0.161847
C127  C     C_R   0.375031 0.552921 0.120740 -0.188977
C128  C     C_R   0.512840 0.995113 0.710414 0.341420
C129  C     C_R   0.070846 0.613826 0.108641 -0.179076
C130  C     C_R   0.000158 0.522366 0.789450 0.377275
C131  C     C_R   0.474152 0.496560 0.787078 0.370246
C132  C     C_R   0.507323 0.986460 0.788795 0.349130
C133  C     C_R   0.507457 0.965180 0.294675 0.360871
C134  C     C_R   0.475469 0.494063 0.293352 0.379919
C135  C     C_R   0.983490 0.508163 0.288971 0.370880
C136  C     C_3   0.888235 0.225959 0.620304 -0.092339
C137  C     C_3   0.764963 0.661986 0.612202 -0.083600
C138  C     C_3   0.336186 0.101322 0.615514 -0.093878
Cr1   Cr    Cr6+3 0.522350 0.263930 0.500020 1.032337
Cr2   Cr    Cr6+3 0.736070 0.258420 0.500020 1.049833
Cr3   Cr    Cr6+3 0.741580 0.477650 0.500020 1.031646
Cr4   Cr    Cr6+3 0.263930 0.522350 0.000020 1.041041
Cr5   Cr    Cr6+3 0.258420 0.736070 0.000020 1.043085
Cr6   Cr    Cr6+3 0.477650 0.741580 0.000020 1.014021
H1    H     H_    0.913599 0.591460 0.591286 0.124176
H2    H     H_    0.347657 0.935999 0.176599 0.127823
H3    H     H_    0.167130 0.458481 0.353540 0.095327
H4    H     H_    0.145056 0.496358 0.306588 0.116997
H5    H     H_    0.150500 0.385842 0.311373 0.154154
H6    H     H_    0.212471 0.753618 0.823086 0.116492
H7    H     H_    0.178098 0.817894 0.857710 0.174280
H8    H     H_    0.109468 0.871635 0.804444 0.162072
H9    H     H_    0.236799 0.909992 0.795935 0.182173
H10   H     H_    0.142659 0.806746 0.769944 0.175866
H11   H     H_    0.367664 0.656996 0.826071 0.105070
H12   H     H_    0.238624 0.575588 0.835723 0.114759
H13   H     H_    0.591258 0.530036 0.161972 0.145086
H14   H     H_    0.209331 0.543761 0.765028 0.164230
H15   H     H_    0.268210 0.673766 0.775396 0.121494
H16   H     H_    0.339077 0.622261 0.755838 0.165081
H17   H     H_    0.516860 0.804518 0.801784 0.129179
H18   H     H_    0.557212 0.777535 0.847144 0.110876
H19   H     H_    0.720472 0.830221 0.818095 0.162527
H20   H     H_    0.622813 0.732697 0.790832 0.137644
H21   H     H_    0.680607 0.857536 0.772944 0.169687
H22   H     H_    0.617141 0.873963 0.351074 0.164160
H23   H     H_    0.703702 0.956855 0.386694 0.130912
H24   H     H_    0.988022 0.372714 0.165826 0.154228
H25   H     H_    0.839173 0.008623 0.338183 0.169306
H26   H     H_    0.777784 0.878738 0.349090 0.107941
H27   H     H_    0.752014 0.920967 0.304259 0.168672
H28   H     H_    0.259653 0.347753 0.354835 0.128028
H29   H     H_    0.266875 0.248429 0.378885 0.110430
H30   H     H_    0.202919 0.145808 0.320288 0.137578
H31   H     H_    0.120047 0.186017 0.337269 0.119265
H32   H     H_    0.197209 0.244726 0.295613 0.175883
H33   H     H_    0.086108 0.738416 0.341583 0.165389
H34   H     H_    0.999786 0.740960 0.375949 0.114075
H35   H     H_    0.118734 0.692750 0.903710 0.160711
H36   H     H_    0.931576 0.798594 0.324140 0.128915
H37   H     H_    0.062195 0.879849 0.329378 0.100875
H38   H     H_    0.015833 0.794426 0.289543 0.178530
H39   H     H_    0.310856 0.531898 0.891002 0.131492
H40   H     H_    0.574283 0.881923 0.903612 0.158555
H41   H     H_    0.684549 0.100283 0.406198 0.173794
H42   H     H_    0.423528 0.314270 0.404674 0.129788
H43   H     H_    0.894392 0.582332 0.405623 0.136053
H44   H     H_    0.822682 0.218855 0.635636 0.159013
H45   H     H_    0.414543 0.317800 0.593744 0.128248
H46   H     H_    0.941140 0.224564 0.641144 0.113216
H47   H     H_    0.862690 0.160577 0.601524 0.141626
H48   H     H_    0.771369 0.598604 0.623192 0.149126
H49   H     H_    0.772062 0.711577 0.636325 0.113877
H50   H     H_    0.827588 0.704504 0.592252 0.135059
H51   H     H_    0.397438 0.168276 0.628975 0.148932
H52   H     H_    0.283177 0.053161 0.637935 0.108779
H53   H     H_    0.296584 0.126080 0.596138 0.134393
H54   H     H_    0.382724 0.061485 0.085827 0.131644
H55   H     H_    0.316991 0.037181 0.131827 0.111614
H56   H     H_    0.679121 0.090159 0.593111 0.137922
H57   H     H_    0.251841 0.007018 0.086993 0.137853
H58   H     H_    0.721000 0.647282 0.121686 0.116511
H59   H     H_    0.678388 0.715202 0.092151 0.117319
H60   H     H_    0.743512 0.660744 0.070676 0.156548
H61   H     H_    0.051157 0.281702 0.139144 0.127673
H62   H     H_    0.167015 0.396461 0.132442 0.137717
H63   H     H_    0.128753 0.298059 0.098657 0.145447
H64   H     H_    0.089081 0.295550 0.929879 0.143033
H65   H     H_    0.153613 0.385696 0.893213 0.093659
H66   H     H_    0.044654 0.268753 0.881524 0.149359
H67   H     H_    0.581087 0.890923 0.095099 0.150913
H68   H     H_    0.745965 0.690811 0.933877 0.145118
H69   H     H_    0.663706 0.724675 0.912142 0.112937
H70   H     H_    0.725762 0.675820 0.882824 0.167389
H71   H     H_    0.435935 0.127302 0.920393 0.107430
H72   H     H_    0.426919 0.043432 0.958807 0.116439
H73   H     H_    0.327588 0.065467 0.949628 0.142154
H74   H     H_    0.400551 0.162401 0.387579 0.106429
H75   H     H_    0.310265 0.115351 0.425206 0.127962
H76   H     H_    0.277126 0.060400 0.378569 0.139563
H77   H     H_    0.762833 0.607564 0.385547 0.114498
H78   H     H_    0.313665 0.557657 0.109056 0.122300
H79   H     H_    0.805803 0.692955 0.424756 0.129291
H80   H     H_    0.781246 0.730969 0.379498 0.134762
H81   H     H_    0.054898 0.312388 0.447143 0.142179
H82   H     H_    0.038796 0.414838 0.458156 0.117288
H83   H     H_    0.119874 0.422679 0.418984 0.092530
H84   H     H_    0.108974 0.730643 0.652883 0.146428
H85   H     H_    0.029684 0.745096 0.618470 0.116886
H86   H     H_    0.061582 0.811830 0.703298 0.176488
H87   H     H_    0.114692 0.889581 0.661262 0.091274
H88   H     H_    0.983438 0.826793 0.668859 0.147460
H89   H     H_    0.090974 0.680066 0.092207 0.149106
H90   H     H_    0.257950 0.276099 0.620128 0.112464
H91   H     H_    0.262467 0.367299 0.653640 0.143581
H92   H     H_    0.192137 0.239586 0.705259 0.182552
H93   H     H_    0.113306 0.205408 0.663409 0.090596
H94   H     H_    0.187503 0.148928 0.671804 0.144119
H95   H     H_    0.669387 0.923002 0.623919 0.130138
H96   H     H_    0.598594 0.876337 0.668363 0.137679
H97   H     H_    0.753703 0.941256 0.705673 0.175025
H98   H     H_    0.744356 0.855907 0.668710 0.096308
H99   H     H_    0.823764 0.986656 0.661350 0.144631
H100  H     H_    0.977126 0.367362 0.671448 0.120287
H101  H     H_    0.572869 0.765530 0.148386 0.114300
H102  H     H_    0.529661 0.774650 0.196132 0.151347
H103  H     H_    0.698580 0.843222 0.221827 0.175635
H104  H     H_    0.654542 0.723887 0.200207 0.096025
H105  H     H_    0.741569 0.833409 0.174343 0.152451
H106  H     H_    0.234063 0.597535 0.158288 0.123846
H107  H     H_    0.359606 0.686750 0.170561 0.112262
H108  H     H_    0.318378 0.664889 0.239829 0.194608
H109  H     H_    0.238979 0.697254 0.213802 0.127506
H110  H     H_    0.193729 0.571549 0.229259 0.172548
H111  H     H_    0.617412 0.629864 0.663681 0.131094
H112  H     H_    0.112299 0.807954 0.131699 0.168135
H113  H     H_    0.181806 0.768823 0.161538 0.139737
H114  H     H_    0.122578 0.811101 0.220477 0.179602
H115  H     H_    0.181636 0.915530 0.188139 0.093697
H116  H     H_    0.049467 0.846741 0.191603 0.159284
H117  H     H_    0.022147 0.270222 0.803315 0.151074
H118  H     H_    0.118478 0.378440 0.825286 0.129079
H119  H     H_    0.058861 0.387433 0.782087 0.136081
H120  H     H_    0.538743 0.372586 0.828263 0.096042
H121  H     H_    0.589118 0.400946 0.877122 0.136985
H122  H     H_    0.370071 0.986595 0.664930 0.140201
H123  H     H_    0.667162 0.420307 0.836284 0.168063
H124  H     H_    0.508348 0.155206 0.806332 0.139949
H125  H     H_    0.490666 0.178766 0.856340 0.091359
H126  H     H_    0.410314 0.176332 0.819206 0.148193
H127  H     H_    0.395256 0.118022 0.322180 0.117349
H128  H     H_    0.279441 0.028528 0.302519 0.128825
H129  H     H_    0.389909 0.043818 0.281499 0.152202
H130  H     H_    0.716136 0.613486 0.316570 0.127691
H131  H     H_    0.750022 0.738841 0.307482 0.115437
H132  H     H_    0.654186 0.645156 0.279685 0.151888
N1    N     N_R   0.928066 0.438702 0.773383 -0.169194
N2    N     N_R   0.411513 0.882977 0.241195 -0.279395
N3    N     N_R   0.447345 0.574108 0.242567 -0.202395
N4    N     N_R   0.957927 0.428259 0.229749 -0.234145
N5    N     N_R   0.045184 0.593452 0.727944 -0.214979
N6    N     N_R   0.568230 0.544648 0.730829 -0.243969
N7    N     N_R   0.595712 0.022093 0.731096 -0.157338
N8    N     N_R   0.578159 0.997162 0.233107 -0.156486
N9    N     N_R   0.487769 0.452290 0.229865 -0.234374
N10   N     N_R   0.023499 0.598322 0.231512 -0.189099
N11   N     N_R   0.057626 0.599862 0.766037 -0.222915
N12   N     N_R   0.393595 0.437355 0.765813 -0.181248
N13   N     N_R   0.561695 0.549645 0.768936 -0.197820
N14   N     N_R   0.592977 0.017300 0.769521 -0.165241
N15   N     N_R   0.586526 0.013201 0.270987 -0.157044
N16   N     N_R   0.492793 0.439548 0.267610 -0.193239
N17   N     N_R   0.018110 0.594951 0.269916 -0.204533
N18   N     N_R   0.424376 0.958857 0.768220 -0.226894
N19   N     N_R   0.420250 0.898088 0.279143 -0.195568
N20   N     N_R   0.453116 0.561934 0.280317 -0.211250
N21   N     N_R   0.952439 0.424786 0.268125 -0.158387
N22   N     N_R   0.916269 0.431764 0.735267 -0.224344
N23   N     N_R   0.400158 0.432179 0.727693 -0.181616
N24   N     N_R   0.427158 0.963553 0.729833 -0.264079
O1    O     O_R   0.498680 0.159540 0.541860 -0.455490
O2    O     O_R   0.358060 0.532760 0.040030 -0.513584
O3    O     O_R   0.174700 0.641940 0.040030 -0.517919
O4    O     O_R   0.467240 0.825300 0.040030 -0.527497
O5    O     O_R   0.498590 0.161190 0.456930 -0.481364
O6    O     O_R   0.838810 0.337400 0.456930 -0.465790
O7    O     O_R   0.662600 0.501410 0.456930 -0.478203
O8    O     O_R   0.161190 0.498590 0.956930 -0.489846
O9    O     O_R   0.337400 0.838810 0.956930 -0.475105
O10   O     O_R   0.501410 0.662600 0.956930 -0.504516
O11   O     O_R   0.532680 0.359580 0.461300 -0.523156
O12   O     O_R   0.840460 0.339140 0.541860 -0.459215
O13   O     O_R   0.640420 0.173100 0.461300 -0.511523
O14   O     O_R   0.826900 0.467320 0.461300 -0.521657
O15   O     O_R   0.359580 0.532680 0.961300 -0.514692
O16   O     O_R   0.173100 0.640420 0.961300 -0.512240
O17   O     O_R   0.467320 0.826900 0.961300 -0.516149
O18   O     O_3   0.666667 0.333333 0.499990 -0.263100
O19   O     O_3   0.333333 0.666667 0.999990 -0.269191
O20   O     O_3   0.934832 0.311165 0.596841 -0.550720
O21   O     O_3   0.676894 0.631757 0.591695 -0.544701
O22   O     O_3   0.369589 0.048394 0.593322 -0.542876
O23   O     O_R   0.660860 0.501320 0.541860 -0.457328
O24   O     O_3   0.301914 0.913870 0.102820 -0.570489
O25   O     O_3   0.601320 0.561893 0.085953 -0.543149
O26   O     O_3   0.051665 0.371470 0.094671 -0.529515
O27   O     O_3   0.015928 0.365683 0.911454 -0.511498
O28   O     O_3   0.612895 0.573683 0.918354 -0.539879
O29   O     O_3   0.342412 0.977748 0.909494 -0.525731
O30   O     O_3   0.363821 0.023692 0.411693 -0.521807
O31   O     O_3   0.659805 0.638250 0.412716 -0.523750
O32   O     O_3   0.969521 0.335017 0.408319 -0.504787
O33   O     O_3   0.958205 0.646647 0.663790 -0.545568
O34   O     O_R   0.159540 0.498680 0.041860 -0.455288
O35   O     O_3   0.358546 0.314831 0.665209 -0.545309
O36   O     O_3   0.679974 0.029192 0.662799 -0.550998
O37   O     O_3   0.622811 0.908184 0.168485 -0.529056
O38   O     O_3   0.309733 0.538217 0.185677 -0.542853
O39   O     O_3   0.027531 0.681212 0.163722 -0.537824
O40   O     O_3   0.973812 0.352002 0.832445 -0.519842
O41   O     O_3   0.622137 0.521904 0.841714 -0.535887
O42   O     O_3   0.387915 0.040189 0.834619 -0.543952
O43   O     O_3   0.346729 0.967987 0.334248 -0.540264
O44   O     O_3   0.618235 0.660754 0.336178 -0.551956
O45   O     O_R   0.339140 0.840460 0.041860 -0.458062
O46   O     O_3   0.023922 0.375763 0.332592 -0.508280
O47   O     O_3   0.061001 0.695769 0.832399 -0.525324
O48   O     O_3   0.311072 0.504609 0.815970 -0.549857
O49   O     O_3   0.624142 0.926229 0.831539 -0.519040
O50   O     O_3   0.679904 0.023975 0.338980 -0.516321
O51   O     O_3   0.365492 0.316408 0.333404 -0.544960
O52   O     O_3   0.938398 0.633547 0.333249 -0.546038
O53   O     O_R   0.501320 0.660860 0.041860 -0.501402
O54   O     O_R   0.532760 0.358060 0.540030 -0.526068
O55   O     O_R   0.641940 0.174700 0.540030 -0.522318
O56   O     O_R   0.825300 0.467240 0.540030 -0.527112

loop_
_geom_bond_atom_site_label_1
_geom_bond_atom_site_label_2
_ccdc_geom_bond_type
C18   H99   S    
C9    H74   S    
C50   O27   S    
C96   C102  A    
C124  H45   S    
C19   C20   S    
C12   O33   S    
C118  O35   S    
C37   O49   S    
C138  H51   S    
C68   C75   A    
N9    N16   A    
C111  C118  A    
Cr4   O34   S    
C59   C66   A    
C28   O42   S    
Cr5   O19   S    
C107  C113  A    
C25   H116  S    
C66   C72   A    
C123  H1    S    
C77   C88   S    
C28   H125  S    
C46   C72   A    
C10   H80   S    
C119  O36   S    
C31   H3    S    
C30   H131  S    
C1    C91   S    
C21   C22   S    
Cr4   O15   S    
C40   H25   S    
C72   C132  S    
C101  O25   S    
C34   O48   S    
C29   O43   S    
C28   H126  S    
C21   O38   S    
C26   H117  S    
Cr2   O55   S    
C24   N4    A    
C34   H11   S    
Cr4   O8    S    
C58   H39   S    
C43   C44   S    
C22   H108  S    
C37   C38   S    
C51   C92   S    
C5    H63   S    
C113  C120  A    
C49   O46   S    
C69   O52   S    
C67   C74   A    
C118  C124  A    
C106  N22   A    
C93   C100  A    
C97   C103  A    
C23   O39   S    
C17   H95   S    
C9    H76   S    
C13   N9    A    
C105  C112  A    
C66   O49   S    
C9    H75   S    
C50   C77   A    
C110  C116  A    
C39   C40   S    
C87   O15   A    
C47   C74   A    
C8    H72   S    
C48   O44   S    
C26   H119  S    
C117  N23   A    
C65   C71   A    
C121  O38   S    
C99   O22   S    
C11   H82   S    
Cr2   O13   S    
C46   C53   A    
C91   C98   A    
C51   O55   A    
C134  N20   A    
C14   H86   S    
C86   O6    A    
C32   H6    S    
C136  H46   S    
C102  C109  A    
C42   H32   S    
C44   H37   S    
C40   H27   S    
C37   H18   S    
C78   C87   S    
C38   H21   S    
C45   O41   S    
C43   H34   S    
C116  C123  A    
C45   C71   A    
C90   C123  A    
C116  O33   S    
C92   C125  A    
C75   C134  S    
C12   H85   S    
C27   H121  S    
C94   C127  A    
C103  C110  A    
C62   O56   A    
C133  N15   A    
C126  H67   S    
C33   H9    S    
C27   H120  S    
C62   O12   A    
C69   C76   A    
C117  N6    A    
C93   C126  A    
C8    H73   S    
C53   O29   S    
C63   C69   A    
C60   C67   A    
C55   C81   A    
Cr5   O16   S    
C6    H64   S    
C127  H78   S    
C16   H94   S    
C93   C95   S    
C136  H44   S    
C41   O51   S    
C81   C83   S    
C76   C135  S    
C103  H100  S    
N7    N14   A    
C29   H129  S    
C24   N10   A    
C131  N13   A    
C63   C82   A    
C29   H127  S    
C125  H56   S    
C42   H30   S    
C21   H106  S    
C51   O1    A    
C107  H2    S    
C4    H59   S    
C2    N8    A    
C108  H13   S    
C45   C52   A    
Cr3   O18   S    
C65   O48   S    
C56   O32   S    
C109  H24   S    
C58   C65   A    
C17   C18   S    
C73   O53   A    
C38   H19   S    
C95   O45   A    
C88   O8    A    
C63   H43   S    
C11   O32   S    
C32   O47   S    
C18   H97   S    
C41   H29   S    
C137  H50   S    
C60   C80   A    
C122  C129  A    
C14   H88   S    
C23   H112  S    
C2    N2    A    
C67   O50   S    
C56   C82   A    
C34   H12   S    
Cr5   O45   S    
C111  C117  S    
C130  N1    A    
C135  N17   A    
C61   C81   A    
C18   H98   S    
C136  O20   S    
C15   H90   S    
C34   C36   S    
Cr1   O1    S    
C68   O51   S    
Cr6   O17   S    
C71   C131  S    
N1    N22   A    
C25   H115  S    
C138  H53   S    
Cr1   O11   S    
C11   H83   S    
C96   C129  A    
C19   H102  S    
C48   C55   A    
C30   H132  S    
C60   H41   S    
C52   O28   S    
C41   C42   S    
Cr2   O6    S    
C44   H36   S    
C40   H26   S    
C43   O52   S    
C6    H65   S    
C19   H101  S    
C104  H111  S    
C134  N16   A    
C121  C127  A    
C135  N21   A    
C85   O13   A    
C131  N12   A    
C31   H5    S    
C120  C126  A    
C12   H84   S    
C70   C130  S    
C3    H54   S    
C108  C114  A    
C89   O17   A    
C122  O39   S    
C8    O29   S    
C22   H109  S    
C36   H15   S    
C5    H62   S    
C114  C121  A    
C20   H103  S    
C27   H123  S    
C98   O21   S    
C35   O40   S    
C128  N24   A    
C90   C97   A    
C13   C114  S    
C8    H71   S    
C101  C108  A    
C83   O11   A    
Cr4   O2    S    
N4    N21   A    
C73   C94   S    
C52   C78   A    
Cr5   O9    S    
C54   C80   A    
C7    H68   S    
C136  H47   S    
C57   C77   A    
C59   C79   A    
C57   H35   S    
C82   C86   S    
C46   O42   S    
C35   C70   A    
C80   C85   S    
Cr6   O19   S    
C137  H48   S    
C4    H58   S    
C11   H81   S    
C102  O26   S    
C14   H87   S    
C10   H79   S    
C47   C54   A    
C26   H118  S    
C31   H4    S    
C119  C125  A    
C30   H130  S    
C138  H52   S    
C100  O24   S    
C3    H57   S    
C132  N14   A    
Cr1   O5    S    
C44   H38   S    
C37   H17   S    
C43   H33   S    
Cr3   O14   S    
C54   O30   S    
C130  N11   A    
C112  C119  A    
C32   C33   S    
C39   H22   S    
C20   H105  S    
Cr2   O12   S    
N2    N19   A    
C4    O25   S    
N12   N23   A    
C137  O21   S    
C6    O27   S    
C112  C128  S    
C58   C78   A    
C17   H96   S    
Cr3   O23   S    
C15   H91   S    
C30   O44   S    
C17   O36   S    
N3    N20   A    
N5    N11   A    
C39   O50   S    
C5    O26   S    
C10   O31   S    
C31   O46   S    
Cr3   O56   S    
Cr4   O19   S    
C53   C79   A    
C42   H31   S    
C2    C113  S    
C4    H60   S    
C9    O30   S    
C16   H92   S    
C15   C16   S    
C74   C133  S    
C84   O34   A    
C88   O16   A    
C84   C96   S    
C26   O40   S    
C10   H77   S    
C94   C101  A    
C1    O54   A    
C3    H55   S    
C95   O4    A    
C64   C70   A    
C36   H14   S    
Cr1   O18   S    
Cr6   O4    S    
C87   O10   A    
C133  N19   A    
C115  C122  A    
C48   C75   A    
Cr1   O54   S    
C1    O23   A    
C86   O14   A    
C99   C105  A    
C41   H28   S    
C137  H49   S    
Cr6   O53   S    
C79   C89   S    
C7    H70   S    
N8    N15   A    
C120  O37   S    
C109  C115  A    
C33   H10   S    
C64   O47   S    
C105  H122  S    
Cr3   O7    S    
C97   O20   S    
N10   N17   A    
C129  H89   S    
N18   N24   A    
C84   O3    A    
N6    N13   A    
C3    O24   S    
C83   O7    A    
C35   C50   A    
C49   C76   A    
C23   H113  S    
C7    H69   S    
C25   H114  S    
C12   C14   S    
C16   H93   S    
C91   C124  A    
C73   O2    A    
C13   N3    A    
C57   C64   A    
C85   O5    A    
C106  C110  S    
C27   O41   S    
C100  C107  A    
C29   H128  S    
C15   O35   S    
C33   H8    S    
C89   O9    A    
C21   H107  S    
C104  C111  A    
C6    H66   S    
Cr5   O3    S    
C49   C56   A    
Cr2   O18   S    
C28   H124  S    
C106  N5    A    
C55   O31   S    
C138  O22   S    
C61   C68   A    
C32   H7    S    
C98   C104  A    
C62   C90   S    
C38   H20   S    
C61   H42   S    
C132  N18   A    
C23   C25   S    
C39   H23   S    
C59   H40   S    
C22   H110  S    
C36   H16   S    
C5    H61   S    
C20   H104  S    
C92   C99   A    
C24   C115  S    
Cr6   O10   S    
C7    O28   S    
C128  N7    A    
C19   O37   S    
C47   O43   S    
