data_mof_unit_56260.cif
_audit_creation_date              2013-03-05T15:49:53-0500
_audit_creation_method            fapswitch 2.2
_symmetry_space_group_name_H-M    P1
_symmetry_Int_Tables_number       1
_space_group_crystal_system       triclinic
_cell_length_a                    27.695388
_cell_length_b                    13.005253
_cell_length_c                    11.656942
_cell_angle_alpha                 99.872274
_cell_angle_beta                  92.983897
_cell_angle_gamma                 90.406927
_cell_volume                      4130.33336682

loop_
_atom_site_label
_atom_site_type_symbol
_atom_site_description
_atom_site_fract_x
_atom_site_fract_y
_atom_site_fract_z
_atom_type_partial_charge
O1    O     O_R   0.502540 0.354460 0.582000 -0.588202
O2    O     O_R   0.497460 0.645540 0.418000 -0.588160
O3    O     O_R   0.496500 0.341410 0.386200 -0.594057
O4    O     O_R   0.503500 0.658590 0.613800 -0.593884
C1    C     C_R   0.499051 0.299110 0.478597 0.823103
C2    C     C_R   0.500954 0.700889 0.521402 0.823623
O5    O     O_R   0.433290 0.506540 0.597890 -0.584483
O6    O     O_R   0.566710 0.493460 0.402110 -0.585316
O7    O     O_R   0.427240 0.493490 0.402090 -0.586826
O8    O     O_R   0.572760 0.506510 0.597910 -0.585711
C3    C     C_R   0.407308 0.500071 0.501122 0.804234
C4    C     C_R   0.592679 0.500082 0.498776 0.803642
Cu1   Cu    Cu3+1 0.503580 0.507730 0.615930 0.940053
Cu2   Cu    Cu3+1 0.496420 0.492270 0.384070 0.939234
C5    C     C_R   0.176189 0.419685 0.519664 0.529985
C6    C     C_R   0.821966 0.605143 0.499650 0.528983
O9    O     O_2   0.201449 0.333995 0.532960 -0.570025
O10   O     O_2   0.795617 0.691678 0.527128 -0.571485
N1    N     N_R   0.201312 0.508775 0.512303 -0.456334
N2    N     N_R   0.798307 0.510754 0.477056 -0.455437
C7    C     C_R   0.178708 0.599926 0.503040 0.531449
C8    C     C_R   0.822008 0.420001 0.443715 0.529599
C9    C     C_R   0.281459 0.509286 0.613146 -0.114127
C10   C     C_R   0.717285 0.483343 0.381399 -0.122870
C11   C     C_R   0.331757 0.507106 0.610474 -0.215919
C12   C     C_R   0.667188 0.480768 0.386565 -0.213282
C13   C     C_R   0.325315 0.496720 0.400371 -0.219682
C14   C     C_R   0.675484 0.523626 0.597669 -0.221612
C15   C     C_R   0.275062 0.498994 0.403343 -0.100221
C16   C     C_R   0.725744 0.526827 0.592181 -0.095279
C17   C     C_R   0.253020 0.505553 0.509672 0.372303
C18   C     C_R   0.746740 0.506815 0.483934 0.372776
C19   C     C_R   0.101069 0.512143 0.498522 -0.088751
C20   C     C_R   0.897562 0.516395 0.456411 -0.092486
C21   C     C_R   0.124826 0.417341 0.510114 -0.060993
C22   C     C_R   0.873071 0.611041 0.494653 -0.066610
C23   C     C_R   0.096311 0.325509 0.512844 0.143782
C24   C     C_R   0.900603 0.706184 0.527342 0.136883
C25   C     C_R   0.128028 0.606287 0.506216 -0.072926
C26   C     C_R   0.871273 0.421845 0.420219 -0.061050
C27   C     C_R   0.354170 0.501066 0.504004 -0.041326
C28   C     C_R   0.645761 0.501060 0.494708 -0.040234
H1    H     H_    0.341515 0.491935 0.317082 0.159044
H2    H     H_    0.659930 0.539793 0.682097 0.155123
H3    H     H_    0.253161 0.495864 0.323074 0.140071
H4    H     H_    0.748379 0.544856 0.671814 0.137254
C29   C     C_R   0.972831 0.419505 0.433792 -0.052991
C30   C     C_R   0.026361 0.608019 0.473865 -0.034588
C31   C     C_R   0.975266 0.609685 0.480916 0.058931
C32   C     C_R   0.023043 0.419722 0.467383 0.043653
C33   C     C_R   0.948492 0.515442 0.455503 0.062698
C34   C     C_R   0.050188 0.513450 0.480899 0.063170
C35   C     C_R   0.946342 0.329014 0.376719 -0.028504
C36   C     C_R   0.054328 0.698504 0.467731 -0.065228
C37   C     C_R   0.895197 0.333303 0.361453 0.113465
C38   C     C_R   0.103493 0.702115 0.507493 0.110769
O11   O     O_2   0.798346 0.328406 0.440308 -0.551861
O12   O     O_2   0.205285 0.682018 0.483733 -0.556580
C39   C     C_R   0.045874 0.330492 0.494636 -0.147868
C40   C     C_R   0.951136 0.702380 0.520993 -0.133518
H5    H     H_    0.645275 0.462927 0.305759 0.159828
H6    H     H_    0.353032 0.510416 0.691688 0.158248
H7    H     H_    0.733324 0.467870 0.297521 0.131997
H8    H     H_    0.264540 0.514310 0.695556 0.136029
H9    H     H_    0.023411 0.265065 0.504485 0.159011
H10   H     H_    0.972709 0.771652 0.552235 0.145247
C41   C     C_R   0.502411 0.814268 0.533955 -0.097123
C42   C     C_R   0.497607 0.185729 0.466040 -0.097247
C43   C     C_R   0.483030 0.015496 0.344606 0.156744
C44   C     C_R   0.517011 0.984498 0.655378 0.156811
C45   C     C_R   0.485474 0.124512 0.357727 -0.180611
C46   C     C_R   0.514560 0.875483 0.642260 -0.180404
C47   C     C_R   0.507810 0.139513 0.563458 -0.274772
C48   C     C_R   0.492211 0.860485 0.436536 -0.274330
C49   C     C_R   0.506283 0.031276 0.555312 0.086414
C50   C     C_R   0.493749 0.968720 0.444677 0.086503
H11   H     H_    0.482909 0.810529 0.354235 0.157381
H12   H     H_    0.517103 0.189469 0.645765 0.157393
H13   H     H_    0.522519 0.836706 0.715706 0.166775
H14   H     H_    0.477518 0.163287 0.284278 0.166798
N3    N     N_R   0.508960 0.519350 0.790140 -0.179330
N4    N     N_R   0.491040 0.480650 0.209860 -0.179824
C51   C     C_R   0.456605 0.397566 0.022469 -0.339983
C52   C     C_R   0.543393 0.602438 0.977531 -0.339957
C53   C     C_R   0.460529 0.407924 0.144655 0.087993
C54   C     C_R   0.539471 0.592077 0.855344 0.088954
C55   C     C_R   0.518468 0.544887 0.156712 0.019302
C56   C     C_R   0.481530 0.455117 0.843288 0.019705
C57   C     C_R   0.515685 0.537382 0.033950 0.068509
C58   C     C_R   0.484313 0.462623 0.966050 0.068589
H15   H     H_    0.457384 0.398183 0.790112 0.119749
H16   H     H_    0.542612 0.601825 0.209889 0.120941
H17   H     H_    0.560885 0.642628 0.812565 0.120828
H18   H     H_    0.439117 0.357369 0.187433 0.122103
H19   H     H_    0.432154 0.339136 0.972672 0.139910
H20   H     H_    0.567844 0.660869 0.027328 0.139868
C59   C     C_3   0.469045 0.948566 0.226099 -0.406684
C60   C     C_3   0.456909 0.007104 0.125278 -0.853396
H21   H     H_    0.425556 0.058759 0.144899 0.253049
H22   H     H_    0.488695 0.053460 0.107838 0.251836
H23   H     H_    0.447026 0.949887 0.045157 0.248490
H24   H     H_    0.499354 0.895534 0.199962 0.202661
H25   H     H_    0.436704 0.900188 0.235438 0.210007
C61   C     C_3   0.531016 0.051425 0.773875 -0.406811
C62   C     C_3   0.543188 0.992882 0.874673 -0.853917
H26   H     H_    0.511413 0.946520 0.892167 0.252049
H27   H     H_    0.574538 0.941230 0.854990 0.252924
H28   H     H_    0.553092 0.050095 0.954784 0.248298
H29   H     H_    0.563347 0.099818 0.764497 0.209549
H30   H     H_    0.500707 0.104441 0.800058 0.202701
C63   C     C_3   0.119179 0.222865 0.533553 -0.347119
C64   C     C_3   0.084867 0.130650 0.537199 -0.818801
H31   H     H_    0.060446 0.149259 0.610300 0.248472
H32   H     H_    0.063509 0.109176 0.452996 0.289304
H33   H     H_    0.106409 0.061874 0.551579 0.265731
H34   H     H_    0.143633 0.196305 0.462158 0.252182
H35   H     H_    0.140472 0.237365 0.618386 0.237394
C65   C     C_3   0.876637 0.810680 0.569608 -0.321242
C66   C     C_3   0.909868 0.907079 0.602809 -0.861834
H36   H     H_    0.935141 0.898502 0.677634 0.249110
H37   H     H_    0.930306 0.920506 0.527024 0.275673
H38   H     H_    0.887610 0.976917 0.629673 0.260631
H39   H     H_    0.850981 0.827729 0.499058 0.251256
H40   H     H_    0.856492 0.803829 0.648013 0.236219
C67   C     C_3   0.867801 0.253299 0.268282 -0.345212
C68   C     C_3   0.881827 0.262747 0.145091 -0.828324
H41   H     H_    0.877363 0.344404 0.130370 0.256570
H42   H     H_    0.919558 0.239009 0.129564 0.273689
H43   H     H_    0.857870 0.211059 0.080023 0.244670
H44   H     H_    0.873585 0.172783 0.285024 0.243755
H45   H     H_    0.828354 0.264428 0.265657 0.243618
C69   C     C_3   0.126700 0.805926 0.567149 -0.296664
C70   C     C_3   0.096161 0.862035 0.664052 -0.857925
H46   H     H_    0.060560 0.884940 0.629358 0.271391
H47   H     H_    0.090185 0.810631 0.729099 0.253734
H48   H     H_    0.115521 0.933996 0.709013 0.247359
H49   H     H_    0.161841 0.794464 0.612519 0.235569
H50   H     H_    0.133620 0.857066 0.502594 0.246224
C71   C     C_2   0.972086 0.235449 0.319578 0.814022
O13   O     O_2   0.960052 0.148292 0.334598 -0.606974
O14   O     O_R   0.010668 0.247739 0.250068 -0.749347
H51   H     H_    0.025701 0.178801 0.217257 0.338411
C72   C     C_2   0.034891 0.778194 0.398983 0.834411
O15   O     O_2   0.053473 0.865014 0.409475 -0.609977
O16   O     O_R   0.996194 0.751226 0.316953 -0.746061
H52   H     H_    0.986329 0.810746 0.275267 0.345871

loop_
_geom_bond_atom_site_label_1
_geom_bond_atom_site_label_2
_geom_bond_distance
_ccdc_geom_bond_type
C16   C18   1.401433 A    
C68   H41   1.111147 S    
C13   C15   1.394393 A    
C63   C64   1.532531 S    
C49   C50   1.426597 A    
N1    C17   1.434769 S    
C8    O11   1.349076 S    
C64   H32   1.111087 S    
C59   C60   1.530726 S    
C19   C34   1.414082 A    
C30   C36   1.418286 A    
C62   H27   1.110818 S    
C20   C33   1.411235 A    
C19   C25   1.416674 A    
C31   C40   1.403191 A    
C48   C50   1.394690 A    
C20   C26   1.413341 A    
C32   C39   1.401188 A    
N1    C7    1.362435 A    
C12   H5    1.083040 S    
C10   C12   1.392305 A    
C46   H13   1.079767 S    
C61   H29   1.111569 S    
C44   C61   1.530753 S    
C69   H50   1.109136 S    
C72   O15   1.221712 D    
Cu1   N3    2.007971 S    
C43   C50   1.424377 A    
C72   O16   1.399623 S    
C41   C46   1.395792 A    
C52   H20   1.083279 S    
C14   C28   1.406126 A    
O4    Cu1   1.966397 S    
C43   C45   1.400451 A    
C13   C27   1.405921 A    
C65   C66   1.532557 S    
C45   H14   1.079767 S    
C4    C28   1.473403 S    
C5    N1    1.364844 A    
C67   H44   1.108798 S    
C37   C67   1.534070 S    
C69   C70   1.532775 S    
C31   C33   1.406973 A    
C48   H11   1.080298 S    
C70   H48   1.110610 S    
C32   C34   1.408780 A    
C47   H12   1.080299 S    
C63   H34   1.110888 S    
N3    C54   1.364409 A    
C6    N2    1.365775 A    
C29   C35   1.426263 A    
C23   C39   1.405587 A    
C66   H37   1.111249 S    
C36   C72   1.501298 S    
C40   H10   1.076312 S    
C55   H16   1.082642 S    
C47   C49   1.394696 A    
O2    C2    1.292187 A    
C1    C42   1.456661 S    
C5    C21   1.420774 A    
C61   C62   1.530729 S    
O16   H52   1.013971 S    
C29   C32   1.424829 A    
C35   C37   1.421081 A    
C62   H28   1.110453 S    
C36   C38   1.413182 A    
O4    C2    1.289768 A    
C11   C27   1.406875 A    
C29   C33   1.413012 A    
O6    Cu2   1.946783 S    
C68   H43   1.110801 S    
C42   C47   1.390598 A    
C14   H2    1.082983 S    
C15   H3    1.082860 S    
C9    C17   1.399304 A    
O5    C3    1.295904 A    
O7    Cu2   1.938168 S    
C10   C18   1.398970 A    
C54   H17   1.081812 S    
C13   H1    1.082981 S    
C53   H18   1.081799 S    
C67   H45   1.102594 S    
C25   C38   1.421917 A    
C7    C25   1.408657 A    
C56   H15   1.082648 S    
C30   C34   1.412551 A    
O6    C4    1.294570 A    
C26   C37   1.421927 A    
C8    C26   1.406370 A    
C41   C48   1.390592 A    
C65   H40   1.111243 S    
C51   H19   1.083278 S    
C66   H36   1.110892 S    
O7    C3    1.295322 A    
C59   H25   1.111571 S    
O3    Cu2   1.966397 S    
O8    C4    1.296384 A    
C24   C40   1.406119 A    
C2    C41   1.456646 S    
C51   C53   1.405887 A    
N2    C8    1.362075 A    
C10   H7    1.082987 S    
C60   H22   1.110346 S    
C55   C57   1.415567 A    
C67   C68   1.531695 S    
O1    C1    1.292195 A    
O1    Cu1   1.964236 S    
C52   C57   1.404065 A    
Cu2   N4    2.007973 S    
N4    C53   1.364403 A    
C12   C28   1.406038 A    
N2    C18   1.435620 S    
C66   H38   1.110641 S    
C5    O9    1.346987 S    
C51   C58   1.404060 A    
C9    H8    1.082800 S    
C68   H42   1.106850 S    
C38   C69   1.529253 S    
C21   C23   1.432931 A    
C35   C71   1.488802 S    
C16   H4    1.082750 S    
C59   H24   1.111717 S    
C56   C58   1.415564 A    
O3    C1    1.289766 A    
O8    Cu1   1.938168 S    
C71   O13   1.222828 D    
C11   H6    1.082982 S    
C60   H23   1.110452 S    
C62   H26   1.110342 S    
C63   H35   1.111299 S    
C22   C24   1.432586 A    
C69   H49   1.106633 S    
C7    O12   1.349349 S    
C15   C17   1.399813 A    
O14   H51   1.013771 S    
C6    C22   1.421666 A    
C61   H30   1.111716 S    
C71   O14   1.398578 S    
C70   H46   1.108344 S    
C42   C45   1.395797 A    
C30   C31   1.421841 A    
C14   C16   1.397425 A    
C19   C21   1.425016 A    
C3    C27   1.473928 S    
C20   C22   1.424456 A    
C65   H39   1.110996 S    
C9    C11   1.395388 A    
O2    Cu2   1.964235 S    
C23   C63   1.532311 S    
N3    C56   1.369768 A    
C24   C65   1.532134 S    
C64   H31   1.110742 S    
O5    Cu1   1.946788 S    
C6    O10   1.346870 S    
C60   H21   1.110815 S    
C44   C49   1.424382 A    
C70   H47   1.111108 S    
C52   C54   1.405890 A    
C44   C46   1.400452 A    
C57   C58   1.406852 A    
Cu1   Cu2   2.672462 S    
C64   H33   1.110255 S    
C39   H9    1.075946 S    
N4    C55   1.369765 A    
C43   C59   1.530756 S    
