data_mof_unit_11522.cif
_audit_creation_date              2013-03-05T16:14:31-0500
_audit_creation_method            fapswitch 2.2
_symmetry_space_group_name_H-M    P1
_symmetry_Int_Tables_number       1
_space_group_crystal_system       triclinic
_cell_length_a                    10.806068
_cell_length_b                    10.798443
_cell_length_c                    9.610774
_cell_angle_alpha                 90.753032
_cell_angle_beta                  91.118792
_cell_angle_gamma                 89.187479
_cell_volume                      1121.04942983

loop_
_atom_site_label
_atom_site_type_symbol
_atom_site_description
_atom_site_fract_x
_atom_site_fract_y
_atom_site_fract_z
_atom_type_partial_charge
O1    O     O_R   0.500060 0.316850 0.620870 -0.565519
O2    O     O_R   0.499940 0.683150 0.379130 -0.566178
O3    O     O_R   0.500000 0.316860 0.379090 -0.529162
O4    O     O_R   0.500000 0.683140 0.620910 -0.545599
C1    C     C_R   0.501844 0.260603 0.499187 0.995103
C2    C     C_R   0.497943 0.739411 0.500809 0.989740
O5    O     O_R   0.316880 0.499960 0.620870 -0.493958
O6    O     O_R   0.683120 0.500040 0.379130 -0.497130
O7    O     O_R   0.316830 0.499970 0.379090 -0.639928
O8    O     O_R   0.683170 0.500030 0.620910 -0.624531
C3    C     C_R   0.260588 0.494914 0.499405 0.915298
C4    C     C_R   0.739400 0.505445 0.500644 0.910649
Cu1   Cu    Cu3+1 0.500030 0.499990 0.643150 1.083522
Cu2   Cu    Cu3+1 0.499970 0.500010 0.356850 1.087558
C5    C     C_3   0.041498 0.461200 0.625623 -0.138562
C6    C     C_3   0.958617 0.539730 0.374896 -0.167197
C7    C     C_3   0.954099 0.389548 0.525055 -0.236139
C8    C     C_3   0.045972 0.611309 0.475359 -0.252837
C9    C     C_3   0.875791 0.508101 0.499461 -0.132082
C10   C     C_3   0.124222 0.492778 0.500868 -0.144704
C11   C     C_3   0.963953 0.579145 0.598293 0.314476
C12   C     C_3   0.035992 0.421816 0.402204 0.265389
C13   C     C_3   0.590590 0.040297 0.584029 0.167477
C14   C     C_3   0.408931 0.959767 0.415924 0.168761
C15   C     C_3   0.608063 0.954461 0.456473 0.178068
C16   C     C_3   0.391400 0.045626 0.543463 0.181307
C17   C     C_3   0.497983 0.875396 0.501844 -0.369461
C18   C     C_3   0.501520 0.124659 0.498145 -0.369586
C19   C     C_3   0.480490 0.962628 0.629305 0.196906
C20   C     C_3   0.519010 0.037464 0.370709 0.195112
C21   C     C_3   0.515072 0.609712 0.051098 -0.055276
C22   C     C_3   0.485019 0.390052 0.948654 -0.022922
C23   C     C_3   0.412216 0.569265 0.949853 -0.076732
C24   C     C_3   0.587915 0.430415 0.050135 -0.019369
N1    N     N_3   0.500090 0.499970 0.858290 -0.217706
N2    N     N_3   0.499910 0.500030 0.141710 -0.213568
C25   C     C_3   0.602518 0.540182 0.952685 -0.009685
C26   C     C_3   0.397507 0.459374 0.047130 -0.031530
C27   C     C_2   0.906719 0.262140 0.544262 0.602872
H1    H     H_    0.943496 0.204650 0.627411 0.131837
O9    O     O_2   0.829261 0.221181 0.462906 -0.435934
C28   C     C_2   0.093229 0.738768 0.456585 0.597426
H2    H     H_    0.055286 0.797038 0.374631 0.133579
O10   O     O_2   0.171683 0.778998 0.537315 -0.434961
C29   C     C_2   0.071640 0.412870 0.767825 0.525128
H3    H     H_    0.997491 0.391144 0.837271 0.119980
O11   O     O_2   0.178295 0.395374 0.805762 -0.468908
C30   C     C_2   0.929415 0.586539 0.231956 0.563274
H4    H     H_    0.003736 0.599058 0.159417 0.059249
O12   O     O_2   0.823560 0.611711 0.196449 -0.439878
N3    N     N_R   0.931584 0.673151 0.701584 0.146605
O13   O     O_R   0.001131 0.686601 0.812569 -0.291634
O14   O     O_R   0.856635 0.762736 0.665976 -0.284597
N4    N     N_R   0.068145 0.328903 0.297751 0.146493
O15   O     O_R   0.002550 0.320857 0.183165 -0.302719
O16   O     O_R   0.140713 0.237146 0.332489 -0.227676
N5    N     N_R   0.727633 0.906751 0.410293 0.220463
O17   O     O_R   0.813633 0.982361 0.374936 -0.198417
O18   O     O_R   0.749836 0.788325 0.405625 -0.325034
N6    N     N_R   0.271567 0.093241 0.589054 0.220982
O19   O     O_R   0.186170 0.017586 0.626015 -0.197791
O20   O     O_R   0.248178 0.211517 0.590587 -0.323915
N7    N     N_R   0.690251 0.078468 0.679286 0.170606
O21   O     O_R   0.763684 0.995668 0.734561 -0.203619
O22   O     O_R   0.701471 0.193670 0.717376 -0.426536
N8    N     N_R   0.309264 0.921658 0.320661 0.169422
O23   O     O_R   0.236418 0.004556 0.264609 -0.183140
O24   O     O_R   0.297082 0.806243 0.283884 -0.437393
N9    N     N_R   0.464376 0.924319 0.772379 0.181357
O25   O     O_R   0.366203 0.957343 0.840338 -0.223453
O26   O     O_R   0.553361 0.864657 0.836160 -0.347549
N10   N     N_R   0.535387 0.076051 0.227804 0.174029
O27   O     O_R   0.634032 0.043832 0.160254 -0.237890
O28   O     O_R   0.446720 0.136248 0.164139 -0.292494
C31   C     C_2   0.306650 0.651541 0.903392 0.515532
H5    H     H_    0.233873 0.674409 0.975899 0.068587
O29   O     O_2   0.302850 0.696151 0.787825 -0.404307
C32   C     C_2   0.691294 0.345057 0.096383 0.540124
H6    H     H_    0.758865 0.313741 0.021278 0.114625
O30   O     O_2   0.698680 0.306759 0.214679 -0.420299
C33   C     C_2   0.532573 0.739880 0.101652 0.568747
H7    H     H_    0.454998 0.804239 0.102217 0.123431
O31   O     O_2   0.634682 0.775486 0.138290 -0.413444
C34   C     C_2   0.470137 0.259778 0.897013 0.627349
H8    H     H_    0.545940 0.193765 0.907524 0.098387
O32   O     O_2   0.372216 0.226243 0.845596 -0.387322
C35   C     C_2   0.719376 0.590106 0.898970 0.559281
H9    H     H_    0.718251 0.679631 0.849910 0.168265
O33   O     O_2   0.815745 0.530953 0.911252 -0.584721
C36   C     C_2   0.276970 0.414989 0.098335 0.586829
H10   H     H_    0.211827 0.480349 0.143661 -0.001234
O34   O     O_2   0.249729 0.306336 0.084791 -0.369596

loop_
_geom_bond_atom_site_label_1
_geom_bond_atom_site_label_2
_geom_bond_distance
_ccdc_geom_bond_type
N8    O24   1.298761 A    
C35   H9    1.080951 S    
N7    O22   1.298773 A    
C17   C19   1.548332 S    
C24   C25   1.532088 S    
C14   C17   1.549790 S    
C31   H5    1.084633 S    
C6    C30   1.496357 S    
C33   H7    1.081340 S    
N5    O17   1.298790 A    
C12   N4    1.453396 S    
C29   H3    1.082980 S    
O5    C3    1.306633 A    
C15   N5    1.459245 S    
O1    C1    1.311030 A    
C13   C19   1.538302 S    
C9    C11   1.537722 S    
C34   O32   1.216856 D    
Cu1   N1    2.067651 S    
C8    C28   1.489215 S    
Cu2   N2    2.067653 S    
C32   O30   1.215676 D    
N5    O18   1.298139 A    
C8    C11   1.537045 S    
N6    O20   1.298391 A    
C7    C27   1.489761 S    
O4    Cu1   1.992037 S    
N9    O26   1.298162 A    
C23   N1    1.493706 S    
C23   C31   1.500620 S    
O6    Cu2   1.986525 S    
C21   C23   1.527509 S    
C22   C26   1.531871 S    
C24   N2    1.496356 S    
C14   N8    1.460032 S    
C13   N7    1.460136 S    
N8    O23   1.298967 A    
Cu1   Cu2   2.751555 S    
O2    C2    1.311132 A    
C28   O10   1.218750 D    
C33   O31   1.217629 D    
C19   N9    1.455529 S    
C29   O11   1.214976 D    
C5    C10   1.553771 S    
C22   C34   1.495358 S    
N4    O16   1.297919 A    
C3    C10   1.474434 S    
N3    O13   1.300517 A    
C22   N1    1.492540 S    
C34   H8    1.082320 S    
O4    C2    1.311147 A    
C27   H1    1.084244 S    
C32   H6    1.084297 S    
C21   C25   1.532103 S    
N6    O19   1.298847 A    
N3    O14   1.297892 A    
C22   C24   1.528973 S    
O7    Cu2   1.994683 S    
C1    C18   1.467941 S    
C31   O29   1.216178 D    
C36   O34   1.218392 D    
C2    C17   1.468332 S    
C5    C11   1.537277 S    
O6    C4    1.307139 A    
C13   C18   1.549667 S    
O7    C3    1.318888 A    
O3    Cu2   1.992037 S    
O8    C4    1.318644 A    
N10   O28   1.298019 A    
C30   H4    1.084772 S    
C10   C12   1.536766 S    
C35   O33   1.218483 D    
O1    Cu1   1.986382 S    
C28   H2    1.085125 S    
C5    C29   1.497590 S    
C11   N3    1.454395 S    
C15   C20   1.540386 S    
C5    C7    1.546044 S    
N4    O15   1.300578 A    
C6    C12   1.535996 S    
N1    C25   1.483491 S    
C25   C35   1.484532 S    
C23   C26   1.532239 S    
C14   C16   1.540178 S    
N10   O27   1.299750 A    
O3    C1    1.311055 A    
O8    Cu1   1.994684 S    
C20   N10   1.455299 S    
C15   C17   1.546902 S    
C26   C36   1.489099 S    
C16   C18   1.546893 S    
C7    C12   1.535892 S    
C21   C33   1.494511 S    
N2    C26   1.485762 S    
C18   C20   1.547900 S    
C24   C32   1.502422 S    
C36   H10   1.083161 S    
C6    C9    1.553118 S    
C4    C9    1.474809 S    
C30   O12   1.215388 D    
C7    C9    1.544304 S    
C8    C10   1.543644 S    
C13   C15   1.540080 S    
N9    O25   1.299772 A    
O2    Cu2   1.986382 S    
C14   C20   1.538113 S    
N7    O21   1.298936 A    
O5    Cu1   1.986525 S    
C27   O9    1.217964 D    
C16   C19   1.540988 S    
C6    C8    1.544743 S    
C21   N2    1.492048 S    
C16   N6    1.459635 S    
