data_mof_unit_45527.cif
_audit_creation_date              2012-12-11T15:53:34-0500
_audit_creation_method            fapswitch 2.2
_symmetry_space_group_name_H-M    P1
_symmetry_Int_Tables_number       1
_space_group_crystal_system       triclinic
_cell_length_a                    6.965727
_cell_length_b                    14.531289
_cell_length_c                    15.980988
_cell_angle_alpha                 90.647836
_cell_angle_beta                  90.31585
_cell_angle_gamma                 89.829644
_cell_volume                      1617.47662847

loop_
_atom_site_label
_atom_site_type_symbol
_atom_type_description
_atom_site_fract_x
_atom_site_fract_y
_atom_site_fract_z
_atom_type_partial_charge
O1    O     O_R   0.361600 0.167310 0.164620 -0.513993
O2    O     O_R   0.638400 0.832690 0.835380 -0.516559
O3    O     O_R   0.691080 0.157570 0.338750 -0.510113
O4    O     O_R   0.308920 0.842430 0.661250 -0.509428
O5    O     O_R   0.861410 0.336420 0.339360 -0.545196
O6    O     O_R   0.138590 0.663580 0.660640 -0.544423
C1    C     C_R   0.522586 0.134890 0.366955 0.832280
C2    C     C_R   0.477417 0.865120 0.633059 0.835468
O7    O     O_R   0.691320 0.156280 0.165240 -0.552648
O8    O     O_R   0.308680 0.843720 0.834760 -0.565165
O9    O     O_R   0.861640 0.335130 0.164600 -0.553542
O10   O     O_R   0.138360 0.664870 0.835400 -0.554706
C3    C     C_R   0.522142 0.134520 0.135776 0.736053
C4    C     C_R   0.477908 0.865315 0.864409 0.786428
O11   O     O_R   0.361370 0.168600 0.339370 -0.522577
O12   O     O_R   0.638630 0.831400 0.660630 -0.519039
O13   O     O_3   0.527990 0.310540 0.251980 -0.372489
O14   O     O_3   0.472010 0.689460 0.748020 -0.379526
V1    V     V_3+5 0.802830 0.240980 0.251990 1.588522
V2    V     V_3+5 0.197170 0.759020 0.748010 1.547578
O15   O     O_R   0.191360 0.346160 0.165220 -0.512866
O16   O     O_R   0.808640 0.653840 0.834780 -0.511339
C5    C     C_R   0.021833 0.370496 0.138066 0.756898
C6    C     C_R   0.977633 0.634155 0.865598 0.748635
O17   O     O_R   0.191130 0.347440 0.338740 -0.530844
O18   O     O_R   0.808870 0.652560 0.661260 -0.535319
C7    C     C_R   0.022291 0.369398 0.367555 0.766909
C8    C     C_R   0.977698 0.630673 0.632376 0.756814
V3    V     V_3+5 0.302840 0.262750 0.251990 1.628446
V4    V     V_3+5 0.697160 0.737250 0.748010 1.602701
O19   O     O_3   0.027820 0.193180 0.251990 -0.346778
O20   O     O_3   0.972180 0.806820 0.748010 -0.354646
C9    C     C_3   0.829832 0.497065 0.458641 -0.258668
C10   C     C_3   0.170169 0.503088 0.541178 -0.275677
C11   C     C_3   0.863749 0.475633 0.551877 0.533878
C12   C     C_3   0.136233 0.524510 0.447938 0.537588
H1    H     H_    0.689910 0.492967 0.425292 0.169698
H2    H     H_    0.310119 0.507201 0.574500 0.167479
C13   C     C_3   0.989238 0.561532 0.561881 -0.120271
C14   C     C_3   0.010743 0.438614 0.437962 -0.114082
C15   C     C_3   0.958017 0.584084 0.468204 -0.261937
C16   C     C_3   0.041977 0.416071 0.531625 -0.273406
H3    H     H_    0.924892 0.653158 0.442823 0.173247
H4    H     H_    0.075095 0.346995 0.557003 0.167219
C17   C     C_R   0.823275 0.543443 0.981839 0.433071
C18   C     C_R   0.175620 0.487014 0.042156 0.412440
C19   C     C_R   0.833783 0.471596 0.039878 -0.216735
C20   C     C_R   0.165031 0.540193 0.969411 -0.221708
H5    H     H_    0.705232 0.443882 0.065785 0.216310
H6    H     H_    0.293365 0.565209 0.941284 0.221313
C21   C     C_R   0.011289 0.441911 0.071308 -0.210686
C22   C     C_R   0.987710 0.569517 0.937755 -0.202160
C23   C     C_R   0.646984 0.066401 0.501284 0.333949
C24   C     C_R   0.353051 0.933595 0.498734 0.332905
C25   C     C_R   0.633247 0.002438 0.566518 0.341682
C26   C     C_R   0.366748 0.997576 0.433516 0.343606
C27   C     C_R   0.487155 0.934880 0.565529 -0.330357
C28   C     C_R   0.512852 0.065131 0.434496 -0.329911
C29   C     C_R   0.646144 0.995031 0.060118 -0.266572
C30   C     C_R   0.355622 0.005847 0.939321 -0.330873
H7    H     H_    0.754641 0.988278 0.108492 0.172016
H8    H     H_    0.243000 0.011381 0.892645 0.162948
C31   C     C_R   0.638224 0.929180 0.994767 0.490543
C32   C     C_R   0.365523 0.072312 0.003712 0.475889
C33   C     C_R   0.490330 0.933997 0.934012 -0.188421
C34   C     C_R   0.510989 0.066670 0.065541 -0.182677
O21   O     O_3   0.717940 0.455860 0.609853 -0.563495
C35   C     C_3   0.636346 0.369741 0.590175 -0.220216
H9    H     H_    0.739816 0.313464 0.603477 0.200562
H10   H     H_    0.585167 0.365795 0.524121 0.142821
H11   H     H_    0.509783 0.359477 0.630808 0.162193
O22   O     O_3   0.281968 0.544185 0.389895 -0.550989
C36   C     C_3   0.363381 0.630396 0.409341 -0.149066
H12   H     H_    0.414531 0.634572 0.475391 0.121470
H13   H     H_    0.259799 0.686582 0.395883 0.199302
H14   H     H_    0.489922 0.640577 0.368675 0.179048
Cl1   Cl    Cl    0.624805 0.617539 0.984380 -0.583820
Cl2   Cl    Cl    0.375183 0.500435 0.108189 -0.591570
Cl3   Cl    Cl    0.831158 0.150166 0.506238 -0.616997
Cl4   Cl    Cl    0.169007 0.849762 0.493739 -0.604789
Cl5   Cl    Cl    0.794959 0.012030 0.652201 -0.561968
Cl6   Cl    Cl    0.204972 0.987996 0.347862 -0.529891
O23   O     O_3   0.759938 0.853696 0.995893 -0.527541
C37   C     C_3   0.947886 0.882301 0.977227 -0.099002
H15   H     H_    0.952443 0.919786 0.916893 0.117610
H16   H     H_    0.040081 0.820318 0.970442 0.160045
H17   H     H_    0.009617 0.925207 0.028662 0.133683
O24   O     O_3   0.226696 0.140369 0.007619 -0.551103
C38   C     C_3   0.288697 0.215564 0.959901 -0.221636
H18   H     H_    0.305641 0.195911 0.892809 0.148326
H19   H     H_    0.424958 0.244872 0.985194 0.119069
H20   H     H_    0.177991 0.270499 0.963442 0.150775

loop_
_geom_bond_atom_site_label_1
_geom_bond_atom_site_label_2
_ccdc_geom_bond_type
C6    C22   S    
C31   C33   A    
O13   V3    S    
C36   H12   S    
C10   C16   S    
C37   H17   S    
O4    C2    A    
V1    O19   S    
C19   H5    S    
O9    V1    S    
C23   Cl3   S    
C37   H16   S    
O3    C1    A    
C29   C34   A    
O12   V4    S    
C30   H8    S    
C17   C19   A    
C11   C16   S    
O7    C3    A    
O13   V1    S    
O5    C7    A    
O7    V1    S    
O6    C8    A    
O8    V2    S    
C35   H9    S    
O3    V1    S    
O14   V4    S    
C25   Cl5   S    
C1    C28   S    
C10   C12   S    
C20   H6    S    
C2    O12   A    
C14   C16   S    
C15   H3    S    
C12   C15   S    
C16   H4    S    
O11   V3    S    
C24   Cl4   S    
C3    C34   S    
C23   C25   A    
O17   V3    S    
C24   C26   A    
C29   H7    S    
C9    C14   S    
O21   C35   S    
C12   C14   S    
C37   H15   S    
C13   C15   S    
O8    C4    A    
C18   Cl2   S    
C19   C21   A    
C1    O11   A    
C8    C13   S    
O15   V3    S    
C18   C21   A    
C9    H1    S    
C10   C13   S    
C31   O23   S    
C32   C34   A    
C11   C13   S    
C2    C27   S    
C5    C21   S    
O23   C37   S    
C11   O21   S    
C7    C14   S    
O10   V2    S    
O1    V3    S    
C38   H20   S    
C30   C33   A    
O18   V4    S    
O15   C5    A    
C36   H14   S    
O16   C6    A    
O1    C3    A    
C36   H13   S    
V2    O20   S    
O16   V4    S    
C10   H2    S    
O18   C8    A    
O22   C36   S    
C23   C28   A    
C26   Cl6   S    
O5    V1    S    
O17   C7    A    
O6    V2    S    
O10   C6    A    
C29   C31   A    
C17   C22   A    
O2    V4    S    
C30   C32   A    
C9    C15   S    
C25   C27   A    
V3    O19   S    
V4    O20   S    
C35   H11   S    
O9    C5    A    
C9    C11   S    
C4    C33   S    
C26   C28   A    
O14   V2    S    
O2    C4    A    
O4    V2    S    
C18   C20   A    
C20   C22   A    
O24   C38   S    
C35   H10   S    
C38   H19   S    
C17   Cl1   S    
C38   H18   S    
C32   O24   S    
C12   O22   S    
C24   C27   A    
