data_mof_unit_38313.cif
_audit_creation_date              2012-12-11T14:08:41-0500
_audit_creation_method            fapswitch 2.2
_symmetry_space_group_name_H-M    P1
_symmetry_Int_Tables_number       1
_space_group_crystal_system       triclinic
_cell_length_a                    28.196702
_cell_length_b                    7.193732
_cell_length_c                    17.189203
_cell_angle_alpha                 90.113506
_cell_angle_beta                  101.963217
_cell_angle_gamma                 89.950268
_cell_volume                      3410.91559769

loop_
_atom_site_label
_atom_site_type_symbol
_atom_type_description
_atom_site_fract_x
_atom_site_fract_y
_atom_site_fract_z
_atom_type_partial_charge
O1    O     O_R   0.000700 0.436510 0.857920 -0.533024
O2    O     O_R   0.999300 0.563490 0.142080 -0.533021
O3    O     O_R   0.999300 0.936510 0.642080 -0.534314
O4    O     O_R   0.000700 0.063490 0.357920 -0.534293
O5    O     O_R   0.930080 0.766380 0.721890 -0.536317
O6    O     O_R   0.069920 0.233620 0.278110 -0.536335
O7    O     O_R   0.069920 0.266380 0.778110 -0.536247
O8    O     O_R   0.930080 0.733620 0.221890 -0.536231
C1    C     C_R   0.910604 0.597406 0.710561 0.719486
C2    C     C_R   0.089403 0.402586 0.289413 0.719415
C3    C     C_R   0.089445 0.097237 0.789292 0.721039
C4    C     C_R   0.910549 0.902789 0.210785 0.721063
O9    O     O_R   0.996180 0.766230 0.862310 -0.542104
O10   O     O_R   0.003820 0.233770 0.137690 -0.542062
O11   O     O_R   0.003820 0.266230 0.637690 -0.542394
O12   O     O_R   0.996180 0.733770 0.362310 -0.542374
O13   O     O_R   0.065870 0.936460 0.783500 -0.525381
O14   O     O_R   0.934130 0.063540 0.216500 -0.525335
O15   O     O_R   0.934130 0.436460 0.716500 -0.526190
O16   O     O_R   0.065870 0.563540 0.283500 -0.526144
C5    C     C_R   0.998484 0.596531 0.894510 0.766452
C6    C     C_R   0.001515 0.403469 0.105490 0.766394
C7    C     C_R   0.001521 0.096369 0.605538 0.762255
C8    C     C_R   0.998479 0.903631 0.394462 0.762203
O17   O     O_3   0.022790 0.603020 0.723980 -0.365822
O18   O     O_3   0.977210 0.396980 0.276020 -0.365731
O19   O     O_3   0.977210 0.103020 0.776020 -0.366766
O20   O     O_3   0.022790 0.896980 0.223980 -0.366681
V1    V     V_3+5 0.995770 0.877900 0.754830 1.494099
V2    V     V_3+5 0.004230 0.122100 0.245170 1.494223
V3    V     V_3+5 0.004230 0.377900 0.745170 1.493049
V4    V     V_3+5 0.995770 0.622100 0.254830 1.493183
C9    C     C_2   0.001701 0.082608 0.519609 -0.313082
C10   C     C_2   0.998298 0.917392 0.480390 -0.313150
C11   C     C_2   0.998324 0.582712 0.980500 -0.307103
C12   C     C_2   0.001673 0.417287 0.019499 -0.307141
C13   C     C_R   0.682980 0.926653 0.027377 0.587276
C14   C     C_R   0.316871 0.072487 0.973465 0.587512
C15   C     C_R   0.315740 0.490145 0.470355 0.589735
C16   C     C_R   0.684426 0.504315 0.529669 0.590049
O21   O     O_2   0.712277 0.913233 0.974702 -0.504159
O22   O     O_2   0.287494 0.083690 0.026092 -0.503941
O23   O     O_2   0.285532 0.531654 0.519381 -0.506633
O24   O     O_2   0.714697 0.459767 0.481135 -0.506689
N1    N     N_R   0.702578 0.929077 0.107336 -0.555377
N2    N     N_R   0.297350 0.071983 0.893478 -0.555548
N3    N     N_R   0.297046 0.434909 0.393823 -0.556441
N4    N     N_R   0.703048 0.563143 0.605714 -0.556486
C17   C     C_R   0.673344 0.944509 0.161620 0.583165
C18   C     C_R   0.326651 0.059010 0.839214 0.583262
C19   C     C_R   0.327058 0.392619 0.342975 0.586973
C20   C     C_R   0.672985 0.608518 0.656083 0.587235
C21   C     C_R   0.779082 0.067927 0.179905 -0.102455
C22   C     C_R   0.220993 0.932997 0.820438 -0.102396
C23   C     C_R   0.221232 0.554408 0.310530 -0.099760
C24   C     C_R   0.778834 0.445498 0.689698 -0.099557
C25   C     C_R   0.829461 0.063757 0.206916 0.113084
C26   C     C_R   0.170620 0.936884 0.793281 0.113205
C27   C     C_R   0.170731 0.548881 0.284054 0.115363
C28   C     C_R   0.829316 0.451633 0.716320 0.115604
C29   C     C_R   0.831753 0.764258 0.142133 -0.196700
C30   C     C_R   0.168098 0.235642 0.858565 -0.196780
C31   C     C_R   0.167549 0.279884 0.368065 -0.201510
C32   C     C_R   0.832487 0.718668 0.631228 -0.202046
C33   C     C_R   0.781334 0.768908 0.116561 -0.065580
C34   C     C_R   0.218500 0.231188 0.884367 -0.065611
C35   C     C_R   0.217951 0.287256 0.394322 -0.068064
C36   C     C_R   0.782101 0.710648 0.604798 -0.068215
C37   C     C_R   0.754628 0.921598 0.134666 0.326843
C38   C     C_R   0.245312 0.079058 0.866048 0.327104
C39   C     C_R   0.245107 0.425080 0.366006 0.331461
C40   C     C_R   0.754968 0.573492 0.633589 0.331692
C41   C     C_R   0.601930 0.961571 0.054317 -0.044872
C42   C     C_R   0.398003 0.040388 0.946576 -0.044755
C43   C     C_R   0.397803 0.464430 0.446634 -0.044338
C44   C     C_R   0.602313 0.532805 0.552914 -0.044421
C45   C     C_R   0.632457 0.941286 0.999578 -0.037055
C46   C     C_R   0.367398 0.058223 0.001318 -0.037063
C47   C     C_R   0.366288 0.506105 0.498022 -0.039607
C48   C     C_R   0.633884 0.487932 0.502008 -0.039557
C49   C     C_R   0.612079 0.937649 0.918294 -0.121632
C50   C     C_R   0.387699 0.059506 0.082642 -0.121813
C51   C     C_R   0.385762 0.563713 0.575710 -0.119586
C52   C     C_R   0.614472 0.426338 0.424878 -0.119601
C53   C     C_R   0.622753 0.962801 0.136159 -0.035090
C54   C     C_R   0.377253 0.041287 0.864703 -0.035423
C55   C     C_R   0.377826 0.406275 0.368421 -0.035786
C56   C     C_R   0.622228 0.594439 0.630645 -0.035716
C57   C     C_R   0.856751 0.911685 0.186852 -0.092049
C58   C     C_R   0.143228 0.088491 0.813466 -0.091936
C59   C     C_R   0.143114 0.411424 0.313572 -0.088898
C60   C     C_R   0.856910 0.588389 0.686343 -0.088676
H1    H     H_    0.763026 0.653647 0.082361 0.146202
H2    H     H_    0.236714 0.346192 0.918876 0.146089
H3    H     H_    0.235926 0.185807 0.436881 0.145415
H4    H     H_    0.764121 0.811070 0.561748 0.145549
C61   C     C_R   0.479384 0.001060 0.917282 0.038266
C62   C     C_R   0.520591 0.002365 0.083627 0.038438
C63   C     C_R   0.519757 0.561200 0.578712 0.037605
C64   C     C_R   0.480342 0.437129 0.420641 0.037646
C65   C     C_R   0.469455 0.021923 0.056621 0.037350
C66   C     C_R   0.530454 0.979419 0.944308 0.037397
C67   C     C_R   0.531628 0.453317 0.447435 0.033972
C68   C     C_R   0.468518 0.542108 0.552342 0.033841
C69   C     C_R   0.449179 0.021167 0.973615 0.065157
C70   C     C_R   0.550760 0.981088 0.027299 0.064964
C71   C     C_R   0.551006 0.515764 0.526227 0.065168
C72   C     C_R   0.449115 0.481221 0.473331 0.065371
C73   C     C_R   0.457154 0.004026 0.835389 -0.181365
C74   C     C_R   0.542935 0.002949 0.165487 -0.180925
C75   C     C_R   0.541165 0.624964 0.656134 -0.178014
C76   C     C_R   0.458853 0.378222 0.342514 -0.178607
C77   C     C_R   0.407294 0.023883 0.809917 -0.134591
C78   C     C_R   0.592802 0.983207 0.190938 -0.134375
C79   C     C_R   0.591185 0.640678 0.681348 -0.132093
C80   C     C_R   0.408816 0.363471 0.317194 -0.132733
O25   O     O_2   0.306952 0.063966 0.760678 -0.510472
O26   O     O_2   0.693096 0.941392 0.240156 -0.510744
O27   O     O_2   0.692082 0.667785 0.730508 -0.507060
O28   O     O_2   0.307903 0.336753 0.268072 -0.507046
C81   C     C_R   0.562288 0.955550 0.891133 -0.181634
C82   C     C_R   0.437510 0.042315 0.109825 -0.182548
C83   C     C_R   0.435626 0.581389 0.602401 -0.180632
C84   C     C_R   0.564600 0.409113 0.398096 -0.179726
H5    H     H_    0.241561 0.815837 0.805478 0.156202
H6    H     H_    0.758614 0.185549 0.194704 0.156430
H7    H     H_    0.757935 0.340566 0.712739 0.155249
H8    H     H_    0.242139 0.659930 0.287869 0.155301
H9    H     H_    0.392340 0.024645 0.746536 0.168798
H10   H     H_    0.607837 0.985040 0.254291 0.168133
H11   H     H_    0.605450 0.689632 0.741287 0.161056
H12   H     H_    0.394494 0.318177 0.256729 0.161860
H13   H     H_    0.550151 0.949595 0.827590 0.116596
H14   H     H_    0.449536 0.044991 0.173426 0.117656
H15   H     H_    0.446990 0.625839 0.663195 0.121567
H16   H     H_    0.553318 0.359688 0.338006 0.120467
H17   H     H_    0.004463 0.211447 0.488002 0.155183
H18   H     H_    0.995536 0.788553 0.511997 0.155159
H19   H     H_    0.995625 0.711591 0.012328 0.155296
H20   H     H_    0.004372 0.288408 0.987670 0.155321
H21   H     H_    0.851323 0.645467 0.125992 0.156418
H22   H     H_    0.148436 0.354043 0.874828 0.156012
H23   H     H_    0.147456 0.172804 0.391525 0.146632
H24   H     H_    0.852582 0.825152 0.607407 0.146281
H25   H     H_    0.634642 0.920837 0.874823 0.181009
H26   H     H_    0.365058 0.073722 0.126132 0.181285
H27   H     H_    0.362413 0.596096 0.616653 0.178324
H28   H     H_    0.637879 0.390309 0.384473 0.178104
I1    I     I_    0.141126 0.713999 0.717023 -0.349836
I2    I     I_    0.859085 0.287023 0.282845 -0.350283
I3    I     I_    0.859796 0.257320 0.805823 -0.344479
I4    I     I_    0.140304 0.745264 0.195414 -0.344595
H29   H     H_    0.477104 0.991940 0.788639 0.117801
H30   H     H_    0.523105 0.018753 0.212224 0.116841
H31   H     H_    0.520418 0.665130 0.699369 0.115170
H32   H     H_    0.479528 0.342647 0.298581 0.115816

loop_
_geom_bond_atom_site_label_1
_geom_bond_atom_site_label_2
_ccdc_geom_bond_type
O17   V3    S    
O1    C5    A    
C62   C74   A    
C23   C27   A    
O19   V1    S    
C18   O25   S    
O13   V1    S    
O3    C7    A    
C11   C12   D    
C76   C80   A    
C48   C52   A    
O15   V3    S    
C68   C83   A    
C79   H11   S    
C27   I4    S    
O7    C3    A    
C36   H4    S    
C43   C47   A    
C25   C57   A    
C54   C77   A    
C32   C36   A    
O9    V1    S    
C53   C78   A    
C30   H22   S    
C14   O22   S    
N4    C20   A    
C22   C26   A    
O4    C8    A    
C33   C37   A    
O1    V3    S    
O2    V4    S    
C24   H7    S    
O3    V1    S    
C82   H14   S    
C11   H19   S    
C1    O15   A    
C2    O16   A    
C24   C40   A    
C80   H12   S    
O2    C6    A    
C16   C48   A    
O14   V2    S    
N1    C17   A    
O8    C4    A    
C66   C81   A    
C73   H29   S    
C44   C56   A    
C61   C66   A    
C26   I1    S    
C73   C77   A    
C34   H2    S    
C61   C69   A    
O11   C7    A    
C63   C68   A    
C21   C37   A    
C43   C72   A    
O12   C8    A    
C35   H3    S    
C78   H10   S    
C31   C59   A    
O10   V2    S    
C67   C84   A    
C1    C60   S    
C50   H26   S    
C29   C57   A    
C19   O28   S    
O5    V1    S    
C52   H28   S    
C65   C69   A    
C22   H5    S    
C31   C35   A    
C64   C72   A    
O7    V3    S    
C30   C34   A    
N1    C37   S    
O8    V4    S    
C17   C53   A    
C4    C57   S    
C20   C56   A    
C19   C55   A    
C84   H16   S    
O18   V4    S    
N3    C19   A    
C32   H24   S    
C7    C9    S    
C9    H17   S    
C10   H18   S    
C64   C67   A    
C8    C10   S    
C24   C28   A    
C49   C81   A    
C28   I3    S    
C15   C47   A    
O5    C1    A    
C74   H30   S    
C61   C73   A    
C46   C50   A    
C17   O26   S    
C22   C38   A    
C45   C49   A    
C36   C40   A    
C63   C75   A    
C25   I2    S    
C4    O14   A    
C9    C10   D    
O9    C5    A    
C27   C59   A    
C42   C54   A    
C26   C58   A    
N3    C39   S    
C55   C80   A    
C77   H9    S    
C51   H27   S    
C29   H21   S    
O6    V2    S    
C2    C59   S    
C64   C76   A    
C44   C71   A    
C49   H25   S    
C76   H32   S    
C52   C84   A    
N4    C40   S    
C13   N1    A    
C68   C72   A    
N2    C38   S    
C63   C71   A    
C15   N3    A    
O16   V4    S    
C43   C55   A    
C16   N4    A    
C74   C78   A    
C3    O13   A    
C21   C25   A    
C44   C48   A    
O6    C2    A    
C15   O23   S    
O11   V3    S    
C5    C11   S    
O12   V4    S    
C62   C65   A    
C6    C12   S    
N2    C18   A    
C14   C46   A    
C65   C82   A    
C62   C70   A    
C81   H13   S    
O10   C6    A    
C56   C79   A    
O20   V2    S    
C41   C53   A    
C42   C69   A    
C47   C51   A    
C3    C58   S    
C41   C70   A    
C34   C38   A    
C13   C45   A    
C31   H23   S    
C30   C58   A    
C33   H1    S    
C66   C70   A    
C35   C39   A    
C12   H20   S    
C13   O21   S    
O4    V2    S    
C14   N2    A    
C21   H6    S    
C18   C54   A    
C20   O27   S    
C29   C33   A    
C16   O24   S    
C23   H8    S    
C75   C79   A    
C42   C46   A    
C83   H15   S    
C41   C45   A    
C67   C71   A    
C32   C60   A    
C51   C83   A    
C28   C60   A    
C75   H31   S    
C50   C82   A    
C23   C39   A    
