data_mof_unit_14749.cif
_audit_creation_date              2013-03-05T15:45:13-0500
_audit_creation_method            fapswitch 2.2
_symmetry_space_group_name_H-M    P1
_symmetry_Int_Tables_number       1
_space_group_crystal_system       triclinic
_cell_length_a                    16.880638
_cell_length_b                    7.018833
_cell_length_c                    16.83793
_cell_angle_alpha                 88.89279
_cell_angle_beta                  100.896136
_cell_angle_gamma                 91.056168
_cell_volume                      1958.4433818

loop_
_atom_site_label
_atom_site_type_symbol
_atom_site_description
_atom_site_fract_x
_atom_site_fract_y
_atom_site_fract_z
_atom_type_partial_charge
O1    O     O_R   0.579510 0.506290 0.439030 -0.587591
O2    O     O_R   0.420490 0.006290 0.560970 -0.566603
O3    O     O_R   0.412540 0.170090 0.405290 -0.597388
O4    O     O_R   0.587460 0.670090 0.594710 -0.601489
C1    C     C_R   0.383667 0.345646 0.383398 0.940243
C2    C     C_R   0.616082 0.846068 0.617067 0.936288
O5    O     O_R   0.578390 0.176230 0.429330 -0.571628
O6    O     O_R   0.421610 0.676230 0.570670 -0.596774
O7    O     O_R   0.587530 0.011250 0.585190 -0.585366
O8    O     O_R   0.412470 0.511250 0.414810 -0.588624
C3    C     C_R   0.604238 0.347794 0.413238 0.932207
C4    C     C_R   0.395273 0.842412 0.586537 0.934175
O9    O     O_3   0.502800 0.340940 0.551110 -0.279243
O10   O     O_3   0.497200 0.840940 0.448890 -0.275480
V1    V     V_3+5 0.499480 0.064020 0.490520 1.196752
V2    V     V_3+5 0.500520 0.564020 0.509480 1.182354
C5    C     C_R   0.166270 0.926083 0.859334 -0.205404
C6    C     C_R   0.831879 0.396004 0.137105 -0.200142
C7    C     C_R   0.332625 0.839473 0.637950 -0.119937
C8    C     C_R   0.667502 0.369223 0.363137 -0.145394
C9    C     C_R   0.219793 0.673552 0.682078 -0.170853
C10   C     C_R   0.786946 0.541423 0.337042 -0.152196
C11   C     C_R   0.275921 0.688707 0.630860 -0.134344
C12   C     C_R   0.730262 0.502084 0.385895 -0.106086
C13   C     C_R   0.331966 0.976145 0.697737 -0.232713
C14   C     C_R   0.662893 0.272575 0.290082 -0.246254
C15   C     C_R   0.276840 0.958963 0.751190 0.174732
C16   C     C_R   0.719142 0.313782 0.239377 0.180079
C17   C     C_R   0.219646 0.807144 0.743371 0.182074
C18   C     C_R   0.781918 0.449794 0.262704 0.164452
C19   C     C_R   0.163807 0.791371 0.796685 -0.101799
C20   C     C_R   0.838305 0.491150 0.211773 -0.093063
C21   C     C_R   0.225623 0.073620 0.867379 0.051314
C22   C     C_R   0.767962 0.262791 0.114257 0.050534
C23   C     C_R   0.279308 0.089673 0.813231 -0.271900
C24   C     C_R   0.712666 0.222940 0.165214 -0.268753
H1    H     H_    0.177390 0.554689 0.674046 0.158293
H2    H     H_    0.834044 0.645790 0.357554 0.169099
H3    H     H_    0.323697 0.204765 0.820404 0.126369
H4    H     H_    0.664406 0.119977 0.146438 0.124830
H5    H     H_    0.275069 0.581317 0.585339 0.179500
H6    H     H_    0.735159 0.576275 0.442026 0.210474
H7    H     H_    0.376186 0.091571 0.704554 0.126761
H8    H     H_    0.614045 0.171047 0.271422 0.122661
C25   C     C_3   0.738614 0.816531 0.838826 -0.331232
C26   C     C_3   0.262289 0.338870 0.161334 -0.330599
H9    H     H_    0.753599 0.670421 0.863254 0.156801
H10   H     H_    0.250202 0.196286 0.133398 0.156002
H11   H     H_    0.722113 0.900224 0.888585 0.135725
H12   H     H_    0.277560 0.438125 0.113939 0.137451
C27   C     C_3   0.665056 0.804846 0.767527 -0.511023
C28   C     C_3   0.335481 0.325770 0.232863 -0.509794
H13   H     H_    0.616274 0.897815 0.780025 0.161576
H14   H     H_    0.382924 0.430729 0.222665 0.163231
H15   H     H_    0.640285 0.656550 0.763589 0.163548
H16   H     H_    0.362500 0.182025 0.234137 0.160469
H17   H     H_    0.862738 0.646696 0.770520 0.162556
H18   H     H_    0.142153 0.124898 0.224846 0.166713
H19   H     H_    0.743327 0.588339 0.686971 0.042659
H20   H     H_    0.261289 0.074134 0.309766 0.046516
C29   C     C_3   0.836722 0.783495 0.744029 -0.470271
C30   C     C_3   0.164667 0.261187 0.254243 -0.464707
C31   C     C_3   0.787998 0.106148 0.772448 -0.446917
C32   C     C_3   0.206524 0.600071 0.233215 -0.441898
C33   C     C_3   0.813435 0.909501 0.810994 0.077234
C34   C     C_3   0.185591 0.407941 0.190205 0.075648
H21   H     H_    0.841194 0.182742 0.756265 0.162076
H22   H     H_    0.151706 0.658429 0.251111 0.159832
H23   H     H_    0.766324 0.195801 0.817616 0.157224
H24   H     H_    0.225782 0.706086 0.190315 0.157978
C35   C     C_3   0.689566 0.867115 0.686189 -0.043502
C36   C     C_3   0.309652 0.364803 0.314934 -0.040051
C37   C     C_3   0.762111 0.737846 0.676651 0.273356
C38   C     C_3   0.239652 0.217721 0.321826 0.259313
C39   C     C_3   0.719401 0.082146 0.697123 -0.053305
C40   C     C_3   0.275850 0.574657 0.307868 -0.066217
H25   H     H_    0.667613 0.167635 0.708228 0.127188
H26   H     H_    0.325741 0.673454 0.298006 0.134419
H27   H     H_    0.884665 0.858598 0.717738 0.173175
H28   H     H_    0.114679 0.318284 0.281027 0.173310
O11   O     O_R   0.087500 0.266000 0.085220 -0.593810
O12   O     O_R   0.912500 0.766000 0.914780 -0.599182
O13   O     O_R   0.921600 0.589950 0.070670 -0.604569
O14   O     O_R   0.078400 0.089950 0.929330 -0.582338
C41   C     C_R   0.894947 0.418743 0.086096 0.944222
C42   C     C_R   0.104634 0.924127 0.912900 0.942194
O15   O     O_R   0.087460 0.596020 0.094710 -0.594754
O16   O     O_R   0.912540 0.096020 0.905290 -0.591376
O17   O     O_R   0.079520 0.760970 0.939020 -0.602290
O18   O     O_R   0.920480 0.260970 0.060980 -0.577533
C43   C     C_R   0.115431 0.425958 0.118526 0.881341
C44   C     C_R   0.883935 0.926333 0.882112 0.886498
O19   O     O_3   0.997180 0.425140 0.948910 -0.280419
O20   O     O_3   0.002820 0.925140 0.051090 -0.274621
V3    V     V_3+5 0.000520 0.702080 0.009480 1.126349
V4    V     V_3+5 0.999480 0.202080 0.990520 1.145171
N1    N     N_3   0.103439 0.642495 0.784370 -0.207380
H29   H     H_    0.112703 0.550323 0.834592 0.145234
H30   H     H_    0.046424 0.703131 0.778069 0.121555
N2    N     N_3   0.903133 0.624360 0.238033 -0.207102
H31   H     H_    0.897362 0.740288 0.197588 0.146706
H32   H     H_    0.958014 0.557704 0.237943 0.105875
N3    N     N_3   0.744151 0.160160 0.623842 -0.154792
H33   H     H_    0.803717 0.123642 0.622791 0.177767
H34   H     H_    0.742735 0.308544 0.624901 0.117462
N4    N     N_3   0.250458 0.631679 0.382580 -0.170687
H35   H     H_    0.192925 0.576249 0.384476 0.170768
H36   H     H_    0.245903 0.779938 0.381957 0.137608
N5    N     N_R   0.785110 0.745121 0.596563 0.211627
O21   O     O_R   0.744997 0.842898 0.536200 -0.452862
O22   O     O_R   0.843100 0.637302 0.583562 -0.428168
N6    N     N_R   0.215884 0.204028 0.401630 0.220909
O23   O     O_R   0.259077 0.280324 0.465709 -0.438264
O24   O     O_R   0.156668 0.089616 0.410960 -0.410028
N7    N     N_3   0.232574 0.206991 0.931867 -0.204212
H37   H     H_    0.226471 0.344319 0.906510 0.108574
H38   H     H_    0.290579 0.197155 0.966847 0.083892
N8    N     N_3   0.758674 0.167763 0.038356 -0.207993
H39   H     H_    0.761124 0.020858 0.049946 0.108293
H40   H     H_    0.701447 0.198205 0.004907 0.081686

loop_
_geom_bond_atom_site_label_1
_geom_bond_atom_site_label_2
_geom_bond_distance
_ccdc_geom_bond_type
H18   C30   1.112788 S    
C33   C44   1.525045 S    
C18   C20   1.419326 A    
C31   C33   1.546775 S    
C22   N8    1.433914 S    
O15   C43   1.318795 A    
C15   C17   1.415766 A    
C12   H6    1.076643 S    
C23   H3    1.084373 S    
O1    C3    1.305646 A    
C36   C40   1.583618 S    
O2    C4    1.312120 A    
C13   H7    1.084267 S    
C2    O7    1.327902 A    
N6    O24   1.301402 A    
N1    H29   1.044356 S    
C14   H8    1.084211 S    
O5    C3    1.313990 A    
C27   C35   1.556389 S    
C32   H22   1.113118 S    
C30   H28   1.113259 S    
O14   C42   1.305769 A    
C26   C34   1.554936 S    
C1    C36   1.537451 S    
N5    O22   1.301375 A    
C38   N6    1.474206 S    
N4    H35   1.045422 S    
C25   C27   1.557670 S    
N7    H37   1.045514 S    
C10   H2    1.082814 S    
C26   C28   1.556565 S    
O12   C44   1.302801 A    
O14   V4    2.011137 S    
C8    C12   1.400982 A    
N8    H39   1.045803 S    
C31   H23   1.113738 S    
N7    H38   1.045617 S    
O15   V3    1.992549 S    
C32   H24   1.113668 S    
H19   C37   1.110602 S    
C22   C24   1.403418 A    
O20   V4    2.174247 S    
N4    H36   1.044556 S    
O5    V1    1.976111 S    
O19   V3    2.207373 S    
C39   N3    1.468750 S    
C5    C21   1.417885 A    
N6    O23   1.301175 A    
N1    H30   1.045687 S    
C28   H14   1.113081 S    
C26   H10   1.113026 S    
C25   H9    1.113010 S    
C2    C35   1.539230 S    
C31   H21   1.112965 S    
C3    C8    1.484770 S    
C21   N7    1.433944 S    
C6    C41   1.493567 S    
C30   C34   1.560797 S    
C5    C42   1.500000 S    
O16   C44   1.315100 A    
C24   H4    1.084280 S    
C36   C38   1.574086 S    
C35   C37   1.571507 S    
O11   V4    2.014681 S    
C29   C37   1.560457 S    
C9    C17   1.408113 A    
C20   N2    1.436171 S    
O16   V4    1.993059 S    
C27   H13   1.113015 S    
C32   C34   1.546380 S    
O17   V3    1.978810 S    
C7    C11   1.405214 A    
C28   C36   1.556150 S    
C39   H25   1.115682 S    
C25   H11   1.112620 S    
O6    C4    1.305991 A    
O13   V3    1.976028 S    
N2    H32   1.045807 S    
C32   C40   1.557005 S    
N3    H34   1.042772 S    
O1    V2    1.996440 S    
O18   V4    1.998555 S    
O2    V1    1.977063 S    
C6    C22   1.416389 A    
O4    C2    1.352027 A    
O13   C41   1.313808 A    
O19   V4    1.700917 S    
C9    C11   1.398003 A    
C25   C33   1.556343 S    
C5    C19   1.424435 A    
C10   C12   1.395541 A    
C6    C20   1.420094 A    
O4    V2    1.993084 S    
O3    C1    1.352181 A    
O3    V1    1.992577 S    
C40   N4    1.468363 S    
O12   V3    2.013155 S    
C10   C18   1.405884 A    
C40   H26   1.115623 S    
C8    C14   1.404808 A    
C42   O17   1.310614 A    
C41   O18   1.302115 A    
H17   C29   1.112969 S    
C34   C43   1.527915 S    
C13   C15   1.413806 A    
C26   H12   1.112792 S    
C14   C16   1.414560 A    
C11   H5    1.083326 S    
C15   C23   1.397807 A    
C16   C18   1.417191 A    
O7    V1    1.997280 S    
C1    O8    1.331503 A    
C17   C19   1.420872 A    
O8    V2    1.998542 S    
N5    O21   1.300972 A    
C35   C39   1.585273 S    
C31   C39   1.556825 S    
C29   H27   1.113338 S    
C4    C7    1.487559 S    
H20   C38   1.113477 S    
N2    H31   1.044879 S    
C21   C23   1.403529 A    
C27   H15   1.113009 S    
C37   N5    1.471852 S    
C19   N1    1.436162 S    
O20   V3    1.724361 S    
C7    C13   1.405598 A    
N8    H40   1.045630 S    
O11   C43   1.304672 A    
C29   C33   1.557891 S    
C9    H1    1.082779 S    
C16   C24   1.398014 A    
O6    V2    2.011240 S    
O9    V2    1.701190 S    
N3    H33   1.045676 S    
O10   V1    1.724655 S    
C30   C38   1.564129 S    
C28   H16   1.113027 S    
