data_mof_unit_37386.cif
_audit_creation_date              2012-12-10T17:52:18-0500
_audit_creation_method            fapswitch 2.2
_symmetry_space_group_name_H-M    P1
_symmetry_Int_Tables_number       1
_space_group_crystal_system       triclinic
_cell_length_a                    19.030365
_cell_length_b                    10.621036
_cell_length_c                    9.930813
_cell_angle_alpha                 89.305025
_cell_angle_beta                  91.939905
_cell_angle_gamma                 90.891553
_cell_volume                      2005.70923731

loop_
_atom_site_label
_atom_site_type_symbol
_atom_type_description
_atom_site_fract_x
_atom_site_fract_y
_atom_site_fract_z
_atom_type_partial_charge
C1    C     C_R   0.501739 0.260695 0.500800 0.868496
C2    C     C_R   0.855331 0.561233 0.532367 0.088327
C3    C     C_R   0.619068 0.132742 0.634612 -0.176308
C4    C     C_R   0.365819 0.501648 0.498770 0.874473
C5    C     C_R   0.674300 0.067689 0.697932 -0.128797
C6    C     C_R   0.674818 0.936716 0.695969 -0.128449
C7    C     C_R   0.620100 0.870325 0.630695 -0.181178
C8    C     C_R   0.563199 0.934824 0.567359 0.099846
C9    C     C_R   0.562669 0.066770 0.569343 0.102103
C10   C     C_R   0.506342 0.128408 0.501844 -0.115385
C11   C     C_R   0.453710 0.063708 0.429487 -0.189658
C12   C     C_R   0.290790 0.515671 0.500240 0.050791
C13   C     C_R   0.454126 0.935180 0.427756 -0.170021
C14   C     C_R   0.507314 0.871723 0.498271 -0.109145
C15   C     C_R   0.383013 0.401850 0.122848 0.334363
C16   C     C_R   0.502144 0.739318 0.499428 0.859086
C17   C     C_R   0.352444 0.290080 0.072538 0.364589
C18   C     C_R   0.363003 0.259871 0.938093 -0.346028
C19   C     C_R   0.408186 0.334925 0.861954 -0.229643
C20   C     C_R   0.452343 0.425365 0.926127 0.198774
C21   C     C_R   0.447280 0.438188 0.068066 0.002733
C22   C     C_R   0.549856 0.563311 0.073967 -0.067229
C23   C     C_R   0.931687 0.574598 0.541721 0.283236
C24   C     C_R   0.548309 0.567007 0.930652 -0.093376
C25   C     C_R   0.634646 0.501852 0.502262 0.819280
C26   C     C_R   0.251197 0.429073 0.573958 -0.156678
C27   C     C_R   0.180327 0.449561 0.590540 -0.129935
C28   C     C_R   0.148781 0.557211 0.533709 0.068037
C29   C     C_R   0.189064 0.645278 0.462253 -0.113028
C30   C     C_R   0.260364 0.625560 0.447795 -0.077973
C31   C     C_R   0.073353 0.572945 0.543062 0.303061
C32   C     C_R   0.819062 0.514289 0.643193 -0.159755
C33   C     C_R   0.747233 0.491985 0.631927 -0.211518
C34   C     C_R   0.710764 0.515965 0.509577 -0.024220
C35   C     C_R   0.746812 0.562724 0.398477 -0.190285
C36   C     C_R   0.818791 0.585897 0.410018 -0.153635
H1    H     H_    0.275357 0.346308 0.619219 0.135211
H2    H     H_    0.150090 0.380241 0.645829 0.162255
H3    H     H_    0.587429 0.622396 0.878785 0.134217
H4    H     H_    0.165668 0.729619 0.419264 0.163505
H5    H     H_    0.291865 0.696366 0.397429 0.168670
H6    H     H_    0.846159 0.494315 0.738546 0.154122
H7    H     H_    0.720254 0.456202 0.719126 0.152938
H8    H     H_    0.719298 0.583355 0.303687 0.148672
H9    H     H_    0.845881 0.620940 0.322698 0.154206
H10   H     H_    0.411603 0.113041 0.376291 0.213164
H11   H     H_    0.265202 0.485480 0.932473 0.364054
H12   H     H_    0.621732 0.234446 0.635720 0.149221
H13   H     H_    0.258539 0.194516 0.371484 0.379125
H14   H     H_    0.717188 0.119141 0.747435 0.142022
H15   H     H_    0.718107 0.886405 0.743923 0.142700
H16   H     H_    0.623543 0.768862 0.628581 0.143238
H17   H     H_    0.412006 0.884817 0.374087 0.189894
H18   H     H_    0.590415 0.615336 0.129449 0.132550
H19   H     H_    0.333560 0.183364 0.890737 0.218844
H20   H     H_    0.409042 0.316610 0.756619 0.224079
N1    N     N_R   0.036757 0.637268 0.445841 -0.150777
N2    N     N_R   0.966975 0.637837 0.445008 -0.165869
N3    N     N_R   0.968502 0.513758 0.641175 -0.166214
N4    N     N_R   0.038149 0.512653 0.641662 -0.158979
N5    N     N_R   0.499340 0.498800 0.142780 -0.104419
N6    N     N_R   0.499320 0.498720 0.857170 -0.099891
O1    O     O_R   0.500000 0.316780 0.614690 -0.646611
O2    O     O_2   0.356057 0.645193 0.175267 -0.268796
O3    O     O_3   0.296826 0.556743 0.958339 -0.519815
O4    O     O_2   0.217991 0.227647 0.105225 -0.247654
O5    O     O_2   0.305599 0.065726 0.155934 -0.294528
O6    O     O_3   0.294282 0.247728 0.326849 -0.586825
O7    O     O_R   0.499990 0.316750 0.385360 -0.612481
O8    O     O_R   0.398140 0.500000 0.614700 -0.626712
O9    O     O_R   0.398130 0.499970 0.385370 -0.555589
O10   O     O_R   0.500010 0.683250 0.614640 -0.605486
O11   O     O_R   0.500000 0.683220 0.385310 -0.594733
O12   O     O_R   0.601870 0.500030 0.614630 -0.640246
O13   O     O_R   0.601860 0.500000 0.385300 -0.623200
O14   O     O_2   0.258315 0.492867 0.197151 -0.247147
S1    S     S_3+6 0.322287 0.527194 0.119433 0.079526
S2    S     S_3+6 0.290292 0.203737 0.164696 0.040891
Zn1   Zn    Zn3+2 0.500000 0.500020 0.653130 0.954689
Zn2   Zn    Zn3+2 0.500000 0.499980 0.346870 1.003229

loop_
_geom_bond_atom_site_label_1
_geom_bond_atom_site_label_2
_ccdc_geom_bond_type
C19   H20   S    
C23   N2    A    
H13   O6    S    
O2    S1    D    
C35   C36   A    
C16   O10   A    
C11   H10   S    
C4    O8    A    
C7    C8    A    
C22   H18   S    
O1    Zn1   S    
C23   N3    A    
C26   C27   A    
C28   C29   A    
C7    H16   S    
C18   C19   A    
O10   Zn1   S    
C5    C6    A    
N5    Zn2   S    
C3    H12   S    
C24   H3    S    
C2    C32   A    
C34   C35   A    
C19   C20   A    
C8    C9    A    
C24   N6    A    
C30   H5    S    
C6    H15   S    
C4    C12   S    
C9    C10   A    
C21   N5    A    
C25   C34   S    
N3    N4    A    
C13   C14   A    
O5    S2    D    
C1    O1    A    
O9    Zn2   S    
C33   C34   A    
C13   H17   S    
O6    S2    S    
O4    S2    D    
O3    S1    S    
C16   O11   A    
C33   H7    S    
N6    Zn1   S    
O14   S1    D    
C1    O7    A    
C12   C26   A    
C25   O13   A    
C31   N4    A    
C29   C30   A    
C3    C9    A    
C17   C18   A    
C36   H9    S    
C35   H8    S    
C18   H19   S    
O12   Zn1   S    
C14   C16   S    
C5    H14   S    
C27   C28   A    
O13   Zn2   S    
C2    C36   A    
C15   C17   A    
C8    C14   A    
C12   C30   A    
O8    Zn1   S    
C28   C31   S    
C1    C10   S    
C3    C5    A    
C26   H1    S    
C6    C7    A    
C25   O12   A    
C32   C33   A    
C31   N1    A    
C22   N5    A    
C11   C13   A    
N1    N2    A    
C15   S1    S    
C29   H4    S    
C17   S2    S    
O11   Zn2   S    
C22   C24   A    
C20   N6    A    
C10   C11   A    
C15   C21   A    
C20   C21   A    
C2    C23   S    
C32   H6    S    
O7    Zn2   S    
C27   H2    S    
H11   O3    S    
C4    O9    A    
