data_mof_unit_63996.cif
_audit_creation_date              2012-12-10T19:39:34-0500
_audit_creation_method            fapswitch 2.2
_symmetry_space_group_name_H-M    P1
_symmetry_Int_Tables_number       1
_space_group_crystal_system       triclinic
_cell_length_a                    15.9465
_cell_length_b                    17.085018
_cell_length_c                    17.339096
_cell_angle_alpha                 87.28301
_cell_angle_beta                  96.251202
_cell_angle_gamma                 83.060509
_cell_volume                      4652.69579163

loop_
_atom_site_label
_atom_site_type_symbol
_atom_type_description
_atom_site_fract_x
_atom_site_fract_y
_atom_site_fract_z
_atom_type_partial_charge
C1    C     C_R   0.510791 0.348750 0.501597 0.839454
C2    C     C_R   0.489085 0.651540 0.501187 0.812367
C3    C     C_R   0.516739 0.262611 0.503885 -0.129751
C4    C     C_R   0.482309 0.738325 0.503208 -0.143100
C5    C     C_R   0.462753 0.226894 0.450948 -0.256519
C6    C     C_R   0.555653 0.775393 0.499009 -0.330796
C7    C     C_R   0.466579 0.144905 0.452941 -0.141471
C8    C     C_R   0.550952 0.857163 0.495428 -0.152546
C9    C     C_R   0.525072 0.097714 0.508004 0.304321
C10   C     C_R   0.472315 0.904115 0.496795 0.311951
C11   C     C_R   0.579121 0.133347 0.560211 -0.262664
C12   C     C_R   0.399388 0.867703 0.503012 -0.254460
C13   C     C_R   0.573055 0.215555 0.560677 0.466276
C14   C     C_R   0.403969 0.785307 0.508929 0.494621
C15   C     C_R   0.249891 0.448036 0.521724 0.493217
C16   C     C_R   0.746296 0.532486 0.453270 0.475962
C17   C     C_R   0.159809 0.448420 0.512266 0.248374
C18   C     C_R   0.836328 0.526660 0.451167 0.238766
C19   C     C_R   0.106859 0.516994 0.480440 0.116405
C20   C     C_R   0.892238 0.488646 0.514676 0.123230
C21   C     C_R   0.145493 0.578277 0.448449 0.077161
C22   C     C_R   0.855834 0.451715 0.574370 0.073279
C23   C     C_R   0.510697 0.502681 0.650156 0.804445
C24   C     C_R   0.489303 0.499396 0.349728 0.859034
C25   C     C_R   0.234966 0.571590 0.449563 0.304068
C26   C     C_R   0.767135 0.449250 0.568920 0.344575
C27   C     C_R   0.515707 0.512248 0.734088 -0.179342
C28   C     C_R   0.485628 0.495675 0.265335 -0.167416
C29   C     C_R   0.446155 0.497998 0.773005 -0.293871
C30   C     C_R   0.550417 0.524588 0.228554 -0.255241
C31   C     C_R   0.448900 0.505265 0.852247 -0.182943
C32   C     C_R   0.553898 0.517101 0.149989 -0.184966
C33   C     C_R   0.521561 0.526627 0.894579 0.031293
C34   C     C_R   0.492550 0.480349 0.106019 0.048820
C35   C     C_R   0.590897 0.544170 0.856289 0.208973
C36   C     C_R   0.428023 0.448987 0.142542 0.204708
C37   C     C_R   0.587472 0.538708 0.775530 0.459918
C38   C     C_R   0.422668 0.459071 0.222038 0.418411
C39   C     C_2   0.523602 0.531327 0.978750 -0.150052
C40   C     C_2   0.496259 0.474683 0.022123 -0.138740
Cu1   Cu    Cu3+1 0.585060 0.496170 0.503810 1.046794
Cu2   Cu    Cu3+1 0.414940 0.503830 0.496190 1.029682
H1    H     H_    0.389231 0.481004 0.742432 0.174358
H2    H     H_    0.599293 0.552695 0.260822 0.216535
H3    H     H_    0.473495 0.424382 0.994358 0.195802
H4    H     H_    0.546807 0.582370 0.004600 0.180008
H5    H     H_    0.606256 0.538616 0.124233 0.177734
H6    H     H_    0.393875 0.494136 0.880648 0.182384
H7    H     H_    0.617073 0.741286 0.498002 0.181425
H8    H     H_    0.418068 0.262528 0.407783 0.205446
H9    H     H_    0.608740 0.883501 0.490533 0.174959
H10   H     H_    0.424836 0.118449 0.411098 0.180799
H11   H     H_    0.623896 0.097110 0.602831 0.170087
H12   H     H_    0.338833 0.903503 0.504930 0.174203
N1    N     N_2   0.532141 0.014336 0.512432 -0.237319
N2    N     N_2   0.464261 0.987792 0.492026 -0.228864
N3    N     N_R   0.287170 0.509590 0.490460 -0.280584
N4    N     N_R   0.712830 0.490410 0.509540 -0.280856
N5    N     N_2   0.015181 0.523609 0.472039 -0.062239
N6    N     N_2   0.983978 0.483009 0.520953 -0.112619
O1    O     O_R   0.579730 0.382480 0.503570 -0.536851
O2    O     O_R   0.420270 0.617520 0.496430 -0.509275
O3    O     O_R   0.436070 0.388960 0.497130 -0.531364
O4    O     O_R   0.563930 0.611040 0.502870 -0.578503
O5    O     O_R   0.580160 0.496380 0.617190 -0.503671
O6    O     O_R   0.419840 0.503620 0.382810 -0.537881
O7    O     O_R   0.436500 0.502850 0.610750 -0.613064
O8    O     O_R   0.563500 0.497150 0.389250 -0.544665
O9    O     O_3   0.690763 0.575298 0.394975 -0.558683
C41   C     C_3   0.706654 0.654756 0.387818 -0.222919
H13   H     H_    0.645196 0.692314 0.370144 0.167143
H14   H     H_    0.747259 0.662741 0.340722 0.213201
H15   H     H_    0.735726 0.676611 0.442833 0.139696
O10   O     O_3   0.299395 0.379170 0.551747 -0.524918
C42   C     C_3   0.319005 0.381275 0.633075 -0.257695
H16   H     H_    0.388514 0.379342 0.647175 0.183450
H17   H     H_    0.303290 0.326610 0.661981 0.150753
H18   H     H_    0.285387 0.432645 0.659514 0.108968
O11   O     O_3   0.868452 0.559854 0.388187 -0.534598
C43   C     C_3   0.868105 0.505994 0.329040 -0.198095
H19   H     H_    0.907446 0.448830 0.349086 0.168121
H20   H     H_    0.896437 0.531426 0.279406 0.200994
H21   H     H_    0.802203 0.495941 0.307407 0.160874
O12   O     O_3   0.124760 0.378065 0.515958 -0.535392
C44   C     C_3   0.126937 0.348023 0.593328 -0.125141
H22   H     H_    0.067345 0.322053 0.598604 0.213914
H23   H     H_    0.132077 0.393176 0.637455 0.141651
H24   H     H_    0.178732 0.298310 0.605817 0.170673
Br1   Br    Br    0.073478 0.669329 0.398157 -0.349048
Br2   Br    Br    0.928651 0.405779 0.665395 -0.412085
Br3   Br    Br    0.278743 0.644768 0.381329 -0.382358
Br4   Br    Br    0.726546 0.383970 0.645784 -0.296723
O13   O     O_3   0.361454 0.426266 0.259124 -0.561579
C45   C     C_3   0.285255 0.479102 0.248566 -0.145624
H25   H     H_    0.296074 0.541963 0.253296 0.167918
H26   H     H_    0.245385 0.464495 0.294526 0.185756
H27   H     H_    0.248719 0.472392 0.191584 0.195436
O14   O     O_3   0.655678 0.556639 0.738110 -0.508703
C46   C     C_3   0.640319 0.636867 0.711037 -0.197109
H28   H     H_    0.580722 0.649735 0.670293 0.103265
H29   H     H_    0.693551 0.650606 0.678646 0.192867
H30   H     H_    0.637829 0.676321 0.760195 0.168578
Br5   Br    Br    0.692217 0.572444 0.913317 -0.448268
Br6   Br    Br    0.347907 0.390821 0.085637 -0.491167
O15   O     O_3   0.621493 0.249630 0.617412 -0.535333
C47   C     C_3   0.581055 0.248573 0.685887 -0.227311
H31   H     H_    0.579391 0.187084 0.709341 0.152107
H32   H     H_    0.515648 0.281139 0.676049 0.117884
H33   H     H_    0.617877 0.278701 0.730869 0.222249
O16   O     O_3   0.330726 0.751786 0.517556 -0.519331
C48   C     C_3   0.323659 0.741339 0.597623 -0.237560
H34   H     H_    0.315819 0.799095 0.624770 0.148796
H35   H     H_    0.379304 0.702220 0.628510 0.127043
H36   H     H_    0.266175 0.712302 0.604757 0.200087

loop_
_geom_bond_atom_site_label_1
_geom_bond_atom_site_label_2
_ccdc_geom_bond_type
N1    N2    D    
O13   C45   S    
C27   C29   A    
Cu1   Cu2   S    
C48   H34   S    
Cu1   O1    S    
C21   Br1   S    
C44   H22   S    
C33   C39   S    
C34   C40   S    
C35   C37   A    
C7    H10   S    
C35   Br5   S    
C47   H31   S    
C26   Br4   S    
C15   C17   A    
C23   O7    A    
O16   C48   S    
C33   C35   A    
C26   N4    A    
C18   O11   S    
C31   C33   A    
C41   H13   S    
C9    N1    S    
C23   C27   S    
C20   N6    S    
C10   N2    S    
Cu2   O2    S    
C18   C20   A    
C3    C13   A    
C24   O6    A    
N5    N6    D    
C29   H1    S    
C15   N3    A    
C30   H2    S    
C11   H11   S    
C45   H25   S    
C25   N3    A    
C43   H21   S    
C1    O3    A    
Cu2   N3    S    
C37   O14   S    
C2    O4    A    
Cu1   O8    S    
C44   H23   S    
C40   H3    S    
C25   Br3   S    
C13   O15   S    
O10   C42   S    
O12   C44   S    
C4    C6    A    
C39   C40   D    
C5    C7    A    
Cu1   O5    S    
C45   H27   S    
C19   N5    S    
C1    C3    S    
C32   C34   A    
C2    C4    S    
C42   H16   S    
C9    C11   A    
C46   H28   S    
C28   C38   A    
C46   H30   S    
C41   H15   S    
C22   Br2   S    
C48   H35   S    
C16   C18   A    
C16   N4    A    
C45   H26   S    
C42   H17   S    
C8    H9    S    
C10   C12   A    
C39   H4    S    
C43   H20   S    
C46   H29   S    
C12   C14   A    
C31   H6    S    
Cu2   O7    S    
C32   H5    S    
C5    H8    S    
C44   H24   S    
C14   O16   S    
C21   C25   A    
C19   C21   A    
C16   O9    S    
C24   C28   S    
C20   C22   A    
C43   H19   S    
C3    C5    A    
C1    O1    A    
Cu1   N4    S    
C6    C8    A    
O15   C47   S    
C36   Br6   S    
C17   O12   S    
C23   O5    A    
C36   C38   A    
C29   C31   A    
C30   C32   A    
C11   C13   A    
C47   H32   S    
C27   C37   A    
C38   O13   S    
C28   C30   A    
C17   C19   A    
C48   H36   S    
C34   C36   A    
C6    H7    S    
C4    C14   A    
O9    C41   S    
C42   H18   S    
C24   O8    A    
O11   C43   S    
C7    C9    A    
C15   O10   S    
C8    C10   A    
O14   C46   S    
C22   C26   A    
Cu2   O6    S    
C41   H14   S    
Cu1   O4    S    
Cu2   O3    S    
C12   H12   S    
C2    O2    A    
C47   H33   S    
