data_mof_unit_59860.cif
_audit_creation_date              2012-12-10T18:09:11-0500
_audit_creation_method            fapswitch 2.2
_symmetry_space_group_name_H-M    P1
_symmetry_Int_Tables_number       1
_space_group_crystal_system       triclinic
_cell_length_a                    12.753713
_cell_length_b                    13.114423
_cell_length_c                    13.64304
_cell_angle_alpha                 89.474875
_cell_angle_beta                  96.299103
_cell_angle_gamma                 98.081262
_cell_volume                      2245.55674532

loop_
_atom_site_label
_atom_site_type_symbol
_atom_type_description
_atom_site_fract_x
_atom_site_fract_y
_atom_site_fract_z
_atom_type_partial_charge
C1    C     C_R   0.559676 0.690946 0.513038 0.898636
C2    C     C_R   0.470214 0.035512 0.519789 0.073917
C3    C     C_R   0.376972 0.998251 0.564578 0.103402
C4    C     C_R   0.516947 0.497985 0.318668 0.880042
C5    C     C_R   0.368161 0.902385 0.609713 -0.352684
C6    C     C_R   0.447810 0.840400 0.606220 0.490184
C7    C     C_R   0.478682 0.134074 0.479930 -0.237056
C8    C     C_R   0.309632 0.160104 0.532680 -0.198770
C9    C     C_R   0.598708 0.800667 0.520582 -0.098791
C10   C     C_R   0.892448 0.360395 0.652872 0.430222
C11   C     C_R   0.212786 0.626361 0.381041 0.020803
C12   C     C_1   0.529381 0.501723 0.217856 -0.174024
C13   C     C_R   0.112621 0.654586 0.356190 -0.254900
C14   C     C_R   0.027005 0.607619 0.402795 -0.162472
C15   C     C_R   0.040842 0.531349 0.475273 -0.026959
C16   C     C_R   0.440357 0.308798 0.489453 0.859933
C17   C     C_R   0.144856 0.505300 0.499666 0.185717
C18   C     C_R   0.955321 0.480328 0.524181 -0.069321
C19   C     C_R   0.975090 0.410456 0.602039 0.004053
C20   C     C_R   0.076353 0.388631 0.626990 -0.351151
C21   C     C_R   0.159442 0.430168 0.574874 0.424191
C22   C     C_R   0.849576 0.494980 0.498936 -0.054698
C23   C     C_R   0.295564 0.059459 0.567203 -0.182519
C24   C     C_R   0.790973 0.382222 0.626032 -0.083063
C25   C     C_R   0.482843 0.501271 0.681263 0.915838
C26   C     C_1   0.470903 0.497542 0.782111 -0.164305
C27   C     C_2   0.458104 0.493334 0.970639 -0.228372
C28   C     C_2   0.548846 0.508165 0.029865 0.474232
C29   C     C_1   0.540836 0.505157 0.132697 -0.147668
C30   C     C_1   0.461805 0.494956 0.867698 0.077197
C31   C     C_3   0.483228 0.774353 0.760405 0.031765
C32   C     C_3   0.601941 0.763489 0.777878 -0.365036
C33   C     C_3   0.645479 0.783442 0.885660 -0.889967
C34   C     C_R   0.404595 0.198879 0.494478 -0.051990
C35   C     C_3   0.889440 0.194005 0.707963 0.054984
C36   C     C_3   0.774562 0.150439 0.724547 -0.353720
C37   C     C_3   0.760075 0.033551 0.734837 -0.939570
C38   C     C_R   0.695736 0.836917 0.484350 -0.209005
C39   C     C_R   0.723001 0.941170 0.467721 -0.164731
C40   C     C_R   0.650783 0.008740 0.480533 -0.150637
C41   C     C_R   0.551499 0.973126 0.515819 0.027180
C42   C     C_R   0.532556 0.870399 0.548115 -0.041339
H1    H     H_    0.725613 0.350608 0.666335 0.153715
H2    H     H_    0.223612 0.031283 0.600280 0.133586
H3    H     H_    0.545391 0.165165 0.441558 0.144818
H4    H     H_    0.748521 0.784212 0.464990 0.154928
H5    H     H_    0.676195 0.088321 0.464227 0.126120
H6    H     H_    0.798280 0.969151 0.440412 0.140754
H7    H     H_    0.702987 0.534684 0.049148 0.334562
H8    H     H_    0.439075 0.718014 0.807689 0.176270
H9    H     H_    0.470027 0.852137 0.784968 0.131166
H10   H     H_    0.614030 0.684800 0.756864 0.241868
H11   H     H_    0.647744 0.818993 0.731269 0.220857
H12   H     H_    0.090684 0.333288 0.684719 0.183900
H13   H     H_    0.638072 0.863417 0.907098 0.251219
H14   H     H_    0.730971 0.773359 0.896210 0.272717
H15   H     H_    0.601316 0.728398 0.934088 0.282649
H16   H     H_    0.945198 0.152908 0.756634 0.178809
H17   H     H_    0.904484 0.178239 0.630770 0.110515
H18   H     H_    0.753016 0.184577 0.792588 0.247501
H19   H     H_    0.719114 0.170513 0.661044 0.202720
H20   H     H_    0.786184 0.997175 0.670285 0.275130
H21   H     H_    0.674583 0.004979 0.739402 0.264649
H22   H     H_    0.807062 0.011095 0.803027 0.265738
H23   H     H_    0.824710 0.544731 0.440336 0.134678
H24   H     H_    0.253632 0.349059 0.655983 0.301235
H25   H     H_    0.279721 0.662687 0.345059 0.133924
H26   H     H_    0.951459 0.633802 0.381491 0.133639
H27   H     H_    0.101301 0.713047 0.301011 0.150510
H28   H     H_    0.381067 0.479783 0.999251 0.117559
H29   H     H_    0.249360 0.208453 0.541193 0.179361
H30   H     H_    0.300643 0.876040 0.649768 0.166259
N1    N     N_R   0.773270 0.445590 0.549770 -0.135135
N2    N     N_R   0.227520 0.553880 0.450750 -0.108438
O1    O     O_R   0.631100 0.627590 0.523760 -0.628495
O2    O     O_3   0.442940 0.750824 0.661025 -0.629387
O3    O     O_3   0.912314 0.299609 0.734527 -0.644809
O4    O     O_3   0.252601 0.391259 0.595153 -0.734649
O5    O     O_R   0.455900 0.662370 0.491970 -0.581246
O6    O     O_R   0.600200 0.480080 0.377830 -0.612097
O7    O     O_R   0.425000 0.514870 0.346040 -0.623162
O8    O     O_R   0.544100 0.337630 0.508030 -0.626310
O9    O     O_R   0.368900 0.372410 0.476240 -0.546497
O10   O     O_R   0.575000 0.485130 0.653960 -0.616464
O11   O     O_R   0.399800 0.519920 0.622170 -0.516914
O12   O     O_3   0.646408 0.525287 0.992653 -0.751795
Zn1   Zn    Zn3+2 0.616980 0.476780 0.521230 0.938493
Zn2   Zn    Zn3+2 0.383020 0.523220 0.478770 1.006001

loop_
_geom_bond_atom_site_label_1
_geom_bond_atom_site_label_2
_ccdc_geom_bond_type
C33   H13   S    
C15   C18   A    
C12   C29   T    
C40   H5    S    
C41   C42   A    
C3    C23   A    
C19   C20   A    
O10   Zn1   S    
C37   H20   S    
C9    C42   A    
C35   H16   S    
C7    H3    S    
C36   C37   S    
C4    O6    A    
C5    H30   S    
C5    C6    A    
C24   N1    A    
C2    C41   A    
O8    Zn1   S    
C8    C23   A    
C35   H17   S    
C18   C19   A    
C32   H10   S    
C16   C34   S    
N1    Zn1   S    
C4    O7    A    
C2    C7    A    
C21   O4    S    
C25   O10   A    
C4    C12   S    
C33   H14   S    
O9    Zn2   S    
C13   C14   A    
C27   C30   S    
C16   O8    A    
O5    Zn2   S    
C37   H21   S    
C10   O3    S    
C11   H25   S    
H24   O4    S    
C1    O1    A    
C1    C9    S    
C20   H12   S    
C39   C40   A    
C10   C24   A    
C25   C26   S    
C35   O3    S    
C16   O9    A    
C17   C21   A    
C23   H2    S    
C35   C36   S    
C22   H23   S    
C31   C32   S    
C10   C19   A    
C25   O11   A    
C8    C34   A    
C27   H28   S    
O1    Zn1   S    
C40   C41   A    
C26   C30   T    
C28   O12   S    
C17   N2    A    
C1    O5    A    
C7    C34   A    
C31   H8    S    
C36   H19   S    
C3    C5    A    
C32   H11   S    
C37   H22   S    
O11   Zn2   S    
C15   C17   A    
C28   C29   S    
C8    H29   S    
C33   H15   S    
C18   C22   A    
H7    O12   S    
C31   H9    S    
C36   H18   S    
C11   N2    A    
C6    O2    S    
O6    Zn1   S    
C32   C33   S    
C2    C3    A    
C11   C13   A    
C31   O2    S    
C38   C39   A    
C13   H27   S    
C9    C38   A    
C38   H4    S    
O7    Zn2   S    
C20   C21   A    
C6    C42   A    
C27   C28   D    
C24   H1    S    
C14   H26   S    
C14   C15   A    
C22   N1    A    
N2    Zn2   S    
C39   H6    S    
