data_mof_unit_37882.cif
_audit_creation_date              2012-10-26T18:47:34-0400
_audit_creation_method            fapswitch 2.2
_symmetry_space_group_name_H-M    P1
_symmetry_Int_Tables_number       1
_space_group_crystal_system       triclinic
_cell_length_a                    10.832401
_cell_length_b                    13.023081
_cell_length_c                    11.689255
_cell_angle_alpha                 99.725565
_cell_angle_beta                  94.99684
_cell_angle_gamma                 90.52757
_cell_volume                      1618.66066979

loop_
_atom_site_label
_atom_site_type_symbol
_atom_type_description
_atom_site_fract_x
_atom_site_fract_y
_atom_site_fract_z
_atom_type_partial_charge
C1    C     C_R   0.498847 0.299172 0.479413 0.592534
C2    C     C_R   0.436137 0.976033 0.635537 -0.098761
C3    C     C_R   0.554464 0.128407 0.373306 -0.148175
C4    C     C_R   0.448860 0.869711 0.627172 -0.139564
C5    C     C_R   0.472739 0.136974 0.562646 0.282422
C6    C     C_R   0.552002 0.863808 0.449094 0.286776
C7    C     C_R   0.481479 0.028381 0.551797 0.031373
C8    C     C_R   0.536340 0.971349 0.455761 0.041714
C9    C     C_R   0.383870 0.402403 0.017791 -0.152024
C10   C     C_R   0.614942 0.598895 0.982328 -0.129293
C11   C     C_R   0.395551 0.409322 0.139494 0.243976
C12   C     C_R   0.503792 0.700461 0.521147 0.578537
C13   C     C_R   0.605234 0.590149 0.860362 0.245435
C14   C     C_R   0.548977 0.543531 0.158710 0.053601
C15   C     C_R   0.448175 0.459117 0.841649 0.014669
C16   C     C_R   0.262098 0.502934 0.499247 0.574458
C17   C     C_R   0.737695 0.497043 0.500560 0.555685
C18   C     C_R   0.541003 0.536507 0.035710 0.002983
C19   C     C_R   0.456786 0.465676 0.964579 -0.011563
C20   C     C_R   0.196834 0.712421 0.221035 0.176057
C21   C     C_R   0.844263 0.233729 0.731319 0.143805
C22   C     C_R   0.150917 0.680253 0.319268 0.068694
C23   C     C_R   0.871444 0.496860 0.501725 0.029241
C24   C     C_R   0.874575 0.289824 0.643751 0.079256
C25   C     C_R   0.099232 0.579111 0.308893 0.020038
C26   C     C_R   0.898880 0.398152 0.672431 0.020225
C27   C     C_R   0.085580 0.514539 0.199870 -0.153834
C28   C     C_R   0.891898 0.449035 0.786834 -0.155838
C29   C     C_R   0.130394 0.546195 0.103043 -0.148241
C30   C     C_R   0.857471 0.394558 0.872169 -0.151491
C31   C     C_R   0.187287 0.645536 0.112341 0.301586
C32   C     C_R   0.836374 0.285633 0.846335 0.278736
C33   C     C_R   0.924137 0.537481 0.413404 -0.135121
C34   C     C_R   0.127933 0.503955 0.497609 0.032404
C35   C     C_R   0.074962 0.463505 0.585953 -0.124497
C36   C     C_3   0.172415 0.646503 0.912473 -0.086836
C37   C     C_3   0.865025 0.259539 0.038746 -0.082318
C38   C     C_3   0.734677 0.798445 0.392677 -0.104644
C39   C     C_3   0.511147 0.208231 0.755360 -0.092215
C40   C     C_R   0.947337 0.456756 0.587293 0.008435
C41   C     C_R   0.051533 0.540279 0.409039 0.012198
C42   C     C_R   0.503858 0.813086 0.533386 0.039274
C43   C     C_R   0.506054 0.186320 0.470626 0.038691
C44   C     C_R   0.572253 0.022344 0.367115 -0.086762
Cu1   Cu    Cu3+1 0.509250 0.507730 0.615930 0.999193
Cu2   Cu    Cu3+1 0.490750 0.492270 0.384070 1.018344
H1    H     H_    0.381561 0.405746 0.787114 0.144962
H2    H     H_    0.133142 0.431999 0.651435 0.133907
H3    H     H_    0.410971 0.830954 0.691887 0.167202
H4    H     H_    0.582608 0.165957 0.303468 0.162875
H5    H     H_    0.612600 0.980293 0.291880 0.185848
H6    H     H_    0.388892 0.016532 0.707185 0.178073
H7    H     H_    0.202347 0.695140 0.850135 0.175818
H8    H     H_    0.071396 0.658357 0.918820 0.122048
H9    H     H_    0.191174 0.564337 0.875884 0.104164
H10   H     H_    0.821428 0.328447 0.087413 0.109615
H11   H     H_    0.965408 0.275159 0.032869 0.130998
H12   H     H_    0.613468 0.598737 0.213423 0.144124
H13   H     H_    0.858591 0.195454 0.089709 0.182725
H14   H     H_    0.747352 0.752997 0.465213 0.137071
H15   H     H_    0.781919 0.876258 0.418498 0.167131
H16   H     H_    0.780424 0.755682 0.318169 0.136532
H17   H     H_    0.582397 0.267435 0.746753 0.163273
H18   H     H_    0.557613 0.135507 0.770638 0.154740
H19   H     H_    0.464005 0.236797 0.834559 0.138004
H20   H     H_    0.318373 0.346700 0.964925 0.112371
H21   H     H_    0.680170 0.654842 0.035209 0.120785
H22   H     H_    0.041868 0.438075 0.190388 0.137677
H23   H     H_    0.914405 0.531338 0.810232 0.139657
H24   H     H_    0.122579 0.491595 0.021940 0.110315
H25   H     H_    0.848830 0.437900 0.958436 0.108911
H26   H     H_    0.865738 0.567341 0.346846 0.115452
I1    I     I_    0.722829 0.696669 0.799177 -0.339080
I2    I     I_    0.280714 0.300343 0.199929 -0.326411
I3    I     I_    0.276748 0.863818 0.230462 -0.194294
I4    I     I_    0.817711 0.068537 0.695703 -0.284140
I5    I     I_    0.149160 0.784872 0.480573 -0.354943
I6    I     I_    0.890125 0.211836 0.469576 -0.348596
N1    N     N_R   0.523180 0.519350 0.790130 -0.229519
N2    N     N_R   0.476820 0.480650 0.209870 -0.229624
O1    O     O_R   0.506570 0.354460 0.582000 -0.485368
O2    O     O_3   0.799947 0.227889 0.928111 -0.552154
O3    O     O_3   0.608048 0.807690 0.356957 -0.568040
O4    O     O_3   0.421672 0.193524 0.657916 -0.568197
O5    O     O_R   0.493430 0.645540 0.418000 -0.461579
O6    O     O_R   0.490940 0.341410 0.386200 -0.486352
O7    O     O_R   0.509060 0.658590 0.613800 -0.490694
O8    O     O_R   0.327460 0.506540 0.597900 -0.520769
O9    O     O_R   0.672540 0.493460 0.402100 -0.528542
O10   O     O_R   0.311830 0.493480 0.402100 -0.471618
O11   O     O_R   0.688170 0.506520 0.597900 -0.481000
O12   O     O_3   0.242293 0.677997 0.020689 -0.532516

loop_
_geom_bond_atom_site_label_1
_geom_bond_atom_site_label_2
_ccdc_geom_bond_type
Cu2   N2    S    
C13   N1    A    
C16   O10   A    
C38   O3    S    
C27   C29   A    
C14   C18   A    
C2    C7    A    
C17   O11   A    
C15   H1    S    
C30   H25   S    
C7    C8    A    
Cu2   O9    S    
Cu1   Cu2   S    
C15   C19   A    
C39   H18   S    
C21   I4    S    
C3    C43   A    
C17   C23   S    
C12   O5    A    
Cu1   O7    S    
C24   C26   A    
C39   O4    S    
C18   C19   A    
C1    O1    A    
C23   C40   A    
C34   C35   A    
C9    H20   S    
C12   C42   S    
C36   H7    S    
C33   H26   S    
C16   C34   S    
C37   H10   S    
C1    C43   S    
C15   N1    A    
C28   H23   S    
C23   C33   A    
C22   C25   A    
C27   H22   S    
C14   N2    A    
C38   H15   S    
C36   O12   S    
C5    C43   A    
C39   H19   S    
C34   C41   A    
C35   H2    S    
C3    H4    S    
C9    C19   A    
C14   H12   S    
C21   C32   A    
C3    C44   A    
Cu1   O8    S    
C17   O9    A    
C25   C41   S    
C5    C7    A    
C5    O4    S    
C6    C8    A    
C10   H21   S    
C11   I2    S    
C20   I3    S    
C2    C4    A    
Cu1   N1    S    
C9    C11   A    
C37   H13   S    
C2    H6    S    
C38   H14   S    
C44   H5    S    
C24   I6    S    
C20   C22   A    
C37   O2    S    
C39   H17   S    
C29   H24   S    
C1    O6    A    
C6    O3    S    
C12   O7    A    
Cu1   O1    S    
C8    C44   A    
C22   I5    S    
C13   I1    S    
C10   C13   A    
Cu2   O10   S    
C25   C27   A    
C32   O2    S    
C26   C28   A    
C4    H3    S    
C33   C41   A    
Cu2   O5    S    
C28   C30   A    
C35   C40   A    
C29   C31   A    
C36   H9    S    
C30   C32   A    
C26   C40   S    
C4    C42   A    
C10   C18   A    
Cu1   O11   S    
C36   H8    S    
C11   N2    A    
C31   O12   S    
C6    C42   A    
C21   C24   A    
C16   O8    A    
Cu2   O6    S    
C37   H11   S    
C38   H16   S    
C20   C31   A    
