data_mof_unit_59577.cif
_audit_creation_date              2012-12-11T16:20:26-0500
_audit_creation_method            fapswitch 2.2
_symmetry_space_group_name_H-M    P1
_symmetry_Int_Tables_number       1
_space_group_crystal_system       triclinic
_cell_length_a                    6.916187
_cell_length_b                    34.329198
_cell_length_c                    38.344545
_cell_angle_alpha                 99.668772
_cell_angle_beta                  89.826637
_cell_angle_gamma                 90.287217
_cell_volume                      8974.57993968

loop_
_atom_site_label
_atom_site_type_symbol
_atom_type_description
_atom_site_fract_x
_atom_site_fract_y
_atom_site_fract_z
_atom_type_partial_charge
O1    O     O_R   0.494320 0.461440 0.460990 -0.534956
O2    O     O_R   0.821450 0.462560 0.532500 -0.545124
O3    O     O_R   0.994330 0.538560 0.539010 -0.535043
C1    C     C_R   0.652411 0.453481 0.543598 0.720804
O4    O     O_R   0.823870 0.456770 0.460860 -0.541197
O5    O     O_R   0.996760 0.532730 0.466860 -0.541654
C2    C     C_R   0.655005 0.446178 0.447905 0.729536
O6    O     O_R   0.491880 0.467270 0.533140 -0.538242
O7    O     O_3   0.661650 0.524930 0.502050 -0.368131
V1    V     V_3+5 0.935500 0.495380 0.499620 1.403900
O8    O     O_R   0.326630 0.537440 0.467500 -0.540238
C3    C     C_R   0.157977 0.545470 0.455628 0.724178
O9    O     O_R   0.324210 0.543230 0.539140 -0.542861
C4    C     C_R   0.155346 0.553899 0.552161 0.721253
V2    V     V_3+5 0.435810 0.504620 0.500380 1.414166
O10   O     O_3   0.159790 0.475070 0.497950 -0.368079
C5    C     C_R   0.924727 0.826389 0.796432 0.554731
N1    N     N_R   0.039159 0.823772 0.825101 -0.539339
C6    C     C_R   0.163847 0.792924 0.824933 0.584792
C7    C     C_R   0.180324 0.763365 0.794917 -0.019910
C8    C     C_R   0.064040 0.765313 0.765080 -0.041583
C9    C     C_R   0.932042 0.796876 0.765584 -0.074089
C10   C     C_R   0.310348 0.731878 0.794180 -0.144449
C11   C     C_R   0.324629 0.702446 0.764394 -0.142746
C12   C     C_R   0.209930 0.703806 0.734474 -0.010824
C13   C     C_R   0.080002 0.735392 0.734750 -0.014653
C14   C     C_R   0.965567 0.736880 0.704795 -0.091019
C15   C     C_R   0.833052 0.767755 0.705493 -0.105506
C16   C     C_R   0.813877 0.797372 0.735204 0.189988
C17   C     C_R   0.221031 0.674124 0.704279 0.562625
N2    N     N_R   0.112545 0.676634 0.674847 -0.554392
C18   C     C_R   0.985831 0.707236 0.674725 0.582733
O11   O     O_2   0.806035 0.857636 0.798004 -0.538322
O12   O     O_2   0.271837 0.790884 0.853814 -0.530611
O13   O     O_2   0.337789 0.642807 0.704531 -0.528204
O14   O     O_2   0.880138 0.709108 0.645544 -0.518020
H1    H     H_    0.741797 0.769038 0.682787 0.184041
C19   C     C_R   0.970806 0.619876 0.635084 -0.094392
C20   C     C_R   0.979459 0.590322 0.605165 -0.186870
H2    H     H_    0.856738 0.570639 0.599159 0.141952
C21   C     C_R   0.145473 0.585820 0.583613 -0.119388
C22   C     C_R   0.301533 0.612066 0.592422 -0.159395
H3    H     H_    0.429910 0.609591 0.575943 0.152137
C23   C     C_R   0.292540 0.642287 0.622027 0.217476
C24   C     C_R   0.126507 0.646009 0.643989 0.325991
C25   C     C_R   0.879125 0.853933 0.881056 0.224543
C26   C     C_R   0.868838 0.884277 0.910749 -0.223695
H4    H     H_    0.753347 0.883969 0.929856 0.137807
C27   C     C_R   0.009066 0.914415 0.916371 -0.143403
C28   C     C_R   0.159130 0.914262 0.891595 -0.157446
H5    H     H_    0.267439 0.937506 0.895275 0.153503
C29   C     C_R   0.168429 0.884995 0.861394 0.175077
C30   C     C_R   0.029025 0.854349 0.856049 0.334397
C31   C     C_R   0.888805 0.850530 0.171922 0.586033
O15   O     O_2   0.735338 0.874539 0.171376 -0.523327
N3    N     N_R   0.035168 0.850585 0.147653 -0.555050
C32   C     C_R   0.192426 0.826437 0.148225 0.587835
C33   C     C_R   0.863172 0.875560 0.099088 -0.080933
C34   C     C_R   0.852639 0.900951 0.074117 -0.203078
C35   C     C_R   0.167791 0.927688 0.092470 -0.200173
C36   C     C_R   0.176255 0.902961 0.117941 -0.082949
C37   C     C_R   0.024667 0.876441 0.121435 0.350935
C38   C     C_R   0.062112 0.802299 0.199763 -0.047584
C39   C     C_R   0.898396 0.826000 0.197895 -0.038458
C40   C     C_R   0.745446 0.823917 0.221350 -0.150505
C41   C     C_R   0.209268 0.802260 0.174361 -0.029529
C42   C     C_R   0.005458 0.927140 0.070382 -0.057138
H6    H     H_    0.301175 0.904546 0.135089 0.158761
C43   C     C_R   0.148818 0.572257 0.428826 -0.120475
C44   C     C_R   0.948983 0.757359 0.280903 0.001571
C45   C     C_R   0.252409 0.728820 0.253738 0.055355
C46   C     C_R   0.105279 0.730467 0.280099 0.013923
C47   C     C_R   0.824590 0.762566 0.311072 0.133212
C48   C     C_R   0.829723 0.735929 0.335453 0.174306
C49   C     C_R   0.974844 0.706762 0.332903 -0.081503
C50   C     C_R   0.116524 0.705225 0.306087 -0.112573
C51   C     C_R   0.270208 0.678178 0.305192 -0.023001
C52   C     C_R   0.275998 0.652055 0.329761 0.596064
N4    N     N_R   0.134954 0.652943 0.354913 -0.549256
C53   C     C_R   0.987965 0.679890 0.357294 0.682554
C54   C     C_R   0.290391 0.626949 0.404102 -0.151366
C55   C     C_R   0.295125 0.600783 0.428347 -0.233589
C56   C     C_R   0.998251 0.569683 0.403290 0.111897
C57   C     C_R   0.996045 0.595918 0.378593 0.237459
C58   C     C_R   0.140682 0.625037 0.379322 0.327594
O16   O     O_2   0.856139 0.680660 0.383392 -0.492066
C59   C     C_R   0.927811 0.779042 0.252302 0.058018
C60   C     C_R   0.077583 0.778396 0.226757 0.052103
C61   C     C_R   0.240779 0.753645 0.227473 0.028037
C62   C     C_R   0.756942 0.799804 0.247015 -0.133115
H7    H     H_    0.403078 0.649080 0.404763 0.174476
H8    H     H_    0.624914 0.796446 0.261147 0.170969
O17   O     O_2   0.331681 0.825414 0.123360 -0.527364
C63   C     C_R   0.369353 0.777859 0.175329 -0.131757
H9    H     H_    0.726065 0.899692 0.057396 0.139966
H10   H     H_    0.745420 0.855106 0.100972 0.166226
H11   H     H_    0.485034 0.777154 0.156113 0.170339
C64   C     C_R   0.407558 0.702299 0.254712 -0.179397
C65   C     C_R   0.415346 0.677504 0.279739 -0.123913
O18   O     O_2   0.420321 0.625508 0.328152 -0.519823
C66   C     C_R   0.384814 0.753995 0.201130 -0.192420
H12   H     H_    0.525875 0.699369 0.236216 0.122419
C67   C     C_R   0.554791 0.312068 0.638522 0.572753
O19   O     O_2   0.520451 0.297538 0.604158 -0.515458
N5    N     N_R   0.594581 0.351378 0.648540 -0.566094
C68   C     C_R   0.630312 0.367017 0.683182 0.606954
C69   C     C_R   0.454329 0.401812 0.616545 0.242014
C70   C     C_R   0.472680 0.426376 0.590985 -0.177508
C71   C     C_R   0.792693 0.399856 0.575275 0.167490
C72   C     C_R   0.773496 0.375540 0.600997 -0.065594
C73   C     C_R   0.606961 0.376460 0.621913 0.265154
C74   C     C_R   0.583734 0.301985 0.699709 -0.097378
C75   C     C_R   0.549964 0.286685 0.663746 -0.025030
C76   C     C_R   0.511646 0.246374 0.653593 -0.120830
C77   C     C_R   0.623370 0.342801 0.709769 -0.038912
C78   C     C_R   0.640988 0.426195 0.570114 -0.173932
H13   H     H_    0.889608 0.355624 0.604815 0.148012
C79   C     C_R   0.512120 0.073210 0.929780 -0.117747
C80   C     C_R   0.554558 0.209252 0.740003 0.032722
C81   C     C_R   0.587739 0.266820 0.787632 0.048299
C82   C     C_R   0.568490 0.225380 0.776524 0.065111
C83   C     C_R   0.548947 0.167600 0.730252 -0.174660
C84   C     C_R   0.548593 0.142859 0.755536 -0.125583
C85   C     C_R   0.552903 0.158509 0.791605 -0.034477
C86   C     C_R   0.562827 0.199773 0.802227 -0.045625
C87   C     C_R   0.567091 0.215365 0.838608 -0.034236
C88   C     C_R   0.557442 0.189590 0.863575 0.570381
N6    N     N_R   0.546729 0.149551 0.852669 -0.557569
C89   C     C_R   0.547954 0.133730 0.817409 0.570191
C90   C     C_R   0.355465 0.106157 0.885674 0.233828
C91   C     C_R   0.345834 0.081333 0.911195 -0.156838
C92   C     C_R   0.688260 0.091047 0.922721 -0.188613
C93   C     C_R   0.697782 0.116332 0.897714 -0.100322
C94   C     C_R   0.533213 0.123726 0.878686 0.333560
O20   O     O_2   0.544206 0.094137 0.807322 -0.519070
C95   C     C_R   0.548373 0.235073 0.714527 0.045354
C96   C     C_R   0.578531 0.276338 0.725441 0.065331
C97   C     C_R   0.603822 0.292121 0.761777 0.011456
C98   C     C_R   0.511062 0.221081 0.678340 -0.174551
H14   H     H_    0.208152 0.068055 0.916139 0.143439
H15   H     H_    0.476171 0.190676 0.668254 0.124433
O21   O     O_2   0.673497 0.405803 0.691635 -0.486379
C99   C     C_R   0.656935 0.357855 0.745835 0.216396
H16   H     H_    0.354720 0.446094 0.587781 0.151519
C100  C     C_R   0.588489 0.281499 0.824441 -0.175217
C101  C     C_R   0.578265 0.256281 0.849292 -0.128783
O22   O     O_2   0.557608 0.204458 0.898460 -0.519194
C102  C     C_R   0.646721 0.332799 0.771037 -0.234496
H17   H     H_    0.591817 0.312579 0.835105 0.124668
H18   H     H_    0.678673 0.346245 0.797849 0.124149
C103  C     C_R   0.668875 0.172031 0.202016 0.575055
N7    N     N_R   0.543064 0.176448 0.175272 -0.554110
C104  C     C_R   0.429176 0.209515 0.177772 0.576726
C105  C     C_R   0.438565 0.239416 0.207838 -0.026662
C106  C     C_R   0.568326 0.235342 0.235202 -0.019517
C107  C     C_R   0.685026 0.201467 0.232306 -0.025067
C108  C     C_R   0.322304 0.273349 0.211077 -0.139493
C109  C     C_R   0.335689 0.302882 0.240929 -0.147484
C110  C     C_R   0.465446 0.299213 0.268338 -0.024057
C111  C     C_R   0.581519 0.265225 0.265526 -0.014680
C112  C     C_R   0.710880 0.261067 0.292956 -0.024350
C113  C     C_R   0.827155 0.227166 0.289722 -0.144378
C114  C     C_R   0.814482 0.197756 0.259774 -0.141198
C115  C     C_R   0.482554 0.328724 0.298537 0.554596
N8    N     N_R   0.607587 0.324083 0.325235 -0.557071
C116  C     C_R   0.720262 0.290970 0.322988 0.554517
O23   O     O_2   0.776772 0.139046 0.199580 -0.527795
O24   O     O_2   0.308813 0.213806 0.151070 -0.525006
H19   H     H_    0.220698 0.277255 0.190520 0.171586
O25   O     O_2   0.375422 0.361822 0.301160 -0.522335
O26   O     O_2   0.840825 0.286961 0.349738 -0.524521
C117  C     C_R   0.480501 0.356799 0.383388 0.209706
C118  C     C_R   0.491714 0.386946 0.412927 -0.154386
H20   H     H_    0.382321 0.388491 0.433405 0.156317
C119  C     C_R   0.644737 0.414350 0.416617 -0.172030
C120  C     C_R   0.786097 0.411549 0.389961 -0.147895
C121  C     C_R   0.773319 0.382438 0.359638 0.209658
C122  C     C_R   0.620623 0.354529 0.356211 0.282365
C123  C     C_R   0.696716 0.134677 0.123636 -0.083210
H21   H     H_    0.834250 0.148992 0.130768 0.140176
C124  C     C_R   0.686300 0.104853 0.093890 -0.198282
H22   H     H_    0.816989 0.096751 0.078838 0.134397
C125  C     C_R   0.509300 0.085994 0.083576 -0.057200
C126  C     C_R   0.343123 0.097727 0.103878 -0.198966
H23   H     H_    0.204725 0.083731 0.096866 0.131252
C127  C     C_R   0.354268 0.127206 0.133918 -0.082175
C128  C     C_R   0.531159 0.146030 0.144116 0.365866
O27   O     O_R   0.662230 0.032770 0.966890 -0.537534
O28   O     O_R   0.330090 0.043230 0.039150 -0.541734
O29   O     O_R   0.157350 0.967260 0.033130 -0.538873
C129  C     C_R   0.498968 0.053974 0.052165 0.708109
O30   O     O_R   0.332650 0.037450 0.967510 -0.544234
O31   O     O_R   0.159930 0.961430 0.960980 -0.538701
C130  C     C_R   0.501834 0.046110 0.956177 0.723494
O32   O     O_R   0.659640 0.038600 0.039040 -0.539238
O33   O     O_3   0.492510 0.975090 0.997960 -0.365801
V3    V     V_3+5 0.218600 0.004620 0.000380 1.414024
O34   O     O_R   0.830050 0.956730 0.960830 -0.538113
C131  C     C_R   0.998950 0.946141 0.947842 0.732166
O35   O     O_R   0.827490 0.962520 0.032470 -0.542052
C132  C     C_R   0.996011 0.953982 0.043851 0.707368
V4    V     V_3+5 0.718310 0.995320 0.999580 1.420676
O36   O     O_3   0.994270 0.024900 0.002040 -0.369870
H24   H     H_    0.401619 0.729808 0.816694 0.175124
N9    N     N_3   0.318778 0.887312 0.836054 -0.629721
H25   H     H_    0.400698 0.861519 0.833431 0.251951
H26   H     H_    0.254481 0.888536 0.811623 0.251367
H27   H     H_    0.287214 0.947733 0.090464 0.134711
H28   H     H_    0.612778 0.840023 0.219293 0.175186
H29   H     H_    0.412423 0.603357 0.447264 0.155153
N10   N     N_3   0.688577 0.739239 0.363361 -0.591006
H30   H     H_    0.700307 0.767004 0.379267 0.234433
H31   H     H_    0.550508 0.736000 0.352199 0.229099
N11   N     N_3   0.708312 0.797441 0.319463 -0.680068
H32   H     H_    0.563773 0.789255 0.321958 0.229014
H33   H     H_    0.755209 0.813797 0.343441 0.243572
H34   H     H_    0.426256 0.678646 0.764897 0.172441
N12   N     N_3   0.849102 0.540149 0.401021 -0.670364
H35   H     H_    0.912634 0.512358 0.399617 0.230182
H36   H     H_    0.761130 0.546102 0.423463 0.250900
H37   H     H_    0.536748 0.657530 0.278908 0.172153
N13   N     N_3   0.847058 0.593053 0.352364 -0.600504
H38   H     H_    0.851631 0.564768 0.337185 0.257794
H39   H     H_    0.713574 0.596386 0.365369 0.287747
H40   H     H_    0.514024 0.736502 0.199688 0.129210
N14   N     N_3   0.966070 0.396195 0.554472 -0.635126
H41   H     H_    0.929129 0.390410 0.527675 0.240946
H42   H     H_    0.044075 0.422627 0.559945 0.248561
H43   H     H_    0.482298 0.233997 0.626222 0.171156
N15   N     N_3   0.182705 0.113626 0.867490 -0.679481
H44   H     H_    0.201169 0.103032 0.840530 0.267831
H45   H     H_    0.162705 0.144198 0.870781 0.232413
H46   H     H_    0.543876 0.111211 0.746580 0.172132
H47   H     H_    0.549222 0.152974 0.703110 0.125707
N16   N     N_3   0.278590 0.402753 0.636502 -0.641741
H48   H     H_    0.311318 0.411383 0.663273 0.264497
H49   H     H_    0.221537 0.374110 0.633086 0.238501
N17   N     N_3   0.701822 0.398782 0.757511 -0.578392
H50   H     H_    0.597630 0.410586 0.776084 0.232752
H51   H     H_    0.836013 0.400622 0.770192 0.232581
N18   N     N_3   0.670989 0.827022 0.733315 -0.643907
H52   H     H_    0.570485 0.826875 0.753716 0.263342
H53   H     H_    0.738731 0.854598 0.735487 0.281250
H54   H     H_    0.818632 0.085776 0.936763 0.144673
H55   H     H_    0.578934 0.269147 0.877098 0.171671
H56   H     H_    0.833429 0.130348 0.893114 0.158456
H57   H     H_    0.243952 0.328591 0.242442 0.170065
H58   H     H_    0.928471 0.223235 0.310318 0.171101
H59   H     H_    0.906511 0.172090 0.258247 0.171092
N19   N     N_3   0.327191 0.328367 0.381724 -0.624009
H60   H     H_    0.388632 0.300277 0.379318 0.251763
H61   H     H_    0.245808 0.329407 0.359019 0.264100
H62   H     H_    0.842131 0.622520 0.651460 0.146042
H63   H     H_    0.903996 0.432730 0.392222 0.146615
N20   N     N_3   0.914330 0.382262 0.332194 -0.618586
H64   H     H_    0.983474 0.354902 0.328043 0.260970
H65   H     H_    0.841976 0.385255 0.308899 0.248462
H66   H     H_    0.225035 0.135215 0.149435 0.144921
N21   N     N_3   0.450750 0.669596 0.628544 -0.625197
H67   H     H_    0.396739 0.698226 0.630080 0.250272
H68   H     H_    0.512784 0.667200 0.652870 0.266478
N22   N     N_3   0.741084 0.822075 0.876479 -0.616602
H69   H     H_    0.659033 0.824150 0.854057 0.257430
H70   H     H_    0.644457 0.825207 0.897781 0.248172

loop_
_geom_bond_atom_site_label_1
_geom_bond_atom_site_label_2
_ccdc_geom_bond_type
C33   C37   A    
C3    C43   S    
C65   H37   S    
C108  C109  A    
C9    C16   A    
C38   C60   A    
C21   C22   A    
C31   O15   S    
N5    C68   A    
C115  O25   S    
C6    C7    A    
N4    C58   S    
C32   C41   A    
C46   C50   A    
N6    C89   A    
C76   H43   S    
N20   H65   S    
C100  C101  A    
C87   C101  A    
N16   H48   S    
C84   C85   A    
C26   C27   A    
O32   V4    S    
C51   C52   A    
C126  H23   S    
C101  H55   S    
O8    C3    A    
C13   C14   A    
N8    C116  A    
C34   H9    S    
C17   O13   S    
C69   N16   S    
C56   C57   A    
C43   C56   A    
C18   O14   S    
C15   C16   A    
C67   C75   A    
C117  C118  A    
C102  H18   S    
N1    C6    A    
N7    C128  S    
O5    C3    A    
C17   N2    A    
N11   H33   S    
C123  C128  A    
C90   N15   S    
N19   H61   S    
V2    O10   S    
N17   H51   S    
C124  H22   S    
N20   H64   S    
N3    C32   A    
C66   H40   S    
N18   H52   S    
C47   C48   A    
C117  N19   S    
O28   C129  A    
C33   H10   S    
C72   C73   A    
C19   C24   A    
C53   O16   S    
C79   C91   A    
N1    C30   S    
C108  H19   S    
C89   O20   S    
C10   H24   S    
O8    V2    S    
C92   H54   S    
C84   H46   S    
C110  C111  A    
C107  C114  A    
C97   C102  A    
C92   C93   A    
C2    C119  S    
O34   V4    S    
C28   C29   A    
C69   C70   A    
C35   C42   A    
C68   O21   S    
O34   C131  A    
C43   C55   A    
O7    V1    S    
C40   H28   S    
C112  C116  A    
C71   C78   A    
N4    C53   A    
C1    O6    A    
C93   H56   S    
C41   C63   A    
C57   N13   S    
C34   C42   A    
C11   H34   S    
C118  C119  A    
N5    C73   S    
C38   C41   A    
O27   C130  A    
C81   C100  A    
C104  C105  A    
C32   O17   S    
O9    C4    A    
C123  C124  A    
C113  H58   S    
N8    C122  S    
N16   H49   S    
C99   N17   S    
C90   C94   A    
C5    O11   S    
C95   C98   A    
C44   C59   A    
C72   H13   S    
O4    V1    S    
C74   C75   A    
C8    C13   A    
C54   C58   A    
C112  C113  A    
N14   H41   S    
C77   C99   A    
C50   C51   A    
N9    H26   S    
C40   C62   A    
C121  N20   S    
C45   C64   A    
C31   N3    A    
C106  C107  A    
V4    O36   S    
C29   N9    S    
C26   H4    S    
C114  H59   S    
C19   C20   A    
C57   C58   A    
C63   C66   A    
C105  C108  A    
C20   C21   A    
C48   C49   A    
C124  C125  A    
C20   H2    S    
O4    C2    A    
C56   N12   S    
C52   N4    A    
C35   H27   S    
N22   H70   S    
C91   H14   S    
C63   H11   S    
C28   H5    S    
C12   C13   A    
C64   H12   S    
C120  H63   S    
N15   H44   S    
C54   C55   A    
C123  H21   S    
C125  C129  S    
C35   C36   A    
N18   H53   S    
O30   C130  A    
C109  C110  A    
N17   H50   S    
O2    C1    A    
C49   C50   A    
C125  C126  A    
C82   C86   A    
C42   C132  S    
N6    C94   S    
N12   H36   S    
N10   H30   S    
C45   C61   A    
C7    C10   A    
C103  N7    A    
O28   V3    S    
C19   H62   S    
C44   C47   A    
C5    N1    A    
C81   C82   A    
C67   N5    A    
C76   C98   A    
C11   C12   A    
N15   H45   S    
O3    C4    A    
C105  C106  A    
C75   C76   A    
C80   C82   A    
C106  C111  A    
C4    C21   S    
O1    V2    S    
O35   V4    S    
C120  C121  A    
C83   H47   S    
C121  C122  A    
O6    V2    S    
N14   H42   S    
O9    V2    S    
C104  O24   S    
C52   O18   S    
C86   C87   A    
C27   C28   A    
N3    C37   S    
C47   N11   S    
N13   H39   S    
C81   C97   A    
C109  H57   S    
O33   V4    S    
C88   N6    A    
O2    V1    S    
C70   H16   S    
C23   C24   A    
C113  C114  A    
C27   C131  S    
C80   C83   A    
C117  C122  A    
C12   C17   A    
N9    H25   S    
C25   C26   A    
C115  N8    A    
N10   H31   S    
C14   C18   A    
N11   H32   S    
C69   C73   A    
C74   C96   A    
C1    C78   S    
N2    C18   A    
C80   C95   A    
O33   V3    S    
N21   H68   S    
C6    O12   S    
C61   C66   A    
O5    V1    S    
C71   N14   S    
O29   C132  A    
N2    C24   S    
N22   H69   S    
C103  O23   S    
C25   N22   S    
C96   C97   A    
C68   C77   A    
C5    C9    A    
C48   N10   S    
C39   C40   A    
C70   C78   A    
C90   C91   A    
C33   C34   A    
C22   C23   A    
C45   C46   A    
O3    V1    S    
O31   C131  A    
C71   C72   A    
O30   V3    S    
C23   N21   S    
C98   H15   S    
C36   H6    S    
N12   H35   S    
C93   C94   A    
V1    O10   S    
C31   C39   A    
C15   H1    S    
O35   C132  A    
C87   C88   A    
O31   V3    S    
C127  H66   S    
C25   C30   A    
O27   V4    S    
C62   H8    S    
C126  C127  A    
C85   C89   A    
C51   C65   A    
C119  C120  A    
V3    O36   S    
O7    V2    S    
C36   C37   A    
C79   C130  S    
C111  C112  A    
C129  O32   A    
C99   C102  A    
N19   H60   S    
C79   C92   A    
C10   C11   A    
C118  H20   S    
C38   C39   A    
C54   H7    S    
C103  C107  A    
C116  O26   S    
C49   C53   A    
C60   C61   A    
C59   C60   A    
C7    C8    A    
C64   C65   A    
C22   H3    S    
C59   C62   A    
C88   O22   S    
C67   O19   S    
C83   C84   A    
C16   N18   S    
C110  C115  A    
C95   C96   A    
O1    C2    A    
C44   C46   A    
N7    C104  A    
C55   H29   S    
C127  C128  A    
C8    C9    A    
N13   H38   S    
C74   C77   A    
C100  H17   S    
N21   H67   S    
O29   V3    S    
C29   C30   A    
C85   C86   A    
C14   C15   A    
