data_mof_unit_54326.cif
_audit_creation_date              2012-12-10T20:40:01-0500
_audit_creation_method            fapswitch 2.2
_symmetry_space_group_name_H-M    P1
_symmetry_Int_Tables_number       1
_space_group_crystal_system       triclinic
_cell_length_a                    23.452709
_cell_length_b                    10.655023
_cell_length_c                    9.879359
_cell_angle_alpha                 89.46224
_cell_angle_beta                  89.426997
_cell_angle_gamma                 90.738959
_cell_volume                      2468.30413285

loop_
_atom_site_label
_atom_site_type_symbol
_atom_type_description
_atom_site_fract_x
_atom_site_fract_y
_atom_site_fract_z
_atom_type_partial_charge
C1    C     C_R   0.504131 0.260487 0.500479 0.891128
C2    C     C_R   0.968587 0.294493 0.427128 -0.199392
C3    C     C_R   0.027935 0.292197 0.425841 0.111482
C4    C     C_R   0.059363 0.399669 0.466244 0.004651
C5    C     C_R   0.030114 0.508641 0.508599 -0.099191
C6    C     C_R   0.060829 0.616916 0.549413 -0.094193
C7    C     C_R   0.030981 0.723605 0.594684 0.079154
C8    C     C_R   0.971240 0.722594 0.598550 0.400541
C9    C     C_R   0.119213 0.402445 0.465918 0.515214
C10   C     C_R   0.120741 0.613745 0.545141 0.543308
C11   C     C_R   0.237592 0.492470 0.625115 -0.097581
C12   C     C_R   0.389331 0.500495 0.500591 0.898668
C13   C     C_R   0.296735 0.490304 0.624308 -0.202646
C14   C     C_R   0.327090 0.502881 0.501657 -0.036571
C15   C     C_R   0.297435 0.518579 0.379966 -0.201401
C16   C     C_R   0.238268 0.520531 0.381024 -0.093870
C17   C     C_R   0.208494 0.507304 0.503525 0.312117
C18   C     C_R   0.761404 0.484134 0.619254 0.111174
C19   C     C_R   0.702276 0.481077 0.618672 -0.167253
C20   C     C_R   0.672788 0.502663 0.498335 -0.183738
C21   C     C_R   0.702895 0.527797 0.377686 -0.196167
C22   C     C_R   0.762171 0.532501 0.376146 0.514060
C23   C     C_R   0.501344 0.740113 0.499585 0.962363
C24   C     C_R   0.791596 0.510124 0.498154 0.139727
C25   C     C_R   0.504584 0.063137 0.622742 0.031737
C26   C     C_R   0.516124 0.129749 0.503512 -0.214205
C27   C     C_R   0.537848 0.065586 0.389213 0.435383
C28   C     C_R   0.532838 0.935556 0.387591 -0.213225
C29   C     C_R   0.510131 0.871915 0.500958 -0.163017
C30   C     C_R   0.501799 0.935592 0.621453 0.102380
C31   C     C_3   0.453560 0.929979 0.721662 0.253964
C32   C     C_3   0.456612 0.072493 0.723066 -0.493814
C33   C     C_R   0.473740 0.404934 0.072997 0.192562
C34   C     C_R   0.610621 0.500450 0.499368 0.887614
C35   C     C_R   0.530787 0.587472 0.068122 0.444916
C36   C     C_R   0.529942 0.587450 0.925026 -0.123958
C37   C     C_R   0.473605 0.405165 0.930495 0.200609
C38   C     C_3   0.411715 0.371747 0.927722 -0.508881
C39   C     C_3   0.412146 0.369953 0.081200 -0.471709
C40   C     C_R   0.880573 0.617442 0.537284 0.511921
C41   C     C_R   0.880120 0.404023 0.465747 0.511746
C42   C     C_R   0.939520 0.401858 0.467054 -0.005016
C43   C     C_R   0.970011 0.509445 0.508851 -0.068177
C44   C     C_R   0.940323 0.617634 0.549726 -0.143108
H1    H     H_    0.945388 0.211388 0.395334 0.201907
H2    H     H_    0.679501 0.460913 0.712515 0.192060
H3    H     H_    0.680428 0.545326 0.284214 0.198091
H4    H     H_    0.545490 0.885448 0.297508 0.219432
H5    H     H_    0.464949 0.883143 0.818787 0.112606
H6    H     H_    0.418487 0.119009 0.680334 0.219462
H7    H     H_    0.471332 0.110087 0.821467 0.182147
H8    H     H_    0.553460 0.658867 0.868386 0.176295
H9    H     H_    0.385699 0.448804 0.885626 0.211970
H10   H     H_    0.403490 0.277990 0.883375 0.203137
H11   H     H_    0.385776 0.444804 0.126377 0.208553
H12   H     H_    0.405199 0.274703 0.125673 0.218441
H13   H     H_    0.214267 0.482133 0.719821 0.137548
H14   H     H_    0.318473 0.478346 0.719321 0.151153
H15   H     H_    0.319780 0.530135 0.284294 0.152512
H16   H     H_    0.215472 0.532446 0.287067 0.137922
N1    N     N_R   0.852330 0.510796 0.499757 -0.368848
N2    N     N_R   0.147851 0.508014 0.504492 -0.371126
N3    N     N_R   0.499610 0.499140 0.142800 -0.173056
N4    N     N_R   0.499610 0.499180 0.857150 -0.149630
O1    O     O_R   0.500010 0.316790 0.614690 -0.606256
O2    O     O_2   0.850090 0.300821 0.429832 -0.529125
O3    O     O_2   0.149114 0.301017 0.428093 -0.517121
O4    O     O_2   0.152219 0.714948 0.580446 -0.517066
O5    O     O_R   0.500000 0.316760 0.385350 -0.602296
O6    O     O_R   0.416160 0.499980 0.614700 -0.613961
O7    O     O_R   0.416150 0.499940 0.385360 -0.622598
O8    O     O_R   0.500000 0.683240 0.614650 -0.615680
O9    O     O_R   0.499990 0.683210 0.385310 -0.633584
O10   O     O_R   0.583850 0.500060 0.614640 -0.619691
O11   O     O_R   0.583840 0.500020 0.385300 -0.657843
O12   O     O_2   0.850596 0.722646 0.559333 -0.507364
Zn1   Zn    Zn3+2 0.500000 0.500020 0.653130 0.962179
Zn2   Zn    Zn3+2 0.500000 0.499980 0.346870 0.961804
O13   O     O_3   0.789328 0.559094 0.254319 -0.734565
H17   H     H_    0.831013 0.564337 0.267790 0.344278
O14   O     O_3   0.561376 0.125208 0.277091 -0.733904
H18   H     H_    0.580400 0.203413 0.307478 0.345611
O15   O     O_3   0.403144 0.884488 0.663665 -0.730587
H19   H     H_    0.374006 0.885002 0.737117 0.343948
O16   O     O_3   0.563037 0.679764 0.127636 -0.774083
H20   H     H_    0.570667 0.653532 0.220988 0.377061
N5    N     N_3   0.055602 0.180121 0.382393 -0.366544
H21   H     H_    0.041607 0.106020 0.444902 0.193238
H22   H     H_    0.042592 0.160835 0.283727 0.194454
N6    N     N_3   0.061069 0.832744 0.641620 -0.352114
H23   H     H_    0.048465 0.910116 0.583952 0.217489
H24   H     H_    0.049428 0.847993 0.742530 0.214924
O17   O     O_3   0.944666 0.825107 0.653586 -0.727989
H25   H     H_    0.916829 0.792495 0.721857 0.366128
N7    N     N_3   0.790272 0.459544 0.743654 -0.422849
H26   H     H_    0.817193 0.383273 0.729310 0.211785
H27   H     H_    0.815393 0.537978 0.766900 0.212441

loop_
_geom_bond_atom_site_label_1
_geom_bond_atom_site_label_2
_ccdc_geom_bond_type
N5    H21   S    
O17   H25   S    
C35   O16   S    
C41   C42   A    
N7    H26   S    
C41   N1    A    
O14   H18   S    
C19   H2    S    
C7    C8    A    
O16   H20   S    
C26   C27   A    
C24   N1    S    
O15   H19   S    
C18   C24   A    
C5    C6    A    
C23   C29   S    
C28   C29   A    
C37   C38   S    
C23   O9    A    
C22   O13   S    
C16   H16   S    
C30   C31   S    
C15   C16   A    
C31   O15   S    
C18   C19   A    
N4    Zn1   S    
O8    Zn1   S    
C28   H4    S    
C35   C36   A    
C16   C17   A    
O10   Zn1   S    
C1    O1    A    
O9    Zn2   S    
C36   H8    S    
C34   O11   A    
C20   C34   S    
C25   C32   S    
C5    C43   A    
C21   C22   A    
O6    Zn1   S    
C18   N7    S    
O5    Zn2   S    
C10   N2    A    
C31   H5    S    
C2    H1    S    
C39   H11   S    
O1    Zn1   S    
C3    N5    S    
C9    N2    A    
C27   O14   S    
C13   H14   S    
C25   C26   A    
C7    N6    S    
C1    O5    A    
C40   N1    A    
C40   O12   S    
C43   C44   A    
C9    O3    S    
C32   H7    S    
C29   C30   A    
C17   N2    S    
N6    H24   S    
C39   H12   S    
C38   H10   S    
C33   N3    A    
C33   C39   S    
C32   H6    S    
C6    C7    A    
C11   H13   S    
C34   O10   A    
C12   O7    A    
C12   C14   S    
N5    H22   S    
C1    C26   S    
C22   C24   A    
C42   C43   A    
C3    C4    A    
C37   N4    A    
C25   C30   A    
C12   O6    A    
C11   C17   A    
C15   H15   S    
C23   O8    A    
C31   C32   S    
C8    O17   S    
C8    C44   A    
C4    C5    A    
C6    C10   A    
N7    H27   S    
C41   O2    S    
C10   O4    S    
C19   C20   A    
C2    C3    A    
C36   N4    A    
C11   C13   A    
N6    H23   S    
C38   C39   S    
C38   H9    S    
C2    C42   A    
O11   Zn2   S    
C33   C37   A    
O13   H17   S    
C40   C44   A    
C20   C21   A    
C27   C28   A    
C14   C15   A    
C35   N3    A    
C4    C9    A    
C13   C14   A    
O7    Zn2   S    
C21   H3    S    
N3    Zn2   S    
