data_mof_unit_48951.cif
_audit_creation_date              2012-12-10T18:33:44-0500
_audit_creation_method            fapswitch 2.2
_symmetry_space_group_name_H-M    P1
_symmetry_Int_Tables_number       1
_space_group_crystal_system       triclinic
_cell_length_a                    10.497417
_cell_length_b                    15.026972
_cell_length_c                    15.489272
_cell_angle_alpha                 82.124474
_cell_angle_beta                  89.835642
_cell_angle_gamma                 104.594614
_cell_volume                      2340.42135936

loop_
_atom_site_label
_atom_site_type_symbol
_atom_type_description
_atom_site_fract_x
_atom_site_fract_y
_atom_site_fract_z
_atom_type_partial_charge
C1    C     C_R   0.477851 0.441663 0.661949 0.850339
C2    C     C_R   0.425232 0.476339 0.048028 0.066511
C3    C     C_R   0.411884 0.381195 0.079314 -0.254425
C4    C     C_R   0.397951 0.594229 0.929889 -0.242598
C5    C     C_R   0.401249 0.316320 0.022369 -0.246045
C6    C     C_R   0.411233 0.659279 0.987160 -0.244168
C7    C     C_R   0.694574 0.842903 0.637365 -0.424308
C8    C     C_R   0.312308 0.158999 0.358374 -0.427951
C9    C     C_R   0.663389 0.753183 0.615011 0.639413
C10   C     C_R   0.342128 0.248325 0.381639 0.636740
C11   C     C_R   0.511491 0.793066 0.512258 -0.172416
C12   C     C_R   0.516678 0.558116 0.337933 0.856353
C13   C     C_R   0.479935 0.204673 0.492796 -0.170944
C14   C     C_R   0.538546 0.884571 0.532523 0.001185
C15   C     C_R   0.453408 0.113334 0.472148 0.001424
C16   C     C_R   0.742558 0.500990 0.500218 0.853149
C17   C     C_R   0.257257 0.498619 0.500843 0.850162
C18   C     C_R   0.631406 0.908093 0.597199 0.117640
C19   C     C_R   0.366250 0.091352 0.404034 0.120520
C20   C     C_R   0.478653 0.953205 0.490441 0.099278
C21   C     C_R   0.511488 0.044216 0.515299 0.098827
C22   C     C_R   0.603072 0.063579 0.581203 -0.242725
C23   C     C_R   0.432299 0.466771 0.810362 -0.294643
C24   C     C_R   0.388949 0.934353 0.423396 -0.240748
C25   C     C_R   0.662037 0.996784 0.620861 -0.189539
C26   C     C_R   0.334706 0.002419 0.380903 -0.187475
C27   C     C_3   0.933716 0.439146 0.568444 -0.171882
C28   C     C_3   0.065670 0.560097 0.434354 -0.191689
C29   C     C_3   0.050667 0.523085 0.577063 -0.166162
C30   C     C_3   0.948969 0.476044 0.425728 -0.178967
C31   C     C_3   0.121266 0.497014 0.501538 0.027068
C32   C     C_3   0.878282 0.502148 0.501116 0.033987
C33   C     C_3   0.006995 0.412962 0.493124 -0.153524
C34   C     C_R   0.493738 0.526969 0.187910 -0.236010
C35   C     C_3   0.992412 0.586195 0.509812 -0.127905
C36   C     C_R   0.449603 0.405520 0.754170 -0.057040
C37   C     C_R   0.506816 0.591511 0.245813 -0.062191
C38   C     C_R   0.416489 0.281584 0.875538 -0.209310
C39   C     C_R   0.462355 0.703836 0.130221 -0.210859
C40   C     C_R   0.437854 0.311978 0.786401 -0.198026
C41   C     C_R   0.492268 0.680762 0.216827 -0.205928
C42   C     C_3   0.162258 0.298758 0.327020 0.060035
C43   C     C_3   0.126301 0.300166 0.231323 -0.358793
C44   C     C_3   0.977655 0.281963 0.221796 -0.947095
C45   C     C_R   0.413421 0.438613 0.900090 0.096671
C46   C     C_3   0.720181 0.671027 0.740773 0.074367
C47   C     C_3   0.856860 0.698382 0.778317 -0.366081
C48   C     C_3   0.849501 0.675862 0.877640 -0.942202
C49   C     C_R   0.452056 0.545530 0.103628 0.081588
C50   C     C_R   0.408806 0.344873 0.932830 0.184436
C51   C     C_R   0.441761 0.636663 0.073435 0.178930
C52   C     C_R   0.410859 0.503229 0.958286 0.074633
H1    H     H_    0.096585 0.541821 0.638766 0.133889
H2    H     H_    0.124059 0.609002 0.379648 0.133578
H3    H     H_    0.015501 0.341737 0.488006 0.129724
H4    H     H_    0.982372 0.656724 0.516682 0.159194
H5    H     H_    0.393594 0.244377 0.048520 0.145264
H6    H     H_    0.400629 0.728187 0.963252 0.143756
H7    H     H_    0.516509 0.461745 0.210114 0.171929
H8    H     H_    0.441201 0.537956 0.783101 0.149112
H9    H     H_    0.501224 0.731642 0.261160 0.155845
H10   H     H_    0.448268 0.263105 0.743225 0.153661
H11   H     H_    0.411189 0.209584 0.900016 0.133631
H12   H     H_    0.903311 0.457174 0.363991 0.134666
H13   H     H_    0.452661 0.773345 0.108130 0.134471
H14   H     H_    0.407044 0.354561 0.147881 0.175060
H15   H     H_    0.373852 0.616491 0.864181 0.143374
H16   H     H_    0.732846 0.014959 0.670476 0.141865
H17   H     H_    0.267625 0.985250 0.329043 0.141469
H18   H     H_    0.128238 0.354691 0.352341 0.177131
H19   H     H_    0.107915 0.231929 0.366396 0.113594
H20   H     H_    0.174902 0.369307 0.194309 0.239640
H21   H     H_    0.162022 0.246521 0.202847 0.215025
H22   H     H_    0.926798 0.212440 0.256985 0.264772
H23   H     H_    0.543324 0.228146 0.543909 0.150010
H24   H     H_    0.954829 0.283957 0.151699 0.268452
H25   H     H_    0.940214 0.335997 0.248398 0.260278
H26   H     H_    0.680440 0.595116 0.759956 0.179457
H27   H     H_    0.651599 0.705106 0.770948 0.111494
H28   H     H_    0.921702 0.659919 0.751232 0.230516
H29   H     H_    0.901283 0.773892 0.759416 0.214464
H30   H     H_    0.786990 0.714900 0.906239 0.267632
H31   H     H_    0.949956 0.695987 0.903063 0.263613
H32   H     H_    0.807614 0.600212 0.898100 0.268108
H33   H     H_    0.441881 0.767942 0.464870 0.151728
H34   H     H_    0.768399 0.861945 0.684826 0.152784
H35   H     H_    0.249542 0.142956 0.304264 0.151714
H36   H     H_    0.633324 0.130297 0.603294 0.134695
H37   H     H_    0.359385 0.867813 0.400891 0.134194
H38   H     H_    0.875225 0.390249 0.623107 0.127854
N1    N     N_R   0.574200 0.731700 0.552740 -0.133869
N2    N     N_R   0.425800 0.268300 0.447260 -0.132395
O1    O     O_R   0.462600 0.383110 0.605620 -0.625984
O2    O     O_3   0.730619 0.688457 0.648396 -0.621960
O3    O     O_R   0.537400 0.616890 0.394380 -0.626549
O4    O     O_R   0.510210 0.531900 0.639510 -0.602415
O5    O     O_R   0.489790 0.468100 0.360490 -0.565296
O6    O     O_R   0.662240 0.425610 0.483080 -0.627878
O7    O     O_R   0.337760 0.574390 0.516920 -0.627999
O8    O     O_R   0.709860 0.574400 0.516970 -0.572549
O9    O     O_R   0.290140 0.425600 0.483030 -0.606726
O10   O     O_3   0.300924 0.319776 0.333072 -0.627877
Zn1   Zn    Zn3+2 0.468210 0.400660 0.477370 0.966016
Zn2   Zn    Zn3+2 0.531790 0.599340 0.522630 0.966227

loop_
_geom_bond_atom_site_label_1
_geom_bond_atom_site_label_2
_ccdc_geom_bond_type
C43   H21   S    
C39   C51   A    
C33   H3    S    
C43   H20   S    
C23   C45   A    
C30   H12   S    
C27   C29   S    
C34   C37   A    
C14   C18   A    
O8    Zn2   S    
N1    Zn2   S    
C24   H37   S    
C9    N1    A    
C39   C41   A    
C27   C33   S    
C15   C19   A    
C25   H16   S    
C4    C52   A    
C44   H25   S    
C38   C40   A    
C24   C26   A    
C46   H27   S    
C11   C14   A    
C7    H34   S    
O6    Zn1   S    
C42   H18   S    
C40   H10   S    
C27   H38   S    
C12   C37   S    
C44   H24   S    
C19   C26   A    
C6    H6    S    
C17   O9    A    
N2    Zn1   S    
C20   C24   A    
C28   C35   S    
C49   C51   A    
C22   C25   A    
C31   C33   S    
C12   O3    A    
C13   H23   S    
C22   H36   S    
C6    C51   A    
O7    Zn2   S    
C27   C32   S    
C10   N2    A    
O9    Zn1   S    
C21   C22   A    
C39   H13   S    
O1    Zn1   S    
C18   C25   A    
C47   H28   S    
C42   O10   S    
C23   H8    S    
C8    C19   A    
C32   C35   S    
C14   C20   A    
C10   O10   S    
C4    C6    A    
C46   H26   S    
C28   H2    S    
C16   O8    A    
C45   C52   A    
C41   H9    S    
C48   H32   S    
C43   C44   S    
C2    C49   A    
C47   C48   S    
C46   O2    S    
C36   C40   A    
C7    C18   A    
C44   H22   S    
C17   O7    A    
C12   O5    A    
O5    Zn1   S    
C2    C52   A    
C1    O1    A    
C13   C15   A    
C13   N2    A    
C34   H7    S    
C17   C31   S    
C5    C50   A    
C3    H14   S    
C42   C43   S    
O3    Zn2   S    
C38   H11   S    
C7    C9    A    
C46   C47   S    
C34   C49   A    
C30   C33   S    
C35   H4    S    
C28   C31   S    
C3    C5    A    
C4    H15   S    
C38   C50   A    
C16   C32   S    
C29   C35   S    
C48   H31   S    
C5    H5    S    
C8    H35   S    
O4    Zn2   S    
C2    C3    A    
C29   C31   S    
C30   C32   S    
C16   O6    A    
C29   H1    S    
C45   C50   A    
C11   H33   S    
C1    O4    A    
C28   C30   S    
C42   H19   S    
C48   H30   S    
C47   H29   S    
C37   C41   A    
C11   N1    A    
C15   C21   A    
C20   C21   A    
C8    C10   A    
C23   C36   A    
C26   H17   S    
C9    O2    S    
C1    C36   S    
