data_mof_unit_59339.cif
_audit_creation_date              2012-12-11T17:00:24-0500
_audit_creation_method            fapswitch 2.2
_symmetry_space_group_name_H-M    P1
_symmetry_Int_Tables_number       1
_space_group_crystal_system       triclinic
_cell_length_a                    6.944628
_cell_length_b                    13.502547
_cell_length_c                    20.2998
_cell_angle_alpha                 103.054801
_cell_angle_beta                  89.932537
_cell_angle_gamma                 90.601389
_cell_volume                      1854.21469539

loop_
_atom_site_label
_atom_site_type_symbol
_atom_type_description
_atom_site_fract_x
_atom_site_fract_y
_atom_site_fract_z
_atom_type_partial_charge
O1    O     O_R   0.506770 0.599700 0.449550 -0.539770
O2    O     O_R   0.179980 0.595740 0.587960 -0.547058
O3    O     O_R   0.004580 0.400300 0.550450 -0.539337
C1    C     C_R   0.348267 0.617466 0.615198 0.689858
O4    O     O_R   0.177380 0.611700 0.452380 -0.531467
O5    O     O_R   0.001970 0.416370 0.413900 -0.535493
C2    C     C_R   0.346329 0.638083 0.435262 0.717309
O6    O     O_R   0.509390 0.583630 0.586100 -0.538112
O7    O     O_3   0.337530 0.435890 0.487530 -0.373890
V1    V     V_3+5 0.064660 0.511890 0.502310 1.420775
O8    O     O_R   0.671950 0.404260 0.412040 -0.543072
C3    C     C_R   0.840373 0.381767 0.385104 0.710816
O9    O     O_R   0.674540 0.388300 0.547620 -0.546524
C4    C     C_R   0.842449 0.362376 0.565465 0.690267
V2    V     V_3+5 0.564030 0.488110 0.497690 1.401572
O10   O     O_3   0.841030 0.564110 0.512470 -0.369090
C5    C     C_R   0.720697 0.118776 0.615630 -0.176938
H1    H     H_    0.684093 0.177467 0.527140 0.120006
H2    H     H_    0.693668 0.991957 0.698184 0.122815
H3    H     H_    0.651478 0.046998 0.592610 0.119212
C6    C     C_R   0.843847 0.282607 0.604422 -0.059227
C7    C     C_R   0.900121 0.317068 0.928108 -0.175596
C8    C     C_R   0.898032 0.393060 0.891883 -0.114867
C9    C     C_R   0.877127 0.367864 0.821783 -0.184518
C10   C     C_R   0.865457 0.265263 0.786106 0.075961
C11   C     C_R   0.842091 0.189295 0.824072 0.078586
C12   C     C_R   0.856871 0.236954 0.714068 0.039230
C13   C     C_R   0.775593 0.140530 0.683673 0.123714
C14   C     C_R   0.747682 0.067252 0.721724 -0.201280
C15   C     C_R   0.789867 0.089747 0.790414 -0.207522
C16   C     C_R   0.922411 0.300016 0.670570 0.056783
C17   C     C_R   0.742479 0.192200 0.577953 -0.206712
C18   C     C_R   0.866835 0.215620 0.895141 -0.074314
H4    H     H_    0.922523 0.337642 0.982327 0.115010
H5    H     H_    0.866301 0.429454 0.795928 0.108977
H6    H     H_    0.913102 0.471950 0.918223 0.120927
H7    H     H_    0.769760 0.030032 0.817537 0.118122
C19   C     C_R   0.692614 0.230885 0.211335 0.046437
C20   C     C_R   0.864044 0.184153 0.184171 -0.095034
C21   C     C_R   0.024453 0.194094 0.228121 -0.159720
H8    H     H_    0.157160 0.155035 0.211306 0.114737
C22   C     C_R   0.016658 0.256279 0.294120 -0.157955
H9    H     H_    0.143906 0.264050 0.325687 0.117674
C23   C     C_R   0.847529 0.309349 0.318314 -0.071924
C24   C     C_R   0.684221 0.289529 0.276980 0.036736
C25   C     C_3   0.542102 0.361137 0.259441 -0.381626
C26   C     C_3   0.550361 0.298260 0.186693 -0.026226
H10   H     H_    0.601649 0.439799 0.267639 0.180045
H11   H     H_    0.400669 0.355847 0.283974 0.175207
H12   H     H_    0.411445 0.258182 0.170883 0.157448
C27   C     C_R   0.497452 0.676840 0.730591 0.099192
C28   C     C_R   0.351398 0.683217 0.684394 -0.113532
C29   C     C_R   0.197038 0.749024 0.707987 -0.178044
H13   H     H_    0.079428 0.755641 0.674466 0.130037
C30   C     C_R   0.198679 0.812010 0.773613 -0.172096
H14   H     H_    0.083365 0.865614 0.788484 0.128458
C31   C     C_R   0.354884 0.811175 0.817578 -0.113411
C32   C     C_R   0.499724 0.739653 0.795333 0.099996
C33   C     C_3   0.712609 0.754261 0.793615 -0.396504
C34   C     C_3   0.709903 0.685550 0.723122 -0.405980
H15   H     H_    0.788160 0.720465 0.831390 0.170947
H16   H     H_    0.753083 0.834223 0.794105 0.164268
H17   H     H_    0.783292 0.611888 0.720193 0.161845
H18   H     H_    0.748952 0.725513 0.682696 0.169343
C35   C     C_R   0.323241 0.891174 0.388872 -0.158848
H19   H     H_    0.318164 0.841049 0.481904 0.102876
H20   H     H_    0.330209 0.017077 0.305939 0.117819
H21   H     H_    0.312749 0.970558 0.414543 0.111161
C36   C     C_R   0.352923 0.715895 0.395585 -0.056978
C37   C     C_R   0.343167 0.681688 0.069053 -0.243690
C38   C     C_R   0.307641 0.605621 0.103566 -0.138077
C39   C     C_R   0.290380 0.628367 0.173951 0.362265
C40   C     C_R   0.326105 0.729701 0.212096 0.002117
C41   C     C_R   0.344269 0.808339 0.175552 0.028116
C42   C     C_R   0.336665 0.757670 0.284474 0.095912
C43   C     C_R   0.329477 0.862210 0.317977 0.138208
C44   C     C_R   0.332719 0.937223 0.280732 -0.200853
C45   C     C_R   0.347049 0.910940 0.210857 -0.170968
C46   C     C_R   0.364161 0.686589 0.325028 -0.151347
C47   C     C_R   0.329055 0.817990 0.427341 -0.175752
C48   C     C_R   0.354329 0.783093 0.104026 -0.071888
H22   H     H_    0.399740 0.608634 0.303323 0.159094
H23   H     H_    0.350583 0.661950 0.014314 0.119929
H24   H     H_    0.283287 0.528602 0.074773 0.155680
H25   H     H_    0.356526 0.972270 0.184602 0.111019
O11   O     O_R   0.203450 0.916320 0.913910 -0.540261
O12   O     O_R   0.535520 0.888300 0.047620 -0.538639
O13   O     O_R   0.710860 0.083650 0.086100 -0.542292
C49   C     C_R   0.366225 0.861537 0.064463 0.706003
O14   O     O_R   0.532860 0.904250 0.912040 -0.543384
O15   O     O_R   0.708190 0.099710 0.949550 -0.545000
C50   C     C_R   0.364291 0.882524 0.884783 0.697256
O16   O     O_R   0.206120 0.900260 0.050460 -0.536954
O17   O     O_3   0.375280 0.064080 0.012470 -0.373929
V3    V     V_3+5 0.648180 0.988110 0.997690 1.405040
O18   O     O_R   0.038220 0.111740 0.952370 -0.537322
C51   C     C_R   0.870475 0.138082 0.935293 0.683289
O19   O     O_R   0.040880 0.095790 0.087940 -0.544134
C52   C     C_R   0.872276 0.118609 0.114854 0.699767
V4    V     V_3+5 0.148800 0.011950 0.002300 1.412886
O20   O     O_3   0.871820 0.935920 0.987530 -0.367886
C53   C     C_3   0.630583 0.359702 0.136783 -0.287222
C54   C     C_3   0.543947 0.322754 0.066472 -0.768218
H26   H     H_    0.384350 0.327516 0.068764 0.237330
H27   H     H_    0.596967 0.371247 0.032710 0.212293
H28   H     H_    0.585751 0.243230 0.045116 0.249571
H29   H     H_    0.592366 0.441190 0.154150 0.222563
H30   H     H_    0.790243 0.355767 0.133586 0.199947
Cl1   Cl    Cl    0.182199 0.530788 0.206909 -0.746588
C55   C     C_3   0.097503 0.370425 0.688416 -0.391748
C56   C     C_3   0.276646 0.323737 0.649930 -0.656092
H31   H     H_    0.317640 0.253961 0.666688 0.216725
H32   H     H_    0.252942 0.303065 0.594541 0.233727
H33   H     H_    0.398624 0.378913 0.660772 0.200430
H34   H     H_    0.067826 0.446169 0.678129 0.173714
H35   H     H_    0.139485 0.383410 0.742116 0.187859

loop_
_geom_bond_atom_site_label_1
_geom_bond_atom_site_label_2
_ccdc_geom_bond_type
C30   H14   S    
C31   C50   S    
C40   C41   A    
C56   H31   S    
H20   C44   S    
C1    O6    A    
O14   V3    S    
C44   C45   A    
C28   C29   A    
C6    C16   A    
C25   H11   S    
C35   C43   A    
C1    C28   S    
C34   H17   S    
C4    C6    S    
C13   C14   A    
O5    C3    A    
C19   C20   A    
V2    O10   S    
O19   C52   A    
C5    H3    S    
C37   C48   A    
C55   C56   S    
C19   C24   A    
C39   Cl1   S    
O14   C50   A    
O12   V3    S    
C8    C9    A    
C53   H30   S    
C37   C38   A    
O1    V2    S    
C54   H28   S    
O11   V4    S    
O7    V1    S    
C48   C49   S    
O8    V2    S    
C21   C22   A    
O13   V3    S    
C33   C34   S    
C35   C47   A    
O9    C4    A    
C40   C42   A    
C53   C54   S    
C22   C23   A    
C26   H12   S    
C29   C30   A    
C7    H4    S    
C6    C17   A    
C25   H10   S    
C33   H15   S    
C9    H5    S    
C12   C16   A    
C27   C28   A    
C9    C10   A    
C56   H32   S    
C20   C21   A    
O4    C2    A    
C10   C11   A    
C29   H13   S    
O15   C51   A    
C15   H7    S    
O2    C1    A    
C42   C43   A    
C2    C36   S    
C14   C15   A    
C11   C18   A    
C20   C52   S    
O9    V2    S    
O17   V4    S    
C35   H21   S    
O18   C51   A    
C53   H29   S    
C54   H27   S    
C27   C32   A    
C43   C44   A    
C37   H23   S    
O16   V4    S    
C19   C26   S    
O3    C4    A    
C45   H25   S    
C21   H8    S    
C11   C15   A    
O6    V2    S    
O19   V4    S    
C30   C31   A    
C36   C46   A    
H1    C17   S    
C22   H9    S    
C41   C48   A    
O2    V1    S    
C55   H35   S    
C12   C13   A    
C23   C24   A    
C38   H24   S    
C7    C18   A    
C25   C26   S    
C33   H16   S    
O1    C2    A    
C5    C13   A    
C39   C40   A    
O5    V1    S    
C46   H22   S    
O8    C3    A    
C10   C12   A    
H19   C47   S    
C34   H18   S    
O12   C49   A    
O7    V2    S    
O4    V1    S    
C3    C23   S    
O3    V1    S    
O11   C50   A    
C31   C32   A    
O18   V4    S    
V4    O20   S    
C16   C55   S    
C56   H33   S    
C18   C51   S    
C49   O16   A    
O17   V3    S    
C32   C33   S    
O13   C52   A    
O15   V3    S    
C24   C25   S    
C38   C39   A    
C8    H6    S    
C41   C45   A    
C54   H26   S    
C26   C53   S    
C5    C17   A    
C7    C8    A    
C36   C47   A    
V1    O10   S    
C27   C34   S    
C42   C46   A    
C55   H34   S    
V3    O20   S    
H2    C14   S    
