data_mof_unit_45033.cif
_audit_creation_date              2013-03-05T15:42:22-0500
_audit_creation_method            fapswitch 2.2
_symmetry_space_group_name_H-M    P1
_symmetry_Int_Tables_number       1
_space_group_crystal_system       triclinic
_cell_length_a                    16.880002
_cell_length_b                    16.749182
_cell_length_c                    19.543514
_cell_angle_alpha                 117.744776
_cell_angle_beta                  63.055777
_cell_angle_gamma                 100.59492
_cell_volume                      4356.79228364

loop_
_atom_site_label
_atom_site_type_symbol
_atom_site_description
_atom_site_fract_x
_atom_site_fract_y
_atom_site_fract_z
_atom_type_partial_charge
C1    C     C_R   0.030072 0.761475 0.022707 -0.131045
H1    H     H_    0.060511 0.811854 0.062321 0.102855
N1    N     N_R   0.036080 0.671900 0.995420 -0.041625
C2    C     C_R   0.768265 0.413275 0.158461 -0.227977
H2    H     H_    0.731100 0.362114 0.126835 0.124314
N2    N     N_R   0.834710 0.454650 0.119760 -0.061015
C3    C     C_R   0.804425 0.560063 0.961088 -0.125325
H3    H     H_    0.814645 0.600886 0.928949 0.095190
N3    N     N_R   0.867430 0.509300 0.948100 -0.044335
C4    C     C_R   0.007747 0.661347 0.241830 -0.109562
H4    H     H_    0.992969 0.631463 0.284079 0.168071
N4    N     N_R   0.003360 0.617250 0.167070 -0.047695
C5    C     C_R   0.739268 0.484166 0.039900 -0.130798
H5    H     H_    0.692763 0.457136 0.083178 0.097939
N5    N     N_R   0.825450 0.461270 0.995400 -0.041286
C6    C     C_R   0.076309 0.739867 0.166739 -0.135043
H6    H     H_    0.122863 0.783435 0.141457 0.092566
N6    N     N_R   0.045340 0.665280 0.119770 -0.044421
C7    C     C_R   0.841531 0.485062 0.238335 0.353453
N7    N     N_R   0.883740 0.497640 0.167070 -0.098335
C8    C     C_R   0.958791 0.691878 0.938984 -0.138595
H7    H     H_    0.927700 0.678741 0.897388 0.092652
N8    N     N_R   0.987050 0.628910 0.948110 -0.041326
C9    C     C_R   0.980108 0.776250 0.989070 0.054278
C10   C     C_R   0.769829 0.429602 0.233414 0.016120
C11   C     C_R   0.723922 0.549048 0.021792 0.094688
C12   C     C_R   0.054310 0.738596 0.243898 0.057329
C13   C     C_R   0.250687 0.568038 0.011282 -0.127217
H8    H     H_    0.289399 0.617576 0.990002 0.091724
N9    N     N_R   0.174550 0.538730 0.004600 -0.039738
C14   C     C_R   0.979663 0.247708 0.828980 -0.131341
H9    H     H_    0.958769 0.194841 0.849251 0.095751
N10   N     N_R   0.954660 0.334720 0.880230 -0.045042
C15   C     C_R   0.169330 0.481925 0.751816 -0.062960
H10   H     H_    0.147712 0.457484 0.701642 0.108417
N11   N     N_R   0.116260 0.502360 0.832930 -0.050612
C16   C     C_R   0.031859 0.312330 0.071582 -0.047865
H11   H     H_    0.064471 0.329409 0.112945 0.134903
N12   N     N_R   0.012950 0.371090 0.051890 -0.051967
C17   C     C_R   0.949631 0.244438 0.000149 -0.153974
H12   H     H_    0.903514 0.198646 0.977539 0.093935
N13   N     N_R   0.963920 0.328100 0.004580 -0.043990
C18   C     C_R   0.250644 0.543545 0.827433 -0.149739
H13   H     H_    0.304431 0.571531 0.846397 0.104579
N14   N     N_R   0.165290 0.545350 0.880240 -0.041298
C19   C     C_R   0.183874 0.490089 0.087476 -0.125781
H14   H     H_    0.161375 0.468537 0.137378 0.117950
N15   N     N_R   0.132570 0.490700 0.051900 -0.041374
C20   C     C_R   0.042256 0.324736 0.751705 -0.081990
H15   H     H_    0.072847 0.341768 0.699096 0.145949
N16   N     N_R   0.996640 0.382750 0.832930 -0.056189
Ni1   Ni    Ni4+2 0.104370 0.604370 0.000010 0.214291
Ni2   Ni    Ni4+2 0.895630 0.395630 0.999990 0.211224
Ni3   Ni    Ni4+2 0.991920 0.505780 0.891500 0.218455
Ni4   Ni    Ni4+2 0.008080 0.494220 0.108500 0.276316
C21   C     C_R   0.257959 0.540088 0.064718 0.056532
C22   C     C_R   0.038760 0.239584 0.748063 0.113531
C23   C     C_R   0.254777 0.501691 0.745807 0.092665
C24   C     C_R   0.992925 0.230817 0.040023 0.113499
C25   C     C_R   0.150584 0.155580 0.594783 0.293846
C26   C     C_R   0.084724 0.155702 0.672686 -0.029229
C27   C     C_R   0.053614 0.073503 0.675959 -0.284077
C28   C     C_R   0.069679 0.995035 0.601542 0.146259
C29   C     C_R   0.119985 0.998096 0.522393 -0.001028
C30   C     C_R   0.165313 0.076627 0.518117 -0.041889
C31   C     C_R   0.027359 0.916135 0.605494 -0.191186
C32   C     C_R   0.026365 0.843732 0.532029 -0.187106
C33   C     C_R   0.067907 0.850018 0.454462 0.124135
C34   C     C_R   0.119077 0.924858 0.448308 0.061009
C35   C     C_R   0.162316 0.930050 0.369703 0.143433
C36   C     C_R   0.216237 0.002915 0.363847 -0.220932
C37   C     C_R   0.219215 0.074974 0.437294 -0.109109
C38   C     C_R   0.052319 0.786540 0.385155 -0.242761
C39   C     C_R   0.086138 0.796921 0.309614 0.106983
C40   C     C_R   0.145842 0.865537 0.300228 -0.244569
H16   H     H_    0.008724 0.070863 0.735493 0.133853
H17   H     H_    0.989854 0.912790 0.666073 0.129024
H18   H     H_    0.988370 0.785426 0.536888 0.149668
H19   H     H_    0.007681 0.733467 0.393863 0.147135
H20   H     H_    0.175408 0.872186 0.241165 0.123410
H21   H     H_    0.252808 0.006198 0.303192 0.139599
H22   H     H_    0.259898 0.130856 0.430115 0.186015
C41   C     C_R   0.413467 0.452630 0.659767 -0.214609
C42   C     C_R   0.333398 0.474565 0.666121 0.119090
C43   C     C_R   0.324946 0.461555 0.593892 -0.165791
C44   C     C_R   0.396035 0.428252 0.515219 0.134630
C45   C     C_R   0.478629 0.411597 0.508843 0.053234
C46   C     C_R   0.486861 0.421323 0.580825 0.138676
C47   C     C_R   0.386350 0.414899 0.443443 -0.163360
C48   C     C_R   0.460385 0.392999 0.366579 -0.200757
C49   C     C_R   0.544177 0.386282 0.362148 0.143245
C50   C     C_R   0.553854 0.391385 0.431769 0.011473
C51   C     C_R   0.638912 0.382399 0.425935 -0.063737
C52   C     C_R   0.643654 0.379831 0.495142 -0.112404
C53   C     C_R   0.568409 0.400824 0.572458 -0.202046
C54   C     C_R   0.618416 0.386099 0.292721 -0.301023
C55   C     C_R   0.702671 0.394785 0.292282 -0.002200
C56   C     C_R   0.715345 0.381257 0.353023 0.287483
H23   H     H_    0.418496 0.459683 0.715673 0.127524
H24   H     H_    0.263329 0.478806 0.598602 0.117091
H25   H     H_    0.322477 0.425314 0.447641 0.142342
H26   H     H_    0.453001 0.387712 0.312330 0.128476
H27   H     H_    0.608026 0.391905 0.244435 0.141254
H28   H     H_    0.704967 0.365268 0.492270 0.181304
H29   H     H_    0.574667 0.403859 0.626407 0.137095
C57   C     C_R   0.637646 0.593319 0.057237 0.104123
C58   C     C_R   0.325021 0.568307 0.099068 0.090050
C59   C     C_R   0.406127 0.537441 0.159580 -0.172819
C60   C     C_R   0.330174 0.528738 0.146433 -0.153044
C61   C     C_R   0.390807 0.627309 0.076047 -0.212839
C62   C     C_R   0.469940 0.631217 0.083252 0.080333
C63   C     C_R   0.478592 0.582107 0.121978 0.109004
C64   C     C_R   0.561947 0.567831 0.112522 -0.271914
C65   C     C_R   0.628331 0.652652 0.028860 -0.355667
C66   C     C_R   0.543844 0.673628 0.043138 0.503224
H30   H     H_    0.567395 0.527200 0.139987 0.125760
H31   H     H_    0.686291 0.678168 0.991173 0.129692
H32   H     H_    0.411650 0.501134 0.190984 0.123070
H33   H     H_    0.279045 0.485612 0.167963 0.122964
H34   H     H_    0.385352 0.662298 0.043828 0.168609
C67   C     C_R   0.754463 0.148583 0.168814 0.133764
C68   C     C_R   0.944325 0.863186 0.011081 0.122531
C69   C     C_R   0.889828 0.953339 0.972151 -0.218281
C70   C     C_R   0.935669 0.876871 0.949110 -0.177216
C71   C     C_R   0.907779 0.927823 0.096579 -0.262036
C72   C     C_R   0.858768 0.003057 0.120772 0.170468
C73   C     C_R   0.849513 0.015813 0.057989 0.186923
C74   C     C_R   0.797849 0.089350 0.082659 -0.285578
C75   C     C_R   0.762967 0.135611 0.230814 -0.069511
C76   C     C_R   0.815646 0.063780 0.207059 -0.205954
H35   H     H_    0.789526 0.100102 0.035760 0.120448
H36   H     H_    0.728608 0.181447 0.297441 0.121274
H37   H     H_    0.883382 0.962044 0.923298 0.125556
H38   H     H_    0.821333 0.054759 0.256094 0.135961
H39   H     H_    0.963099 0.827420 0.882970 0.123491
H40   H     H_    0.912684 0.916592 0.144897 0.130345
N17   N     N_R   0.201677 0.234123 0.594095 0.214550
O1    O     O_R   0.200233 0.273752 0.551029 -0.463486
O2    O     O_R   0.243584 0.270788 0.642868 -0.412176
N18   N     N_R   0.803396 0.363921 0.338606 0.240689
O3    O     O_R   0.830793 0.405722 0.398748 -0.342427
O4    O     O_R   0.859966 0.312904 0.262130 -0.407627
O5    O     O_3   0.533377 0.727704 0.011551 -0.772280
H41   H     H_    0.591914 0.751196 0.984932 0.318986
N19   N     N_R   0.877211 0.509377 0.298664 0.234700
O6    O     O_R   0.831647 0.563069 0.378385 -0.393950
O7    O     O_R   0.956676 0.480685 0.273614 -0.398902

loop_
_geom_bond_atom_site_label_1
_geom_bond_atom_site_label_2
_geom_bond_distance
_ccdc_geom_bond_type
C4    C12   1.378270 A    
N15   Ni4   1.876489 S    
C45   C46   1.407240 A    
C72   C73   1.416206 A    
C38   C39   1.405147 A    
N1    N8    1.383039 A    
C62   C63   1.412333 A    
C11   C57   1.468069 S    
C65   C66   1.402666 A    
C13   C21   1.384678 A    
N6    Ni1   1.883838 S    
C69   C70   1.397725 A    
C43   C44   1.375033 A    
N17   O2    1.300936 A    
C7    N19   1.423028 S    
C3    C11   1.392365 A    
C69   H37   1.083635 S    
N5    Ni2   1.813063 S    
N9    N15   1.375847 A    
C13   H8    1.078900 S    
N18   O4    1.301306 A    
C15   H10   1.076056 S    
N13   Ni2   1.812127 S    
C72   C76   1.403914 A    
O5    H41   0.991755 S    
C55   C56   1.415875 A    
C20   C22   1.386016 A    
C59   C60   1.387791 A    
C1    H1    1.080833 S    
C61   C62   1.392153 A    
C48   H26   1.084303 S    
C53   H29   1.083732 S    
C18   C23   1.384572 A    
C49   C54   1.366759 A    
N12   Ni4   1.827433 S    
C7    N7    1.345552 A    
C33   C34   1.407087 A    
C20   N16   1.337252 A    
C14   N10   1.337640 A    
C35   C36   1.399341 A    
C12   C39   1.468526 S    
C40   H20   1.082170 S    
C26   C27   1.400357 A    
C25   N17   1.436439 S    
C64   H30   1.080537 S    
C6    C12   1.389889 A    
C17   N13   1.345694 A    
C41   C46   1.394117 A    
C28   C31   1.400199 A    
C52   H28   1.077605 S    
C17   C24   1.391530 A    
C41   H23   1.084022 S    
C8    H7    1.078136 S    
C58   C60   1.403238 A    
C27   H16   1.080038 S    
C76   H38   1.083491 S    
C32   H18   1.083919 S    
N7    Ni4   1.877409 S    
C63   C64   1.384920 A    
N19   O7    1.301063 A    
N19   O6    1.300603 A    
N12   N13   1.383040 A    
C19   N15   1.337554 A    
N10   Ni2   1.883838 S    
C66   O5    1.382375 S    
C39   C40   1.404618 A    
C57   C64   1.400042 A    
C32   C33   1.399633 A    
C65   H31   1.081027 S    
C59   H32   1.084125 S    
C3    H3    1.072430 S    
C42   C43   1.394686 A    
C67   C74   1.396429 A    
C2    N2    1.320485 A    
C61   H34   1.079065 S    
C49   C50   1.404761 A    
C44   C45   1.410770 A    
C6    H6    1.080336 S    
N14   Ni1   1.884600 S    
C33   C38   1.383323 A    
C59   C63   1.398839 A    
C56   N18   1.440766 S    
C25   C26   1.420556 A    
C1    N1    1.344473 A    
C18   H13   1.080789 S    
C21   C58   1.466964 S    
C16   H11   1.080927 S    
C23   C42   1.443238 S    
C69   C73   1.401847 A    
C41   C42   1.401852 A    
C54   C55   1.399278 A    
C27   C28   1.382024 A    
C9    C68   1.474757 S    
C38   H19   1.079467 S    
N11   N14   1.383039 A    
C51   C52   1.411097 A    
C29   C34   1.400316 A    
N18   O3    1.301129 A    
C18   N14   1.334652 A    
C16   C24   1.389134 A    
C4    N4    1.326250 A    
C71   H40   1.084399 S    
C10   C55   1.465753 S    
C17   H12   1.079878 S    
C57   C65   1.403397 A    
C25   C30   1.412105 A    
C52   C53   1.396548 A    
C5    N5    1.329578 A    
C71   C72   1.403563 A    
C58   C61   1.403502 A    
C5    C11   1.384890 A    
C8    C9    1.388853 A    
N2    Ni2   1.884600 S    
C68   C70   1.404219 A    
C73   C74   1.403951 A    
C74   H35   1.082574 S    
C2    C10   1.371387 A    
C45   C50   1.394934 A    
C60   H33   1.080889 S    
N8    Ni3   1.827433 S    
C75   C76   1.397486 A    
C3    N3    1.343626 A    
C31   H17   1.084004 S    
N9    Ni1   1.813061 S    
C19   H14   1.080466 S    
C70   H39   1.083083 S    
C47   H25   1.084121 S    
C14   H9    1.072653 S    
C67   C75   1.396511 A    
C2    H2    1.081878 S    
C44   C47   1.395265 A    
C19   C21   1.385864 A    
N1    Ni1   1.812128 S    
C22   C26   1.477841 S    
N10   N16   1.375848 A    
C30   C37   1.410579 A    
N2    N7    1.383039 A    
N17   O1    1.301641 A    
N16   Ni3   1.828785 S    
C29   C30   1.413088 A    
C75   H36   1.081606 S    
C68   C71   1.404214 A    
C8    N8    1.344941 A    
N3    N5    1.375850 A    
C36   C37   1.396301 A    
C16   N12   1.340928 A    
C43   H24   1.082936 S    
C14   C22   1.390810 A    
C48   C49   1.399689 A    
C13   N9    1.330483 A    
C50   C51   1.418541 A    
C31   C32   1.387653 A    
C15   N11   1.324108 A    
C34   C35   1.408956 A    
C7    C10   1.394943 A    
C46   C53   1.398930 A    
N4    Ni4   1.828785 S    
N11   Ni3   1.877407 S    
C4    H4    1.070853 S    
C28   C29   1.408509 A    
C1    C9    1.391191 A    
C6    N6    1.342978 A    
C20   H15   1.069068 S    
C54   H27   1.082803 S    
N4    N6    1.375848 A    
C35   C40   1.397907 A    
C15   C23   1.382329 A    
C62   C66   1.407752 A    
N3    Ni3   1.876487 S    
C47   C48   1.380993 A    
C5    H5    1.077370 S    
C51   C56   1.418817 A    
C37   H22   1.079781 S    
C36   H21   1.083680 S    
