data_mof_unit_10226.cif
_audit_creation_date              2012-12-10T18:36:12-0500
_audit_creation_method            fapswitch 2.2
_symmetry_space_group_name_H-M    P1
_symmetry_Int_Tables_number       1
_space_group_crystal_system       triclinic
_cell_length_a                    14.965804
_cell_length_b                    15.461685
_cell_length_c                    19.207519
_cell_angle_alpha                 89.633732
_cell_angle_beta                  105.012801
_cell_angle_gamma                 81.776043
_cell_volume                      4244.31624597

loop_
_atom_site_label
_atom_site_type_symbol
_atom_type_description
_atom_site_fract_x
_atom_site_fract_y
_atom_site_fract_z
_atom_type_partial_charge
C1    C     C_R   0.440869 0.662707 0.490847 0.876453
C2    C     C_R   0.559238 0.337265 0.512125 0.875010
C3    C     C_R   0.403827 0.755991 0.494605 -0.131526
C4    C     C_R   0.596754 0.243803 0.530583 -0.132605
C5    C     C_R   0.279302 0.879089 0.488779 -0.042889
C6    C     C_R   0.720192 0.121771 0.582235 -0.042235
C7    C     C_R   0.307228 0.789712 0.479523 -0.057816
C8    C     C_R   0.692873 0.211037 0.560015 -0.057286
C9    C     C_R   0.469801 0.811634 0.518606 -0.277268
C10   C     C_R   0.530866 0.187175 0.523782 -0.272346
C11   C     C_R   0.444155 0.899501 0.530000 0.079677
C12   C     C_R   0.555397 0.100453 0.549763 0.080136
C13   C     C_R   0.347742 0.934506 0.512535 0.102724
C14   C     C_R   0.651448 0.066148 0.576591 0.103003
C15   C     C_R   0.513218 0.954584 0.553190 0.088011
C16   C     C_R   0.485844 0.045872 0.544997 0.085315
C17   C     C_R   0.389858 0.079554 0.532076 -0.235312
C18   C     C_R   0.608732 0.921601 0.583377 -0.232273
C19   C     C_R   0.322300 0.024634 0.517641 -0.212609
C20   C     C_R   0.676235 0.976675 0.596127 -0.211261
C21   C     C_R   0.843751 0.634403 0.609202 -0.312849
C22   C     C_R   0.156097 0.365931 0.390570 -0.314507
C23   C     C_R   0.500777 0.501059 0.634432 0.882278
C24   C     C_R   0.499116 0.499226 0.365518 0.885743
C25   C     C_R   0.754153 0.612802 0.590741 0.011754
C26   C     C_R   0.245717 0.387463 0.409059 0.009522
C27   C     C_R   0.793117 0.512118 0.506630 -0.035715
C28   C     C_R   0.206969 0.487732 0.493520 -0.036826
C29   C     C_R   0.885548 0.530537 0.523141 0.000015
C30   C     C_R   0.114473 0.469477 0.476904 0.000282
C31   C     C_R   0.909966 0.593193 0.575737 0.179706
C32   C     C_R   0.089968 0.406999 0.424166 0.177251
C33   C     C_R   0.953817 0.489014 0.489861 0.081807
C34   C     C_R   0.046204 0.511024 0.510176 0.082694
C35   C     C_R   0.067190 0.573871 0.562860 -0.222349
C36   C     C_R   0.932774 0.426303 0.437067 -0.223174
C37   C     C_R   0.000127 0.614056 0.594779 -0.202071
C38   C     C_R   0.999781 0.386217 0.405064 -0.203063
C39   C     C_R   0.417696 0.503354 0.729794 -0.216245
C40   C     C_R   0.580541 0.502711 0.269450 -0.228841
C41   C     C_R   0.415879 0.506303 0.801662 0.175041
C42   C     C_R   0.581637 0.502000 0.197363 0.175152
C43   C     C_R   0.500103 0.510457 0.854835 -0.010241
C44   C     C_R   0.497589 0.496024 0.144423 0.003607
C45   C     C_R   0.585137 0.513570 0.836121 0.148955
C46   C     C_R   0.413589 0.489090 0.163639 0.143940
C47   C     C_R   0.584080 0.511084 0.762994 -0.187703
C48   C     C_R   0.415446 0.489442 0.236958 -0.187215
C49   C     C_R   0.501197 0.504989 0.710306 -0.127588
C50   C     C_R   0.498060 0.497073 0.289417 -0.125281
C51   C     C_R   0.497020 0.499971 0.068965 0.268221
C52   C     C_R   0.500095 0.506846 0.930093 0.257757
H1    H     H_    0.353002 0.500350 0.688913 0.164146
H2    H     H_    0.644944 0.506916 0.310265 0.160891
H3    H     H_    0.019193 0.661836 0.634951 0.145987
H4    H     H_    0.980640 0.338602 0.364758 0.146984
H5    H     H_    0.232876 0.533875 0.532455 0.127004
H6    H     H_    0.767329 0.465706 0.467912 0.128267
H7    H     H_    0.297622 0.356869 0.383246 0.133281
H8    H     H_    0.702160 0.643574 0.616404 0.128343
H9    H     H_    0.861248 0.682428 0.649420 0.144146
H10   H     H_    0.138493 0.318111 0.350192 0.146782
H11   H     H_    0.135017 0.593965 0.581072 0.137491
H12   H     H_    0.864898 0.406343 0.418739 0.139614
H13   H     H_    0.647471 0.512692 0.746338 0.177350
H14   H     H_    0.352853 0.484809 0.253962 0.177576
H15   H     H_    0.249770 0.054192 0.507367 0.163418
H16   H     H_    0.748356 0.947709 0.618983 0.159019
H17   H     H_    0.459214 0.211407 0.495940 0.169343
H18   H     H_    0.542503 0.785974 0.525628 0.171997
H19   H     H_    0.365261 0.148353 0.534474 0.154068
H20   H     H_    0.632959 0.853445 0.599474 0.142445
N1    N     N_R   0.505394 0.579790 0.968567 -0.184316
N2    N     N_R   0.490877 0.427223 0.030266 -0.183573
N3    N     N_R   0.503907 0.576353 0.037286 -0.179809
N4    N     N_R   0.492281 0.430674 0.961540 -0.166058
N5    N     N_R   0.731690 0.552730 0.540620 -0.099637
N6    N     N_R   0.268310 0.447270 0.459380 -0.100505
O1    O     O_R   0.383120 0.605620 0.479520 -0.604895
O2    O     O_R   0.616880 0.394380 0.520480 -0.605440
O3    O     O_R   0.531890 0.639510 0.505590 -0.618296
O4    O     O_R   0.468110 0.360490 0.494410 -0.618811
O5    O     O_R   0.425590 0.483060 0.588820 -0.622733
O6    O     O_R   0.574410 0.516940 0.411180 -0.620737
O7    O     O_R   0.574360 0.516950 0.614890 -0.623780
O8    O     O_R   0.425640 0.483050 0.385110 -0.622444
Zn1   Zn    Zn3+2 0.400660 0.477370 0.482600 0.948177
Zn2   Zn    Zn3+2 0.599340 0.522630 0.517400 0.949301
C53   C     C_3   0.322689 0.506112 0.819190 -0.422371
C54   C     C_3   0.294434 0.414884 0.813437 -0.823030
H21   H     H_    0.286055 0.392508 0.757583 0.256014
H22   H     H_    0.348224 0.367658 0.851381 0.273052
H23   H     H_    0.226724 0.416392 0.827371 0.248604
H24   H     H_    0.324049 0.529131 0.874011 0.216510
H25   H     H_    0.267879 0.552450 0.781058 0.200326
C55   C     C_3   0.673718 0.506343 0.179018 -0.415666
C56   C     C_3   0.717952 0.416347 0.162322 -0.845389
H26   H     H_    0.729733 0.369613 0.209120 0.258820
H27   H     H_    0.672559 0.390888 0.114088 0.271767
H28   H     H_    0.786426 0.421264 0.151427 0.248091
H29   H     H_    0.663957 0.553371 0.132868 0.221789
H30   H     H_    0.724263 0.530904 0.225008 0.203757
C57   C     C_3   0.674944 0.517714 0.895190 -0.387997
C58   C     C_3   0.764042 0.517254 0.870089 -0.888439
H31   H     H_    0.778682 0.456360 0.842015 0.264456
H32   H     H_    0.757590 0.575488 0.833961 0.258200
H33   H     H_    0.824225 0.519696 0.917732 0.256737
H34   H     H_    0.665273 0.578249 0.924934 0.220885
H35   H     H_    0.686907 0.460862 0.933930 0.215626
C59   C     C_3   0.323913 0.483125 0.104938 -0.389976
C60   C     C_3   0.235525 0.481071 0.130531 -0.886991
H36   H     H_    0.243541 0.422127 0.166257 0.258245
H37   H     H_    0.219943 0.541244 0.159189 0.264450
H38   H     H_    0.175233 0.478156 0.083070 0.256471
H39   H     H_    0.310090 0.540273 0.066230 0.213014
H40   H     H_    0.334888 0.422939 0.075067 0.222808
C61   C     C_1   0.764281 0.267178 0.567470 0.214316
N7    N     N_1   0.821741 0.311484 0.573649 -0.203429
C62   C     C_1   0.235961 0.734796 0.452617 0.207610
N8    N     N_1   0.178671 0.691481 0.430970 -0.200721
C63   C     C_1   0.180276 0.913697 0.472537 0.147701
N9    N     N_1   0.101383 0.941190 0.459604 -0.191505
C64   C     C_1   0.818858 0.087778 0.610588 0.150365
N10   N     N_1   0.897476 0.060762 0.633151 -0.193651

loop_
_geom_bond_atom_site_label_1
_geom_bond_atom_site_label_2
_ccdc_geom_bond_type
N6    Zn1   S    
C15   C18   A    
C41   C53   S    
C55   H30   S    
C27   C29   A    
N1    N3    A    
O5    Zn1   S    
C60   H36   S    
C51   N2    A    
C4    C8    A    
C58   H32   S    
C56   H26   S    
C64   N10   T    
C47   C49   A    
C28   H5    S    
C21   C31   A    
C26   N6    A    
C22   C32   A    
C42   C55   S    
C35   C37   A    
C51   N3    A    
C3    C7    A    
C43   C52   S    
C23   C49   S    
C22   H10   S    
C1    O3    A    
O4    Zn1   S    
C29   C33   A    
C33   C36   A    
C34   C35   A    
C23   O5    A    
C53   H24   S    
C59   C60   S    
C45   C57   S    
C11   C15   A    
C12   C16   A    
N5    Zn2   S    
C16   C17   A    
C19   H15   S    
C57   H34   S    
C25   H8    S    
C32   C38   A    
C28   N6    A    
C26   H7    S    
C21   H9    S    
C48   C50   A    
C55   H29   S    
C18   H20   S    
C41   C43   A    
C42   C44   A    
C6    C64   S    
C10   C12   A    
O1    Zn1   S    
C58   H31   S    
C56   H27   S    
C44   C46   A    
C8    C61   S    
C45   C47   A    
C24   C50   S    
C46   C48   A    
C30   C34   A    
C14   C20   A    
C9    H18   S    
C39   C41   A    
C52   N1    A    
C5    C7    A    
C13   C19   A    
O8    Zn1   S    
C6    C8    A    
C27   N5    A    
C31   C37   A    
C1    C3    S    
C53   H25   S    
C2    C4    S    
C3    C9    A    
C7    C62   S    
C6    C14   A    
C43   C45   A    
C54   H22   S    
C55   C56   S    
C33   C34   A    
C60   H37   S    
C9    C11   A    
C63   N9    T    
N2    N4    A    
C44   C51   S    
C39   C49   A    
C12   C14   A    
C17   H19   S    
C40   H2    S    
C46   C59   S    
C23   O7    A    
C1    O1    A    
C25   N5    A    
C2    O4    A    
C4    C10   A    
C36   C38   A    
C59   H40   S    
C56   H28   S    
C54   H23   S    
O7    Zn2   S    
C21   C25   A    
C5    C63   S    
C5    C13   A    
C20   H16   S    
O6    Zn2   S    
C52   N4    A    
C27   H6    S    
C62   N8    T    
C57   H35   S    
C28   C30   A    
C24   O6    A    
C29   C31   A    
C61   N7    T    
C30   C32   A    
C11   C13   A    
C54   H21   S    
C39   H1    S    
C40   C50   A    
C40   C42   A    
C17   C19   A    
C60   H38   S    
C18   C20   A    
O3    Zn2   S    
C2    O2    A    
C37   H3    S    
C10   H17   S    
C38   H4    S    
O2    Zn2   S    
C22   C26   A    
C57   C58   S    
C35   H11   S    
C48   H14   S    
C53   C54   S    
C36   H12   S    
C24   O8    A    
C59   H39   S    
C47   H13   S    
C58   H33   S    
C15   C16   A    
