data_mof_unit_38334.cif
_audit_creation_date              2012-12-11T14:44:24-0500
_audit_creation_method            fapswitch 2.2
_symmetry_space_group_name_H-M    P1
_symmetry_Int_Tables_number       1
_space_group_crystal_system       triclinic
_cell_length_a                    24.837239
_cell_length_b                    16.698028
_cell_length_c                    15.663971
_cell_angle_alpha                 90.000076
_cell_angle_beta                  49.834586
_cell_angle_gamma                 90.00002
_cell_volume                      4964.4274949

loop_
_atom_site_label
_atom_site_type_symbol
_atom_type_description
_atom_site_fract_x
_atom_site_fract_y
_atom_site_fract_z
_atom_type_partial_charge
C1    C     C_R   0.349537 0.144374 0.763488 0.493073
C2    C     C_3   0.721719 0.733543 0.580462 -0.154930
C3    C     C_3   0.778139 0.177856 0.580794 -0.153964
C4    C     C_3   0.278263 0.733556 0.419562 -0.154916
C5    C     C_3   0.721988 0.677982 0.419037 -0.154014
C6    C     C_3   0.221806 0.233614 0.580338 -0.154858
C7    C     C_3   0.278030 0.677965 0.580938 -0.154008
C8    C     C_3   0.778161 0.233635 0.419708 -0.154830
C9    C     C_2   0.642583 0.264989 0.147298 -0.160142
C10   C     C_2   0.303243 0.850230 0.987293 -0.167140
C11   C     C_2   0.357417 0.264989 0.852702 -0.160142
C12   C     C_R   0.667423 0.891839 0.195500 0.483062
C13   C     C_2   0.696757 0.850230 0.012707 -0.167140
C14   C     C_2   0.142584 0.764987 0.147295 -0.160145
C15   C     C_2   0.803243 0.350231 0.987293 -0.167139
C16   C     C_2   0.857416 0.764988 0.852705 -0.160144
C17   C     C_2   0.196757 0.350230 0.012707 -0.167140
C18   C     C_2   0.686580 0.310803 0.148253 -0.117768
C19   C     C_2   0.233817 0.864896 0.055192 -0.111670
C20   C     C_2   0.313420 0.310803 0.851746 -0.117767
C21   C     C_2   0.766183 0.864897 0.944808 -0.111670
C22   C     C_2   0.186581 0.810801 0.148252 -0.117764
C23   C     C_R   0.650463 0.144374 0.236513 0.493071
C24   C     C_2   0.733817 0.364897 0.055191 -0.111669
C25   C     C_2   0.813419 0.810801 0.851748 -0.117764
C26   C     C_2   0.266183 0.364897 0.944808 -0.111668
C27   C     C_R   0.613303 0.110856 0.593336 -0.134633
C28   C     C_R   0.414344 0.850339 0.406376 -0.108264
C29   C     C_R   0.386698 0.110861 0.406665 -0.134646
C30   C     C_R   0.585655 0.850338 0.593623 -0.108270
C31   C     C_R   0.113302 0.610866 0.593333 -0.134677
C32   C     C_R   0.914341 0.350344 0.406371 -0.108222
C33   C     C_R   0.886698 0.610868 0.406668 -0.134683
C34   C     C_R   0.332577 0.891839 0.804500 0.483063
C35   C     C_R   0.085657 0.350342 0.593627 -0.108234
C36   C     C_R   0.689444 0.107813 0.408013 -0.123874
C37   C     C_R   0.340079 0.849772 0.591945 -0.182127
C38   C     C_R   0.310558 0.107819 0.591988 -0.123869
C39   C     C_R   0.659920 0.849771 0.408054 -0.182120
C40   C     C_R   0.189440 0.607828 0.408009 -0.123866
C41   C     C_R   0.840079 0.349771 0.591943 -0.182172
C42   C     C_R   0.810561 0.607831 0.591992 -0.123862
C43   C     C_R   0.159919 0.349770 0.408056 -0.182160
C44   C     C_R   0.559015 0.144225 0.241539 -0.244997
C45   C     C_R   0.849536 0.644373 0.763491 0.493071
C46   C     C_R   0.421566 0.892507 0.804262 -0.264579
C47   C     C_R   0.440985 0.144225 0.758460 -0.244999
C48   C     C_R   0.578434 0.892507 0.195738 -0.264577
C49   C     C_R   0.059016 0.644224 0.241538 -0.244998
C50   C     C_R   0.921566 0.392507 0.804262 -0.264576
C51   C     C_R   0.940984 0.644224 0.758462 -0.244997
C52   C     C_R   0.078434 0.392507 0.195738 -0.264575
C53   C     C_R   0.382597 0.188734 0.792265 0.059507
C54   C     C_R   0.649313 0.873895 0.130878 0.074363
C55   C     C_R   0.617403 0.188734 0.207735 0.059506
C56   C     C_R   0.167422 0.391838 0.195500 0.483066
C57   C     C_R   0.350687 0.873895 0.869122 0.074363
C58   C     C_R   0.882596 0.688733 0.792268 0.059510
C59   C     C_R   0.149313 0.373895 0.130878 0.074362
C60   C     C_R   0.117404 0.688733 0.207732 0.059511
C61   C     C_R   0.850686 0.373895 0.869122 0.074360
C62   C     C_R   0.680469 0.129103 0.500863 0.025131
C63   C     C_R   0.365948 0.804476 0.498842 0.032806
C64   C     C_R   0.319533 0.129115 0.499139 0.025139
C65   C     C_R   0.634050 0.804475 0.501157 0.032802
C66   C     C_R   0.180465 0.629128 0.500857 0.025152
C67   C     C_R   0.150465 0.644373 0.236509 0.493070
C68   C     C_R   0.865944 0.304482 0.498836 0.032821
C69   C     C_R   0.819536 0.629132 0.499144 0.025155
C70   C     C_R   0.134052 0.304478 0.501162 0.032815
C71   C     C_3   0.286324 0.214006 0.399654 -0.157095
C72   C     C_3   0.657332 0.697294 0.600340 -0.164013
C73   C     C_3   0.713684 0.213959 0.600370 -0.157098
C74   C     C_3   0.342663 0.697313 0.399646 -0.164010
C75   C     C_3   0.786346 0.714126 0.399720 -0.157077
C76   C     C_3   0.157351 0.197390 0.600405 -0.164005
C77   C     C_3   0.213658 0.714103 0.600292 -0.157079
C78   C     C_R   0.832577 0.391838 0.804500 0.483068
C79   C     C_3   0.842642 0.197425 0.399571 -0.163998
C80   C     C_3   0.740895 0.782497 0.481459 -0.134717
C81   C     C_3   0.203419 0.127814 0.518778 -0.147246
C82   C     C_3   0.259091 0.782491 0.518576 -0.134725
C83   C     C_3   0.796609 0.127816 0.481154 -0.147264
C84   C     C_3   0.240961 0.282465 0.481277 -0.134744
C85   C     C_3   0.703489 0.627804 0.518597 -0.147229
C86   C     C_3   0.759013 0.282451 0.518789 -0.134766
C87   C     C_3   0.296524 0.627806 0.481367 -0.147235
C88   C     C_3   0.676965 0.746090 0.500963 0.180765
C89   C     C_3   0.221896 0.177889 0.419159 -0.153979
C90   C     C_3   0.266944 0.165394 0.498903 0.180402
C91   C     C_3   0.323035 0.746090 0.499034 0.180764
C92   C     C_3   0.733057 0.165384 0.501101 0.180402
C93   C     C_3   0.176963 0.246085 0.500969 0.180756
C94   C     C_3   0.766946 0.665411 0.498910 0.180411
C95   C     C_3   0.823038 0.246084 0.499026 0.180754
C96   C     C_3   0.233054 0.665408 0.501092 0.180411
H1    H     H_    0.592065 0.110059 0.679113 0.089930
H2    H     H_    0.298335 0.832376 0.677371 0.148936
H3    H     H_    0.260754 0.104137 0.675711 0.118509
H4    H     H_    0.701664 0.832376 0.322628 0.148933
H5    H     H_    0.239243 0.604149 0.324284 0.118508
H6    H     H_    0.798337 0.332372 0.677368 0.148952
H7    H     H_    0.760757 0.604151 0.675716 0.118506
H8    H     H_    0.201661 0.332372 0.322631 0.148947
H9    H     H_    0.522333 0.160245 0.229239 0.131463
H10   H     H_    0.450261 0.896522 0.834420 0.128637
H11   H     H_    0.477667 0.160246 0.770760 0.131464
H12   H     H_    0.441411 0.835746 0.320048 0.096061
H13   H     H_    0.549739 0.896522 0.165580 0.128636
H14   H     H_    0.022334 0.660245 0.229238 0.131460
H15   H     H_    0.950260 0.396523 0.834421 0.128636
H16   H     H_    0.977667 0.660245 0.770762 0.131460
H17   H     H_    0.049740 0.396522 0.165579 0.128635
H18   H     H_    0.755658 0.846894 0.466305 0.116085
H19   H     H_    0.189935 0.063145 0.533983 0.111890
H20   H     H_    0.244316 0.846885 0.533760 0.116085
H21   H     H_    0.810117 0.063154 0.465897 0.111892
H22   H     H_    0.255781 0.346845 0.465971 0.116090
H23   H     H_    0.407935 0.110066 0.320889 0.089936
H24   H     H_    0.690060 0.563118 0.533651 0.111891
H25   H     H_    0.744169 0.346824 0.534147 0.116092
H26   H     H_    0.309965 0.563124 0.466284 0.111891
H27   H     H_    0.339950 0.220839 0.317474 0.110651
H28   H     H_    0.603386 0.691190 0.682091 0.114062
H29   H     H_    0.660065 0.220762 0.682568 0.110649
H30   H     H_    0.396606 0.691226 0.317885 0.114058
H31   H     H_    0.839989 0.721050 0.317601 0.110662
H32   H     H_    0.103422 0.191376 0.682215 0.114039
H33   H     H_    0.160018 0.721010 0.682422 0.110661
H34   H     H_    0.558588 0.835744 0.679951 0.096066
H35   H     H_    0.896564 0.191440 0.317741 0.114033
H36   H     H_    0.220288 0.156316 0.353809 0.118488
H37   H     H_    0.722798 0.755854 0.646136 0.124282
H38   H     H_    0.779781 0.156257 0.646099 0.118487
H39   H     H_    0.277169 0.755880 0.353909 0.124281
H40   H     H_    0.720447 0.656470 0.353594 0.118493
H41   H     H_    0.222951 0.255986 0.645919 0.124273
H42   H     H_    0.279587 0.656440 0.646360 0.118493
H43   H     H_    0.776982 0.256033 0.354171 0.124271
H44   H     H_    0.210833 0.904686 0.031932 0.202335
H45   H     H_    0.092069 0.610070 0.679107 0.089954
H46   H     H_    0.698391 0.296767 0.202323 0.180790
H47   H     H_    0.789167 0.904687 0.968067 0.202335
H48   H     H_    0.301610 0.296767 0.797676 0.180790
H49   H     H_    0.710833 0.404686 0.031931 0.202335
H50   H     H_    0.198391 0.796765 0.202322 0.180788
H51   H     H_    0.289167 0.404687 0.968068 0.202334
H52   H     H_    0.801609 0.796765 0.797677 0.180788
H53   H     H_    0.324513 0.811111 0.014687 0.149773
H54   H     H_    0.631153 0.279261 0.092706 0.145244
H55   H     H_    0.675487 0.811111 0.985312 0.149773
H56   H     H_    0.941409 0.335755 0.320043 0.096030
H57   H     H_    0.368847 0.279262 0.907294 0.145245
H58   H     H_    0.824513 0.311112 0.014688 0.149775
H59   H     H_    0.131155 0.779260 0.092703 0.145243
H60   H     H_    0.175487 0.311111 0.985312 0.149774
H61   H     H_    0.868845 0.779261 0.907297 0.145243
H62   H     H_    0.263927 0.097953 0.811290 0.303050
H63   H     H_    0.732441 0.938251 0.208939 0.298123
H64   H     H_    0.736073 0.097953 0.188712 0.303050
H65   H     H_    0.267560 0.938251 0.791060 0.298123
H66   H     H_    0.763926 0.597948 0.811299 0.303049
H67   H     H_    0.907931 0.610072 0.320894 0.089957
H68   H     H_    0.232441 0.438248 0.208941 0.298123
H69   H     H_    0.236074 0.597948 0.188702 0.303050
H70   H     H_    0.767559 0.438248 0.791058 0.298123
H71   H     H_    0.058590 0.335752 0.679955 0.096039
H72   H     H_    0.739247 0.104131 0.324289 0.118512
N1    N     N_R   0.389620 0.081040 0.705440 -0.110839
N2    N     N_R   0.417680 0.920160 0.443370 -0.032686
N3    N     N_R   0.417680 0.079840 0.443370 -0.032183
N4    N     N_R   0.582320 0.920160 0.556630 -0.032686
N5    N     N_R   0.082320 0.579840 0.556630 -0.032179
N6    N     N_R   0.917680 0.420160 0.443370 -0.032684
N7    N     N_R   0.917680 0.579840 0.443370 -0.032179
N8    N     N_R   0.082320 0.420160 0.556630 -0.032685
N9    N     N_R   0.627920 0.078930 0.443400 -0.048694
N10   N     N_R   0.372080 0.921070 0.556600 -0.049316
N11   N     N_R   0.372080 0.078930 0.556600 -0.048694
N12   N     N_R   0.610380 0.918960 0.294560 -0.102563
N13   N     N_R   0.627920 0.921070 0.443400 -0.049316
N14   N     N_R   0.127920 0.578930 0.443400 -0.048694
N15   N     N_R   0.872080 0.421070 0.556600 -0.049314
N16   N     N_R   0.872080 0.578930 0.556600 -0.048694
N17   N     N_R   0.127920 0.421070 0.443400 -0.049315
N18   N     N_R   0.555090 0.077730 0.294590 -0.056481
N19   N     N_R   0.444910 0.922270 0.705410 -0.052510
N20   N     N_R   0.444910 0.077730 0.705410 -0.056482
N21   N     N_R   0.555090 0.922270 0.294590 -0.052511
N22   N     N_R   0.055090 0.577730 0.294590 -0.056481
N23   N     N_R   0.610380 0.081040 0.294560 -0.110839
N24   N     N_R   0.944910 0.422270 0.705410 -0.052512
N25   N     N_R   0.944910 0.577730 0.705410 -0.056481
N26   N     N_R   0.055090 0.422270 0.294590 -0.052512
N27   N     N_R   0.389620 0.918960 0.705440 -0.102563
N28   N     N_R   0.889620 0.581040 0.705440 -0.110840
N29   N     N_R   0.110380 0.418960 0.294560 -0.102564
N30   N     N_R   0.110380 0.581040 0.294560 -0.110839
N31   N     N_R   0.889620 0.418960 0.705440 -0.102563
N32   N     N_R   0.582320 0.079840 0.556630 -0.032183
Ni1   Ni    Ni4+2 0.382970 1.000000 0.629840 0.194868
Ni2   Ni    Ni4+2 0.617030 0.000000 0.370160 0.194868
Ni3   Ni    Ni4+2 0.882970 0.500000 0.629840 0.194867
Ni4   Ni    Ni4+2 0.117030 0.500000 0.370160 0.194867
Ni5   Ni    Ni4+2 0.514540 1.000000 0.629840 0.199916
Ni6   Ni    Ni4+2 0.485460 0.000000 0.370160 0.199917
Ni7   Ni    Ni4+2 0.014540 0.500000 0.629840 0.199919
Ni8   Ni    Ni4+2 0.985460 0.500000 0.370160 0.199921
O1    O     O_3   0.280328 0.152280 0.810324 -0.790649
O2    O     O_3   0.735058 0.903158 0.155331 -0.809135
O3    O     O_3   0.719671 0.152280 0.189678 -0.790647
O4    O     O_3   0.264942 0.903158 0.844669 -0.809134
O5    O     O_3   0.780326 0.652275 0.810333 -0.790654
O6    O     O_3   0.235058 0.403156 0.155332 -0.809133
O7    O     O_3   0.219674 0.652275 0.189667 -0.790653
O8    O     O_3   0.764942 0.403156 0.844667 -0.809133

loop_
_geom_bond_atom_site_label_1
_geom_bond_atom_site_label_2
_ccdc_geom_bond_type
C34   N27   A    
C31   C66   A    
N6    Ni8   S    
C5    C75   S    
N32   Ni5   S    
N25   Ni7   S    
C14   H59   S    
C5    H40   S    
C20   H48   S    
C67   O7    S    
N13   Ni2   S    
C64   C90   S    
C67   N30   A    
C42   H7    S    
C23   N23   A    
C72   C85   S    
C30   N4    A    
N20   Ni5   S    
N8    N17   A    
C44   H9    S    
C48   C54   A    
C83   C92   S    
C29   H23   S    
N22   N30   A    
C51   H16   S    
C49   C60   A    
C20   C26   S    
N2    N10   A    
C8    H43   S    
N14   Ni4   S    
C35   N8    A    
N8    Ni7   S    
C71   H27   S    
N4    Ni5   S    
C33   H67   S    
C10   C19   D    
N2    Ni6   S    
C76   C81   S    
N12   Ni2   S    
N12   N21   A    
C10   H53   S    
C36   C62   A    
N26   N29   A    
C43   N17   A    
C46   H10   S    
C36   H72   S    
C41   H6    S    
N29   Ni4   S    
N24   N31   A    
N18   N23   A    
C1    C53   A    
C43   H8    S    
C15   H58   S    
C72   C88   S    
C40   H5    S    
C4    C96   S    
C5    C88   S    
N4    N13   A    
H69   O7    S    
C7    C87   S    
C22   H50   S    
C60   C67   A    
C19   H44   S    
C79   C83   S    
N9    N32   A    
C62   C92   S    
C8    C79   S    
C45   O5    S    
C19   C22   S    
C8    C92   S    
N23   Ni2   S    
C74   C87   S    
C50   N24   A    
C75   C80   S    
N21   Ni6   S    
C4    C74   S    
C11   C53   S    
C33   C69   A    
C47   C53   A    
C5    C85   S    
C45   N28   A    
C44   N18   A    
C48   H13   S    
C29   C64   A    
C79   H35   S    
N16   Ni3   S    
C40   C66   A    
C72   H28   S    
N31   Ni3   S    
C52   H17   S    
C39   C65   A    
N3    N11   A    
N7    Ni8   S    
C2    C72   S    
C37   H2    S    
C37   C63   A    
C41   C68   A    
C38   C64   A    
C11   C20   D    
H65   O4    S    
C9    H54   S    
C68   C95   S    
C6    C84   S    
N18   Ni6   S    
C1    O1    S    
C2    H37   S    
N11   Ni1   S    
C2    C94   S    
C70   C93   S    
C52   N26   A    
C13   H55   S    
C69   C94   S    
C51   N25   A    
C78   O8    S    
C16   C58   S    
C49   N22   A    
H68   O6    S    
C6    C90   S    
C32   N6    A    
C42   C69   A    
C82   C91   S    
N28   Ni3   S    
C74   C91   S    
C31   H45   S    
C85   H24   S    
C79   C95   S    
C10   C57   S    
C37   N10   A    
C52   C59   A    
C76   C93   S    
C34   C57   A    
C85   C94   S    
C35   H71   S    
C32   H56   S    
C18   H46   S    
C61   C78   A    
N25   N28   A    
C7    C91   S    
C87   C96   S    
C81   H19   S    
C86   H25   S    
C15   C61   S    
C13   C21   D    
N5    Ni7   S    
C51   C58   A    
C77   H33   S    
C29   N3    A    
N3    Ni6   S    
C6    C76   S    
H63   O2    S    
C21   H47   S    
C48   N21   A    
C39   N13   A    
C34   O4    S    
C71   C89   S    
C17   C59   S    
C4    H39   S    
C9    C55   S    
C81   C90   S    
N22   Ni8   S    
C15   C24   D    
C12   N12   A    
C80   H18   S    
N5    N14   A    
C43   C70   A    
C47   H11   S    
C35   C70   A    
C46   C57   A    
N30   Ni4   S    
C30   C65   A    
C76   H32   S    
N24   Ni7   S    
C18   C24   S    
C12   O2    S    
C78   N31   A    
C17   C26   D    
C46   N19   A    
C45   C58   A    
N26   Ni8   S    
N17   Ni4   S    
C65   C88   S    
C66   C96   S    
C13   C54   S    
C31   N5    A    
C28   N2    A    
C16   C25   D    
H64   O3    S    
C21   C25   S    
C27   H1    S    
C71   C84   S    
N19   N27   A    
C16   H61   S    
C56   N29   A    
C56   O6    S    
C49   H14   S    
C27   N32   A    
N1    N20   A    
C38   H3    S    
N6    N15   A    
C7    H42   S    
N19   Ni5   S    
C40   N14   A    
C23   C55   A    
C73   C92   S    
N27   Ni1   S    
C27   C62   A    
C14   C60   S    
C36   N9    A    
C77   C96   S    
C89   H36   S    
C56   C59   A    
C7    C77   S    
C24   H49   S    
C3    H38   S    
C42   N16   A    
C83   H21   S    
C6    H41   S    
C81   C89   S    
C80   C88   S    
C30   H34   S    
C32   C68   A    
C3    C83   S    
C82   H20   S    
C44   C55   A    
C14   C22   D    
C39   H4    S    
C74   H30   S    
C71   C90   S    
C23   O3    S    
C77   C82   S    
C28   H12   S    
C73   H29   S    
C38   N11   A    
C1    N1    A    
C50   H15   S    
C25   H52   S    
C8    C86   S    
C84   C93   S    
C89   C93   S    
C26   H51   S    
C33   N7    A    
C73   C86   S    
C87   H26   S    
C2    C80   S    
C86   C95   S    
C11   H57   S    
N1    Ni1   S    
C28   C63   A    
C9    C18   D    
C4    C82   S    
H62   O1    S    
C84   H22   S    
N10   Ni1   S    
C63   C91   S    
C50   C61   A    
N9    Ni2   S    
C41   N15   A    
C3    C95   S    
N15   Ni3   S    
C3    C73   S    
C47   N20   A    
C17   H60   S    
H66   O5    S    
C12   C54   A    
C75   C94   S    
H70   O8    S    
N7    N16   A    
C75   H31   S    
