data_mof_unit_34851.cif
_audit_creation_date              2012-12-10T18:33:33-0500
_audit_creation_method            fapswitch 2.2
_symmetry_space_group_name_H-M    P1
_symmetry_Int_Tables_number       1
_space_group_crystal_system       triclinic
_cell_length_a                    8.731046
_cell_length_b                    15.112498
_cell_length_c                    13.98421
_cell_angle_alpha                 90.732266
_cell_angle_beta                  98.573134
_cell_angle_gamma                 91.72522
_cell_volume                      1823.46452076

loop_
_atom_site_label
_atom_site_type_symbol
_atom_type_description
_atom_site_fract_x
_atom_site_fract_y
_atom_site_fract_z
_atom_type_partial_charge
C1    C     C_R   0.503835 0.330003 0.500053 0.847494
C2    C     C_R   0.496162 0.669997 0.499947 0.847496
C3    C     C_R   0.592135 0.561633 0.119148 -0.313259
C4    C     C_R   0.407875 0.438361 0.880853 -0.313260
C5    C     C_R   0.586238 0.562105 0.219173 0.039816
C6    C     C_R   0.413770 0.437891 0.780827 0.039820
C7    C     C_R   0.430128 0.430884 0.200448 0.346743
C8    C     C_R   0.569867 0.569118 0.799552 0.346707
C9    C     C_R   0.455747 0.421907 0.102938 0.077361
C10   C     C_R   0.544254 0.578090 0.897063 0.077363
C11   C     C_R   0.509978 0.496409 0.055707 0.097554
C12   C     C_R   0.490029 0.503587 0.944293 0.097559
C13   C     C_R   0.203762 0.499846 0.474942 0.879645
C14   C     C_R   0.796238 0.500154 0.525058 0.879649
C15   C     C_2   0.037351 0.499876 0.461463 -0.345933
C16   C     C_2   0.962649 0.500124 0.538536 -0.345940
C17   C     C_R   0.533601 0.097423 0.591526 0.426690
C18   C     C_R   0.466393 0.902573 0.408462 0.426694
C19   C     C_R   0.518245 0.188749 0.588967 -0.207335
C20   C     C_R   0.481761 0.811248 0.411027 -0.207333
C21   C     C_R   0.517151 0.233609 0.501798 -0.170229
C22   C     C_R   0.482837 0.766390 0.498198 -0.170225
C23   C     C_R   0.554322 0.187306 0.421594 -0.223221
C24   C     C_R   0.445638 0.812695 0.578395 -0.223231
C25   C     C_R   0.568797 0.095725 0.424840 0.432229
C26   C     C_R   0.431162 0.904276 0.575144 0.432243
C27   C     C_R   0.523594 0.048541 0.503698 -0.041629
C28   C     C_R   0.476382 0.951458 0.496288 -0.041631
Cu1   Cu    Cu3+1 0.500000 0.499990 0.596430 0.949891
Cu2   Cu    Cu3+1 0.500000 0.500010 0.403570 0.949898
H1    H     H_    0.976153 0.499723 0.387824 0.179163
H2    H     H_    0.023847 0.500277 0.612175 0.179162
H3    H     H_    0.517569 0.224928 0.656283 0.195809
H4    H     H_    0.482454 0.775067 0.343712 0.195808
H5    H     H_    0.583906 0.222669 0.359669 0.187030
H6    H     H_    0.416033 0.777333 0.640317 0.187014
H7    H     H_    0.667207 0.610969 0.094024 0.175959
H8    H     H_    0.332805 0.389023 0.905976 0.175959
H9    H     H_    0.651014 0.612671 0.265151 0.147812
H10   H     H_    0.348998 0.387323 0.734849 0.147814
N1    N     N_R   0.500000 0.500020 0.258690 -0.188131
N2    N     N_R   0.500000 0.499980 0.741310 -0.188133
O1    O     O_R   0.500010 0.371450 0.581430 -0.589845
O2    O     O_R   0.499990 0.628550 0.418570 -0.589845
O3    O     O_R   0.500010 0.371460 0.418560 -0.591808
O4    O     O_R   0.499990 0.628540 0.581440 -0.591813
O5    O     O_R   0.274840 0.499990 0.562640 -0.576662
O6    O     O_R   0.725160 0.500010 0.437360 -0.576661
O7    O     O_R   0.274840 0.500000 0.399770 -0.595828
O8    O     O_R   0.725160 0.500000 0.600230 -0.595831
Cl1   Cl    Cl    0.616018 0.054113 0.703577 -0.500787
Cl2   Cl    Cl    0.383964 0.945872 0.296409 -0.500783
Cl3   Cl    Cl    0.690702 0.050163 0.348255 -0.502280
Cl4   Cl    Cl    0.309250 0.949845 0.651722 -0.502279
C29   C     C_3   0.325960 0.361041 0.236328 -0.742567
H11   H     H_    0.272228 0.382494 0.298059 0.259041
H12   H     H_    0.226826 0.344106 0.178888 0.205613
H13   H     H_    0.390231 0.299937 0.254657 0.226445
C30   C     C_3   0.674004 0.638973 0.763664 -0.742474
H14   H     H_    0.727794 0.617500 0.701955 0.259021
H15   H     H_    0.609674 0.700057 0.745292 0.226456
H16   H     H_    0.773112 0.655956 0.821121 0.205612
C31   C     C_3   0.460198 0.328764 0.061870 -0.832232
H17   H     H_    0.341264 0.301767 0.036420 0.242620
H18   H     H_    0.533160 0.325556 0.003519 0.250846
H19   H     H_    0.516804 0.284438 0.118312 0.253962
C32   C     C_3   0.539801 0.671233 0.938135 -0.832245
H20   H     H_    0.466834 0.674438 0.996483 0.250852
H21   H     H_    0.658734 0.698229 0.963590 0.242609
H22   H     H_    0.483203 0.715561 0.881694 0.253967

loop_
_geom_bond_atom_site_label_1
_geom_bond_atom_site_label_2
_ccdc_geom_bond_type
C2    C22   S    
C29   H11   S    
C31   H18   S    
Cu2   N1    S    
C1    C21   S    
Cu1   Cu2   S    
Cu1   N2    S    
C16   H2    S    
Cu2   O3    S    
C26   C28   A    
C7    C29   S    
Cu1   O4    S    
C11   C12   S    
C32   H22   S    
C20   H4    S    
C17   Cl1   S    
C29   H12   S    
C31   H19   S    
C18   Cl2   S    
C30   H14   S    
C1    O3    A    
C14   O8    A    
C10   C32   S    
Cu1   O1    S    
C15   H1    S    
C9    C11   A    
Cu2   O2    S    
C24   H6    S    
C10   C12   A    
Cu1   O5    S    
C32   H20   S    
C13   O7    A    
C26   Cl4   S    
Cu2   O6    S    
C17   C19   A    
Cu2   O7    S    
C4    H8    S    
C18   C28   A    
C22   C24   A    
Cu1   O8    S    
C13   C15   S    
C8    C30   S    
C6    N2    A    
C25   C27   A    
C23   H5    S    
C14   C16   S    
C30   H15   S    
C4    C12   A    
C20   C22   A    
C8    N2    A    
C15   C16   D    
C17   C27   A    
C3    C5    A    
C6    H10   S    
C3    C11   A    
C3    H7    S    
C18   C20   A    
C4    C6    A    
C23   C25   A    
C19   H3    S    
C29   H13   S    
C27   C28   S    
C7    C9    A    
C5    H9    S    
C5    N1    A    
C30   H16   S    
C14   O6    A    
C19   C21   A    
C9    C31   S    
C13   O5    A    
C21   C23   A    
C1    O1    A    
C8    C10   A    
C2    O4    A    
C25   Cl3   S    
C24   C26   A    
C7    N1    A    
C2    O2    A    
C31   H17   S    
C32   H21   S    
