data_mof_unit_7496.cif
_audit_creation_date              2012-12-11T17:00:18-0500
_audit_creation_method            fapswitch 2.2
_symmetry_space_group_name_H-M    P1
_symmetry_Int_Tables_number       1
_space_group_crystal_system       triclinic
_cell_length_a                    6.944302
_cell_length_b                    13.621364
_cell_length_c                    20.199121
_cell_angle_alpha                 102.892465
_cell_angle_beta                  89.632451
_cell_angle_gamma                 90.796096
_cell_volume                      1862.29528015

loop_
_atom_site_label
_atom_site_type_symbol
_atom_type_description
_atom_site_fract_x
_atom_site_fract_y
_atom_site_fract_z
_atom_type_partial_charge
O1    O     O_R   0.506770 0.599700 0.449550 -0.540506
O2    O     O_R   0.179980 0.595740 0.587960 -0.527785
O3    O     O_R   0.004580 0.400300 0.550450 -0.538367
C1    C     C_R   0.348639 0.619224 0.614477 0.701140
O4    O     O_R   0.177380 0.611700 0.452380 -0.548868
O5    O     O_R   0.001970 0.416370 0.413900 -0.528018
C2    C     C_R   0.347912 0.638109 0.435326 0.721132
O6    O     O_R   0.509390 0.583630 0.586100 -0.521087
O7    O     O_3   0.337530 0.435890 0.487530 -0.370443
V1    V     V_3+5 0.064660 0.511890 0.502310 1.513397
O8    O     O_R   0.671950 0.404260 0.412040 -0.534121
C3    C     C_R   0.840234 0.385372 0.383975 0.714898
O9    O     O_R   0.674540 0.388300 0.547620 -0.546754
C4    C     C_R   0.842173 0.361499 0.564131 0.706129
V2    V     V_3+5 0.564030 0.488110 0.497690 1.495133
O10   O     O_3   0.841030 0.564110 0.512470 -0.361171
C5    C     C_R   0.814211 0.110143 0.610154 -0.083132
H1    H     H_    0.795876 0.032202 0.583654 0.186377
C6    C     C_R   0.845997 0.284129 0.603678 -0.045578
C7    C     C_R   0.871062 0.318303 0.931713 0.344664
C8    C     C_R   0.871866 0.394019 0.894873 -0.205242
C9    C     C_R   0.866554 0.369760 0.824195 -0.186360
C10   C     C_R   0.857933 0.268249 0.787403 0.076637
C11   C     C_R   0.853607 0.191274 0.824778 -0.036952
C12   C     C_R   0.850694 0.240833 0.714921 0.021489
C13   C     C_R   0.829135 0.137439 0.681476 0.085893
C14   C     C_R   0.821138 0.062529 0.719228 0.350357
C15   C     C_R   0.836767 0.089825 0.790001 -0.280368
C16   C     C_R   0.862687 0.312848 0.674229 -0.193037
C17   C     C_R   0.820363 0.183112 0.571755 -0.192855
C18   C     C_R   0.864411 0.217075 0.896687 -0.085248
H2    H     H_    0.866088 0.432781 0.800184 0.132583
C19   C     C_R   0.726445 0.178221 0.229204 -0.073396
C20   C     C_R   0.863376 0.192803 0.180968 -0.254932
C21   C     C_R   0.994744 0.275684 0.199734 0.360048
C22   C     C_R   0.984327 0.340624 0.264952 0.435600
C23   C     C_R   0.849655 0.321428 0.314152 -0.303949
C24   C     C_R   0.722139 0.239770 0.294618 -0.051183
C25   C     C_3   0.506144 0.241615 0.294168 0.681431
C26   C     C_3   0.511410 0.176447 0.222746 -0.361314
C27   C     C_R   0.465157 0.666509 0.734364 -0.090888
C28   C     C_R   0.353335 0.689008 0.682322 -0.168310
C29   C     C_R   0.226376 0.772683 0.700506 0.402532
C30   C     C_R   0.223359 0.831151 0.767869 -0.166057
C31   C     C_R   0.353709 0.813801 0.817044 -0.171419
C32   C     C_R   0.468279 0.728284 0.799148 -0.028112
C33   C     C_3   0.677713 0.710614 0.808843 0.170406
C34   C     C_3   0.673815 0.640407 0.737915 0.153782
H3    H     H_    0.695169 0.559459 0.737167 0.108384
C35   C     C_R   0.512571 0.875240 0.386052 0.357812
C36   C     C_R   0.368500 0.716150 0.396187 -0.129544
C37   C     C_R   0.272517 0.690128 0.072899 -0.359235
C38   C     C_R   0.263888 0.611008 0.106896 0.432435
C39   C     C_R   0.323272 0.627339 0.174709 0.357931
C40   C     C_R   0.374878 0.726590 0.211354 -0.096859
C41   C     C_R   0.410073 0.801027 0.173138 0.031471
C42   C     C_R   0.395400 0.754647 0.283823 0.056385
C43   C     C_R   0.483247 0.849127 0.314554 0.057435
C44   C     C_R   0.544255 0.913706 0.273119 -0.172957
C45   C     C_R   0.502766 0.891465 0.204313 -0.160282
C46   C     C_R   0.325414 0.693400 0.326985 -0.240734
C47   C     C_R   0.464477 0.805914 0.425008 -0.153685
C48   C     C_R   0.352958 0.783192 0.104287 -0.116105
H4    H     H_    0.241127 0.626202 0.307723 0.181054
H5    H     H_    0.548621 0.945070 0.175162 0.120871
O11   O     O_R   0.203450 0.916320 0.913910 -0.544110
O12   O     O_R   0.535520 0.888300 0.047620 -0.541818
O13   O     O_R   0.710860 0.083650 0.086100 -0.537891
C49   C     C_R   0.365787 0.862164 0.065051 0.731649
O14   O     O_R   0.532860 0.904250 0.912040 -0.542175
O15   O     O_R   0.708190 0.099710 0.949550 -0.542578
C50   C     C_R   0.364263 0.882608 0.884886 0.727728
O16   O     O_R   0.206120 0.900260 0.050460 -0.538768
O17   O     O_3   0.375280 0.064080 0.012470 -0.369592
V3    V     V_3+5 0.648180 0.988110 0.997690 1.471245
O18   O     O_R   0.038220 0.111740 0.952370 -0.544264
C51   C     C_R   0.870309 0.138817 0.936105 0.751789
O19   O     O_R   0.040880 0.095790 0.087940 -0.544228
C52   C     C_R   0.871862 0.120402 0.114037 0.739078
V4    V     V_3+5 0.148800 0.011950 0.002300 1.469114
O20   O     O_3   0.871820 0.935920 0.987530 -0.369624
H6    H     H_    0.805124 0.160812 0.517070 0.137503
O21   O     O_3   0.096141 0.427302 0.275876 -0.577573
H7    H     H_    0.034043 0.480173 0.310706 0.273302
O22   O     O_3   0.427947 0.337695 0.298743 -0.602556
H8    H     H_    0.493207 0.369305 0.264679 0.302042
O23   O     O_3   0.422481 0.191538 0.340978 -0.645969
H9    H     H_    0.444684 0.235362 0.386635 0.300573
H10   H     H_    0.461905 0.214760 0.182844 0.190522
H11   H     H_    0.446093 0.100953 0.219271 0.157354
O24   O     O_3   0.112036 0.804223 0.653810 -0.620737
H12   H     H_    0.164933 0.778671 0.607680 0.286384
H13   H     H_    0.128689 0.895295 0.780143 0.131887
O25   O     O_3   0.711218 0.660135 0.861311 -0.640238
H14   H     H_    0.618942 0.602583 0.856525 0.285498
H15   H     H_    0.769162 0.779460 0.813238 0.124467
O26   O     O_3   0.797340 0.962794 0.685997 -0.634551
H16   H     H_    0.789479 0.920449 0.719983 0.287869
O27   O     O_3   0.791523 0.674220 0.690367 -0.612291
H17   H     H_    0.753144 0.743585 0.688901 0.314281
H18   H     H_    0.499512 0.823036 0.478629 0.134780
H19   H     H_    0.622740 0.982961 0.293104 0.149334
O28   O     O_3   0.592527 0.965790 0.419688 -0.649734
H20   H     H_    0.546031 0.019474 0.398163 0.298428
H21   H     H_    0.226038 0.677567 0.020501 0.137424
O29   O     O_3   0.349174 0.542777 0.200291 -0.584919
H22   H     H_    0.465510 0.554434 0.229356 0.287507
O30   O     O_3   0.206337 0.515154 0.074095 -0.595339
H23   H     H_    0.175551 0.515030 0.026196 0.281269
H24   H     H_    0.883076 0.392112 0.695502 0.100251
O31   O     O_3   0.874470 0.341146 0.001882 -0.648132
H25   H     H_    0.868403 0.415231 0.018541 0.311534
H26   H     H_    0.876740 0.472637 0.921018 0.136034
H27   H     H_    0.832392 0.030424 0.817761 0.099861
O32   O     O_3   0.124659 0.301847 0.154312 -0.586090
H28   H     H_    0.077184 0.276161 0.107512 0.321916

loop_
_geom_bond_atom_site_label_1
_geom_bond_atom_site_label_2
_ccdc_geom_bond_type
O23   H9    S    
C27   C28   A    
C21   C22   A    
C36   C46   A    
C25   O23   S    
C1    O6    A    
O26   H16   S    
O22   H8    S    
C30   C31   A    
O13   V3    S    
C13   C14   A    
C9    H2    S    
O21   H7    S    
C5    C13   A    
C22   C23   A    
O5    C3    A    
C24   C25   S    
O19   V4    S    
O29   H22   S    
C22   O21   S    
V2    O10   S    
O30   H23   S    
C20   C21   A    
C3    C23   S    
C30   H13   S    
C32   C33   S    
O8    V2    S    
C27   C34   S    
O11   C50   A    
C33   C34   S    
C38   C39   A    
C27   C32   A    
C49   O16   A    
O1    V2    S    
C26   H10   S    
O7    V1    S    
C47   H18   S    
O13   C52   A    
C44   C45   A    
O17   V4    S    
O9    C4    A    
C31   C50   S    
C5    C17   A    
C36   C47   A    
C5    H1    S    
C12   C16   A    
C19   C26   S    
O17   V3    S    
C39   O29   S    
C35   C43   A    
C48   C49   S    
C16   H24   S    
O18   C51   A    
C8    H26   S    
O24   H12   S    
O4    C2    A    
O19   C52   A    
V3    O20   S    
C12   C13   A    
C31   C32   A    
C29   O24   S    
C41   C45   A    
O12   C49   A    
C17   H6    S    
C46   H4    S    
O2    C1    A    
C29   C30   A    
O5    V1    S    
C23   C24   A    
C20   C52   S    
C7    O31   S    
O27   H17   S    
C33   H15   S    
C40   C41   A    
C19   C20   A    
C41   C48   A    
C21   O32   S    
O3    C4    A    
C15   H27   S    
C34   H3    S    
C45   H5    S    
O6    V2    S    
C40   C42   A    
C35   C47   A    
O12   V3    S    
C28   C29   A    
C25   O22   S    
C6    C16   A    
O15   C51   A    
C37   C38   A    
C34   O27   S    
C39   C40   A    
C14   O26   S    
C18   C51   S    
O31   H25   S    
O1    C2    A    
C44   H19   S    
C4    C6    S    
C11   C15   A    
V4    O20   S    
C37   C48   A    
C37   H21   S    
O18   V4    S    
C42   C46   A    
O11   V4    S    
C19   C24   A    
O9    V2    S    
C43   C44   A    
C11   C18   A    
C2    C36   S    
O4    V1    S    
O3    V1    S    
V1    O10   S    
O15   V3    S    
C38   O30   S    
C42   C43   A    
C1    C28   S    
O16   V4    S    
C10   C12   A    
O7    V2    S    
O25   H14   S    
C10   C11   A    
C25   C26   S    
C35   O28   S    
C7    C8    A    
O14   V3    S    
O28   H20   S    
C9    C10   A    
O14   C50   A    
C26   H11   S    
C8    C9    A    
C6    C17   A    
C33   O25   S    
O32   H28   S    
O8    C3    A    
C14   C15   A    
C7    C18   A    
O2    V1    S    
