data_mof_unit_64450.cif
_audit_creation_date              2012-12-10T17:51:47-0500
_audit_creation_method            fapswitch 2.2
_symmetry_space_group_name_H-M    P1
_symmetry_Int_Tables_number       1
_space_group_crystal_system       triclinic
_cell_length_a                    18.601258
_cell_length_b                    18.667896
_cell_length_c                    18.833745
_cell_angle_alpha                 109.196228
_cell_angle_beta                  109.381293
_cell_angle_gamma                 109.111677
_cell_volume                      5078.94672377

loop_
_atom_site_label
_atom_site_type_symbol
_atom_type_description
_atom_site_fract_x
_atom_site_fract_y
_atom_site_fract_z
_atom_type_partial_charge
C1    C     C_R   0.620268 0.120128 0.999823 0.906437
C2    C     C_R   0.833466 0.257146 0.026132 0.445765
C3    C     C_R   0.813914 0.315009 0.000829 -0.251175
C4    C     C_R   0.730395 0.308807 0.976056 0.429781
C5    C     C_R   0.667453 0.243967 0.975842 -0.134009
C6    C     C_R   0.686467 0.186583 0.999962 -0.232845
C7    C     C_R   0.519279 0.755410 0.829363 -0.240920
C8    C     C_R   0.516282 0.689589 0.765589 0.150291
C9    C     C_R   0.498047 0.687832 0.686369 -0.289605
C10   C     C_R   0.484606 0.752941 0.671321 0.419630
C11   C     C_R   0.493401 0.821819 0.737851 0.455832
C12   C     C_R   0.496242 0.116887 0.118974 0.906604
C13   C     C_R   0.506741 0.820383 0.815571 -0.284984
C14   C     C_R   0.323394 0.818077 0.078377 -0.153739
C15   C     C_R   0.258829 0.754773 0.078362 -0.147274
C16   C     C_R   0.186483 0.685847 0.999711 -0.012384
C17   C     C_R   0.177388 0.680160 0.921107 -0.159067
C18   C     C_R   0.240652 0.744911 0.921234 -0.152407
C19   C     C_R   0.313664 0.813299 0.999859 -0.023896
C20   C     C_R   0.620302 0.502781 0.623026 0.922273
C21   C     C_R   0.504942 0.384094 0.388230 0.958390
C22   C     C_R   0.379983 0.503261 0.382868 0.917237
C23   C     C_R   0.379771 0.879698 0.999983 0.861214
C24   C     C_R   0.499858 0.622352 0.622460 0.892648
C25   C     C_R   0.879511 0.500652 0.881010 0.813838
C26   C     C_R   0.879467 0.380249 0.999723 0.814328
C27   C     C_R   0.118148 0.497007 0.119050 0.973506
C28   C     C_R   0.120201 0.620064 0.999794 0.853702
C29   C     C_R   0.768791 0.576481 0.743601 -0.146712
C30   C     C_R   0.833456 0.576804 0.806859 0.428903
C31   C     C_R   0.813540 0.501408 0.815926 -0.253713
C32   C     C_R   0.729709 0.426434 0.760939 0.432384
C33   C     C_R   0.666941 0.428432 0.698233 -0.135527
C34   C     C_R   0.502696 0.882894 0.880882 0.889937
C35   C     C_R   0.686371 0.502686 0.689436 -0.221211
C36   C     C_R   0.321162 0.497601 0.242643 0.038800
C37   C     C_R   0.256661 0.497648 0.177957 0.398182
C38   C     C_R   0.183086 0.495056 0.184644 -0.273613
C39   C     C_R   0.173983 0.495812 0.255955 0.113554
C40   C     C_R   0.241644 0.504728 0.324208 0.405947
C41   C     C_R   0.314108 0.503316 0.316332 -0.291548
C42   C     C_2   0.480093 0.237152 0.313908 -0.145842
C43   C     C_2   0.520184 0.320933 0.335953 -0.311510
C44   C     C_2   0.492175 0.175416 0.254130 0.122664
C45   C     C_2   0.484215 0.176074 0.180409 -0.057548
C46   C     C_R   0.768708 0.192991 0.024852 -0.155437
H1    H     H_    0.439659 0.214002 0.340413 0.194076
H2    H     H_    0.379933 0.871259 0.139246 0.177078
H3    H     H_    0.265715 0.758671 0.139161 0.159608
H4    H     H_    0.120893 0.626731 0.860290 0.154341
H5    H     H_    0.233494 0.741132 0.860411 0.158926
H6    H     H_    0.783323 0.634101 0.736538 0.196909
H7    H     H_    0.566452 0.344039 0.314778 0.185441
H8    H     H_    0.602829 0.371127 0.655604 0.197899
H9    H     H_    0.782860 0.147983 0.043472 0.195955
H10   H     H_    0.603465 0.238873 0.957242 0.202421
H11   H     H_    0.530621 0.755345 0.889626 0.205546
O1    O     O_R   0.539900 0.091920 0.948590 -0.619917
O2    O     O_R   0.643360 0.554400 0.594170 -0.628760
O3    O     O_R   0.448310 0.360490 0.412110 -0.619314
O4    O     O_R   0.551750 0.463920 0.412090 -0.603974
O5    O     O_R   0.356690 0.452080 0.412090 -0.597052
O6    O     O_R   0.460130 0.555510 0.412070 -0.596801
O7    O     O_R   0.448290 0.542560 0.594160 -0.594290
O8    O     O_R   0.551730 0.645990 0.594150 -0.606618
O9    O     O_R   0.908290 0.449200 0.857490 -0.615546
O10   O     O_R   0.908310 0.551980 0.960300 -0.600840
O11   O     O_R   0.908280 0.357000 0.948510 -0.609978
O12   O     O_R   0.643340 0.091290 0.051390 -0.617635
O13   O     O_R   0.908310 0.459790 0.051330 -0.602075
O14   O     O_R   0.091510 0.448020 0.039520 -0.560740
O15   O     O_R   0.091540 0.550800 0.142340 -0.614289
O16   O     O_R   0.091520 0.540220 0.948490 -0.604226
O17   O     O_R   0.091540 0.643000 0.051310 -0.619110
O18   O     O_R   0.448270 0.091350 0.039630 -0.591080
O19   O     O_R   0.551710 0.090720 0.142430 -0.595311
O20   O     O_R   0.356660 0.908710 0.948610 -0.615612
O21   O     O_R   0.460100 0.908080 0.051410 -0.610714
O22   O     O_R   0.448290 0.909280 0.857570 -0.601048
O23   O     O_R   0.551730 0.908650 0.960370 -0.616486
O24   O     O_R   0.539910 0.450960 0.594180 -0.613952
Zn1   Zn    Zn3+2 0.430930 0.000420 0.931360 1.047673
Zn2   Zn    Zn3+2 0.569070 0.999580 0.068640 1.031586
Zn3   Zn    Zn3+2 0.430950 0.434180 0.503140 1.045673
Zn4   Zn    Zn3+2 0.569090 0.572300 0.503120 1.041034
Zn5   Zn    Zn3+2 0.999890 0.431370 0.931260 1.054705
Zn6   Zn    Zn3+2 0.999930 0.568630 0.068560 1.043043
I1    I     I_    0.544417 0.598138 0.795660 -0.268502
O25   O     O_3   0.464741 0.752800 0.593642 -0.678002
H12   H     H_    0.440214 0.693259 0.546753 0.315501
O26   O     O_3   0.488283 0.888831 0.724383 -0.672302
H13   H     H_    0.524167 0.943405 0.780602 0.330014
O27   O     O_3   0.914531 0.651150 0.856576 -0.737564
H14   H     H_    0.958929 0.639971 0.890030 0.333307
O28   O     O_3   0.705498 0.350473 0.765758 -0.719340
H15   H     H_    0.753601 0.356494 0.814331 0.339377
I2    I     I_    0.421985 0.477708 0.222907 -0.226882
O29   O     O_3   0.262872 0.500020 0.107488 -0.720660
H16   H     H_    0.324816 0.525230 0.121906 0.362035
I3    I     I_    0.058481 0.482234 0.263935 -0.182365
O30   O     O_3   0.234437 0.513955 0.397062 -0.692712
H17   H     H_    0.293584 0.547232 0.448190 0.326841
I4    I     I_    0.512874 0.082893 0.287883 -0.313905
I5    I     I_    0.427501 0.245110 0.131174 -0.249507
O31   O     O_3   0.914114 0.260929 0.053209 -0.724400
H18   H     H_    0.958766 0.316100 0.064396 0.340289
O32   O     O_3   0.706439 0.362843 0.950648 -0.716108
H19   H     H_    0.754347 0.404467 0.949303 0.341460

loop_
_geom_bond_atom_site_label_1
_geom_bond_atom_site_label_2
_ccdc_geom_bond_type
C16   C28   S    
C25   C31   S    
O30   H17   S    
O11   Zn5   S    
C5    H10   S    
O28   H15   S    
C25   O10   A    
C28   O17   A    
O24   Zn3   S    
C7    C8    A    
C2    C46   A    
O27   H14   S    
C36   C37   A    
C37   C38   A    
C30   O27   S    
O1    Zn1   S    
C30   C31   A    
C22   C41   S    
O13   Zn6   S    
C27   C38   S    
C15   C16   A    
C11   C13   A    
C18   C19   A    
O7    Zn3   S    
C34   O23   A    
C22   O6    A    
C21   C43   S    
C20   C35   S    
O21   Zn2   S    
C43   H7    S    
C10   O25   S    
C8    C9    A    
C46   H9    S    
O32   H19   S    
C36   I2    S    
O17   Zn6   S    
C9    C10   A    
C21   O4    A    
C40   O30   S    
C24   O7    A    
C20   O24   A    
O6    Zn4   S    
C36   C41   A    
C42   C44   S    
O23   Zn2   S    
C28   O16   A    
O19   Zn2   S    
C37   O29   S    
C44   I4    S    
C18   H5    S    
C38   C39   A    
C4    O32   S    
C1    C6    S    
C21   O3    A    
C39   C40   A    
C16   C17   A    
C14   H2    S    
C1    O12   A    
C8    I1    S    
C19   C23   S    
O2    Zn4   S    
C29   C30   A    
O12   Zn2   S    
C45   I5    S    
C34   O22   A    
C22   O5    A    
O14   Zn5   S    
C31   C32   A    
C7    C13   A    
C17   C18   A    
O18   Zn1   S    
C23   O20   A    
C20   O2    A    
O4    Zn4   S    
C24   O8    A    
C40   C41   A    
C12   O19   A    
C26   O13   A    
C42   C43   D    
C3    C4    A    
O26   H13   S    
O15   Zn6   S    
C27   O14   A    
C44   C45   D    
C33   H8    S    
O5    Zn3   S    
C6    C46   A    
C14   C19   A    
C3    C26   S    
C25   O9    A    
C12   C45   S    
C17   H4    S    
O9    Zn5   S    
O22   Zn1   S    
C9    C24   S    
O8    Zn4   S    
O31   H18   S    
C29   C35   A    
C2    O31   S    
O10   Zn6   S    
C26   O11   A    
C32   C33   A    
C2    C3    A    
C13   C34   S    
C1    O1    A    
O3    Zn3   S    
C39   I3    S    
C5    C6    A    
O20   Zn1   S    
C33   C35   A    
C42   H1    S    
C15   H3    S    
C23   O21   A    
O16   Zn5   S    
C10   C11   A    
C11   O26   S    
C4    C5    A    
C32   O28   S    
O29   H16   S    
C12   O18   A    
C14   C15   A    
O25   H12   S    
C7    H11   S    
C27   O15   A    
C29   H6    S    
