data_mof_unit_60716.cif
_audit_creation_date              2012-12-10T18:16:38-0500
_audit_creation_method            fapswitch 2.2
_symmetry_space_group_name_H-M    P1
_symmetry_Int_Tables_number       1
_space_group_crystal_system       triclinic
_cell_length_a                    38.671441
_cell_length_b                    32.25885
_cell_length_c                    21.436546
_cell_angle_alpha                 89.997266
_cell_angle_beta                  123.505877
_cell_angle_gamma                 90.002829
_cell_volume                      22298.2688629

loop_
_atom_site_label
_atom_site_type_symbol
_atom_type_description
_atom_site_fract_x
_atom_site_fract_y
_atom_site_fract_z
_atom_type_partial_charge
C1    C     C_R   0.920434 0.000001 0.420353 0.815394
C2    C     C_R   0.079565 0.000002 0.579646 0.815383
C3    C     C_R   0.420434 0.500001 0.420352 0.815281
C4    C     C_R   0.579565 0.500006 0.579552 0.814183
C5    C     C_3   0.999757 0.000281 0.688412 -0.255536
C6    C     C_3   0.000244 0.000286 0.311588 -0.255523
C7    C     C_3   0.499822 0.500273 0.688483 -0.255814
C8    C     C_3   0.500242 0.500285 0.311587 -0.255404
C9    C     C_R   0.727898 0.961437 0.217847 0.357521
C10   C     C_R   0.272100 0.961444 0.782194 0.357526
C11   C     C_R   0.227898 0.461438 0.217831 0.357527
C12   C     C_R   0.771804 0.461242 0.782537 0.358937
C13   C     C_R   0.706307 0.999263 0.202358 -0.153193
C14   C     C_R   0.293693 0.999267 0.797637 -0.153200
C15   C     C_R   0.206307 0.499263 0.202352 -0.153183
C16   C     C_R   0.793715 0.498998 0.798195 -0.150423
C17   C     C_R   0.728411 0.036699 0.229052 0.457302
C18   C     C_R   0.271591 0.036701 0.770895 0.457299
C19   C     C_R   0.228411 0.536700 0.229053 0.457314
C20   C     C_R   0.771800 0.536526 0.770789 0.459946
C21   C     C_R   0.771916 0.036261 0.270885 -0.350008
C22   C     C_R   0.228086 0.036264 0.729061 -0.349996
C23   C     C_R   0.271916 0.536262 0.270886 -0.350013
C24   C     C_R   0.728283 0.536335 0.728294 -0.352941
C25   C     C_R   0.793640 0.998824 0.288211 -0.106363
C26   C     C_R   0.206360 0.998829 0.711780 -0.106371
C27   C     C_R   0.293640 0.498825 0.288203 -0.106351
C28   C     C_R   0.706380 0.499016 0.710445 -0.109911
C29   C     C_R   0.771635 0.961133 0.260672 0.434034
C30   C     C_R   0.228363 0.961141 0.739364 0.434030
C31   C     C_R   0.271635 0.461135 0.260654 0.434041
C32   C     C_R   0.728072 0.461292 0.738109 0.431818
C33   C     C_1   0.661437 0.999655 0.159696 0.097313
C34   C     C_1   0.338563 0.999658 0.840301 0.097282
C35   C     C_1   0.161437 0.499655 0.159693 0.097333
C36   C     C_1   0.838572 0.499410 0.840588 0.091074
C37   C     C_1   0.838420 0.999530 0.335521 0.045562
C38   C     C_1   0.161579 0.999534 0.664471 0.045561
C39   C     C_1   0.338420 0.499531 0.335516 0.045557
C40   C     C_1   0.661587 0.499695 0.663480 0.051702
C41   C     C_1   0.875857 0.999919 0.374576 -0.176631
C42   C     C_1   0.124143 0.999922 0.625420 -0.176639
C43   C     C_1   0.375857 0.499919 0.374573 -0.176665
C44   C     C_1   0.624147 0.499960 0.624889 -0.166926
C45   C     C_R   0.999959 0.000056 0.620465 0.898045
C46   C     C_R   0.000042 0.000058 0.379536 0.898064
C47   C     C_R   0.500005 0.500054 0.620514 0.897867
C48   C     C_R   0.500040 0.500058 0.379534 0.897635
C49   C     C_1   0.623988 0.999870 0.123392 -0.159766
C50   C     C_1   0.376012 0.999872 0.876608 -0.159783
C51   C     C_1   0.123988 0.499870 0.123391 -0.159823
C52   C     C_1   0.876020 0.499760 0.876674 -0.168357
C53   C     C_R   1.000000 0.920491 1.000000 0.841802
C54   C     C_R   0.499999 0.420491 0.999994 0.841743
C55   C     C_R   0.000054 0.000348 0.879521 0.919308
C56   C     C_R   0.999946 0.000348 0.120479 0.919319
C57   C     C_R   0.500051 0.500354 0.879522 0.919360
C58   C     C_R   0.499945 0.500343 0.120479 0.919275
C59   C     C_R   0.000001 0.079613 0.000001 0.817728
C60   C     C_R   0.500001 0.579613 0.000000 0.817734
C61   C     C_R   0.500003 0.920680 0.000004 0.805236
C62   C     C_R   0.999999 0.420679 1.000000 0.804234
C63   C     C_R   0.579389 0.000007 0.079237 0.807076
C64   C     C_R   0.420611 0.000007 0.920762 0.807087
C65   C     C_R   0.079389 0.500006 0.079237 0.807275
C66   C     C_R   0.920613 0.499997 0.920769 0.807180
C67   C     C_R   0.500000 0.079431 0.999998 0.806996
C68   C     C_R   1.000000 0.579430 0.999998 0.807516
C69   C     C_R   0.482190 0.228087 0.032444 0.365072
C70   C     C_R   0.517770 0.228088 0.967441 0.365090
C71   C     C_R   0.982096 0.728085 0.032295 0.365055
C72   C     C_R   0.017900 0.728090 0.967695 0.365086
C73   C     C_R   0.499986 0.206290 0.999955 -0.239195
C74   C     C_R   0.999998 0.706290 0.999994 -0.239183
C75   C     C_R   0.018109 0.771727 0.967900 0.369167
C76   C     C_R   0.981887 0.771722 0.032092 0.369167
C77   C     C_R   0.517973 0.271726 0.967630 0.369155
C78   C     C_R   0.481977 0.271724 0.032230 0.369232
C79   C     C_3   0.965178 0.980062 0.694497 -0.433972
C80   C     C_3   0.034816 0.980058 0.305500 -0.433962
C81   C     C_3   0.465134 0.480202 0.694425 -0.433758
C82   C     C_3   0.534838 0.480096 0.305526 -0.433986
C83   C     C_R   0.999998 0.793668 0.999996 -0.229480
C84   C     C_R   0.499978 0.293668 0.999935 -0.229494
C85   C     C_1   0.499993 0.161417 0.999974 0.121164
C86   C     C_1   0.999999 0.661417 0.999995 0.121179
C87   C     C_1   0.999998 0.838522 0.999997 0.097875
C88   C     C_1   0.499987 0.338523 0.999953 0.097860
C89   C     C_1   0.999998 0.875953 0.999998 -0.169521
C90   C     C_1   0.499995 0.375953 0.999974 -0.169573
C91   C     C_1   0.499998 0.123989 0.999989 -0.163185
C92   C     C_1   0.999999 0.623989 0.999996 -0.163216
C93   C     C_R   0.485205 0.771982 0.932875 0.374687
C94   C     C_R   0.514876 0.771977 0.067175 0.374730
C95   C     C_R   0.985029 0.271979 0.932807 0.374720
C96   C     C_R   0.014974 0.271976 0.067203 0.374690
C97   C     C_R   0.500034 0.793818 0.000024 -0.231200
C98   C     C_R   0.000000 0.293815 0.000005 -0.231105
C99   C     C_R   0.014784 0.228339 0.067241 0.329955
C100  C     C_R   0.985221 0.228342 0.932770 0.329926
C101  C     C_R   0.514683 0.728341 0.067207 0.330003
C102  C     C_R   0.485407 0.728345 0.932845 0.329940
C103  C     C_R   0.000003 0.206417 0.000005 -0.239823
C104  C     C_R   0.500037 0.706419 0.000022 -0.239890
C105  C     C_1   0.500024 0.838692 0.000023 0.109546
C106  C     C_1   0.999999 0.338691 0.000004 0.109683
C107  C     C_3   0.999944 0.961352 0.770283 0.362602
C108  C     C_3   0.000045 0.961355 0.229713 0.362595
C109  C     C_3   0.499794 0.461353 0.770172 0.361693
C110  C     C_3   0.500090 0.461349 0.229764 0.362575
C111  C     C_1   0.000002 0.161573 0.000005 0.065299
C112  C     C_1   0.500020 0.661575 0.000010 0.065459
C113  C     C_1   0.000002 0.124146 0.000003 -0.188447
C114  C     C_1   0.500007 0.624147 0.000002 -0.188360
C115  C     C_1   0.500014 0.876123 0.000016 -0.167428
C116  C     C_1   0.999999 0.376122 0.000003 -0.167725
C117  C     C_3   0.000173 0.000588 0.811523 -0.241212
C118  C     C_3   0.999827 0.000591 0.188477 -0.241202
C119  C     C_3   0.500161 0.500592 0.811523 -0.241176
C120  C     C_3   0.499825 0.500583 0.188476 -0.241223
C121  C     C_3   0.965856 0.019582 0.736205 0.361099
C122  C     C_3   0.034149 0.019578 0.263796 0.361095
C123  C     C_3   0.465947 0.519720 0.736258 0.361406
C124  C     C_3   0.534124 0.519613 0.263772 0.361087
C125  C     C_3   0.999604 0.039769 0.729440 0.343732
C126  C     C_3   0.000407 0.039773 0.270565 0.343717
C127  C     C_3   0.499798 0.539766 0.729642 0.343412
C128  C     C_3   0.500358 0.539770 0.270513 0.343721
C129  C     C_3   0.034079 0.020360 0.803677 0.214324
C130  C     C_3   0.965927 0.020371 0.196326 0.214334
C131  C     C_3   0.534171 0.520214 0.803829 0.214646
C132  C     C_3   0.465901 0.520324 0.196299 0.214345
C133  C     C_3   0.034030 0.980795 0.763637 0.290716
C134  C     C_3   0.965965 0.980805 0.236362 0.290714
C135  C     C_3   0.533986 0.480647 0.763664 0.291017
C136  C     C_3   0.465986 0.480761 0.236387 0.290744
Cu1   Cu    Cu3+1 0.000000 0.041030 0.500000 1.006683
Cu2   Cu    Cu3+1 0.500000 0.541030 0.500000 1.006349
Cu3   Cu    Cu3+1 0.000000 0.958990 0.500000 0.973000
Cu4   Cu    Cu3+1 0.500000 0.458990 0.500000 0.974757
Cu5   Cu    Cu3+1 0.041030 0.000050 0.040990 1.005606
Cu6   Cu    Cu3+1 0.958970 0.000050 0.959010 1.005616
Cu7   Cu    Cu3+1 0.541030 0.500050 0.040990 1.005646
Cu8   Cu    Cu3+1 0.458970 0.500050 0.959010 1.005661
Cu9   Cu    Cu3+1 0.500010 0.000050 0.062750 0.980287
Cu10  Cu    Cu3+1 0.499990 0.000050 0.937250 0.980279
Cu11  Cu    Cu3+1 0.000010 0.500050 0.062750 0.979387
Cu12  Cu    Cu3+1 0.999990 0.500050 0.937250 0.980091
H1    H     H_    0.788744 0.065276 0.290722 0.187948
H2    H     H_    0.211260 0.065278 0.709187 0.187957
H3    H     H_    0.288744 0.565277 0.290728 0.187932
H4    H     H_    0.711606 0.565421 0.708334 0.187740
H5    H     H_    0.937509 0.963806 0.648255 0.158510
H6    H     H_    0.062481 0.963797 0.351741 0.158514
H7    H     H_    0.437404 0.464071 0.648084 0.158319
H8    H     H_    0.562523 0.463870 0.351790 0.158600
O1    O     O_R   0.940150 0.034650 0.440170 -0.585838
O2    O     O_R   0.059850 0.034650 0.559830 -0.585833
O3    O     O_R   0.440150 0.534650 0.440170 -0.585857
O4    O     O_R   0.559850 0.534650 0.559830 -0.587446
O5    O     O_R   0.559860 0.000050 0.112810 -0.575824
O6    O     O_R   0.440140 0.000050 0.887190 -0.575830
O7    O     O_R   0.059860 0.500050 0.112810 -0.575700
O8    O     O_R   0.940140 0.500050 0.887190 -0.575147
O9    O     O_R   0.559850 0.999980 0.006800 -0.579122
O10   O     O_R   0.440150 0.999980 0.993200 -0.579125
O11   O     O_R   0.059850 0.499980 0.006800 -0.579075
O12   O     O_R   0.940150 0.499980 0.993200 -0.580023
O13   O     O_R   0.500000 0.059900 0.052920 -0.572748
O14   O     O_R   0.500000 0.059900 0.947080 -0.572749
O15   O     O_R   0.000000 0.559900 0.052920 -0.572514
O16   O     O_R   0.000000 0.559900 0.947080 -0.572680
O17   O     O_R   0.940170 0.965370 0.440140 -0.577941
O18   O     O_R   0.059830 0.965370 0.559860 -0.577937
O19   O     O_R   0.440170 0.465370 0.440140 -0.578037
O20   O     O_R   0.559830 0.465370 0.559860 -0.574825
O21   O     O_R   0.000010 0.034650 0.591580 -0.554547
O22   O     O_R   0.999990 0.034650 0.408420 -0.554556
O23   O     O_R   0.500010 0.534650 0.591580 -0.554568
O24   O     O_R   0.499990 0.534650 0.408420 -0.554620
O25   O     O_R   0.000020 0.965370 0.591550 -0.585326
O26   O     O_R   0.999980 0.965370 0.408450 -0.585334
O27   O     O_R   0.500020 0.465370 0.591550 -0.585096
O28   O     O_R   0.499980 0.465370 0.408450 -0.585471
O29   O     O_R   0.034640 0.940200 0.034570 -0.589967
O30   O     O_R   0.965360 0.940200 0.965430 -0.589960
O31   O     O_R   0.534640 0.440200 0.034570 -0.589999
O32   O     O_R   0.465360 0.440200 0.965430 -0.589938
O33   O     O_R   0.034640 0.000050 0.943030 -0.572738
O34   O     O_R   0.965360 0.000050 0.056970 -0.572739
O35   O     O_R   0.534640 0.500050 0.943030 -0.572804
O36   O     O_R   0.465360 0.500050 0.056970 -0.572720
O37   O     O_R   0.965370 0.000070 0.873780 -0.556820
O38   O     O_R   0.034630 0.000070 0.126220 -0.556820
O39   O     O_R   0.465370 0.500070 0.873780 -0.556877
O40   O     O_R   0.534630 0.500070 0.126220 -0.556802
O41   O     O_R   0.034650 0.059910 0.034650 -0.580461
O42   O     O_R   0.965350 0.059910 0.965350 -0.580446
O43   O     O_R   0.534650 0.559910 0.034650 -0.580401
O44   O     O_R   0.465350 0.559910 0.965350 -0.580418
O45   O     O_R   0.500030 0.940190 0.053050 -0.573122
O46   O     O_R   0.499970 0.940190 0.946950 -0.573131
O47   O     O_R   0.000030 0.440190 0.053050 -0.573538
O48   O     O_R   0.999970 0.440190 0.946950 -0.573100
O49   O     O_3   0.000837 0.921474 0.798113 -0.590398
C137  C     C_3   0.991680 0.891559 0.743073 0.038379
H9    H     H_    0.010923 0.895888 0.719531 0.177640
H10   H     H_    0.958266 0.893026 0.697098 0.159542
C138  C     C_3   0.000678 0.848684 0.778155 -0.701647
H11   H     H_    0.981785 0.843210 0.801884 0.273113
H12   H     H_    0.992909 0.824722 0.735120 0.201272
H13   H     H_    0.034072 0.846060 0.823441 0.252497
O50   O     O_3   0.999141 0.921477 0.201878 -0.590398
C139  C     C_3   0.008291 0.891560 0.256914 0.038389
H14   H     H_    0.989046 0.895892 0.280452 0.177637
H15   H     H_    0.041704 0.893022 0.302891 0.159542
C140  C     C_3   0.999285 0.848687 0.221827 -0.701676
H16   H     H_    0.018180 0.843211 0.198104 0.273130
H17   H     H_    0.007045 0.824723 0.264858 0.201279
H18   H     H_    0.965891 0.846069 0.176535 0.252459
O51   O     O_3   0.500518 0.421481 0.797868 -0.590596
C141  C     C_3   0.490898 0.391611 0.742515 0.037785
H19   H     H_    0.509940 0.395790 0.718532 0.176811
H20   H     H_    0.457428 0.393312 0.696897 0.159846
C142  C     C_3   0.499720 0.348681 0.777359 -0.701914
H21   H     H_    0.481024 0.343368 0.801527 0.272929
H22   H     H_    0.491574 0.324762 0.734074 0.201355
H23   H     H_    0.533158 0.345807 0.822272 0.252501
O52   O     O_3   0.499234 0.421466 0.201991 -0.590405
C143  C     C_3   0.508441 0.391570 0.257090 0.038407
H24   H     H_    0.489214 0.395889 0.280666 0.177614
H25   H     H_    0.541860 0.393074 0.303032 0.159651
C144  C     C_3   0.499473 0.348680 0.222076 -0.701620
H26   H     H_    0.518347 0.343219 0.198307 0.273225
H27   H     H_    0.507288 0.324735 0.265162 0.201283
H28   H     H_    0.466075 0.346017 0.176834 0.252393
O53   O     O_3   0.966254 0.792181 0.068247 -0.539224
C145  C     C_3   0.927648 0.810594 0.015260 -0.299643
H29   H     H_    0.910475 0.794911 0.959615 0.130165
H30   H     H_    0.932083 0.843800 0.008009 0.180976
H31   H     H_    0.907680 0.809245 0.037464 0.178156
O54   O     O_3   0.033743 0.792191 0.931746 -0.539233
C146  C     C_3   0.072348 0.810608 0.984735 -0.299663
H32   H     H_    0.089517 0.794929 0.040386 0.130166
H33   H     H_    0.067911 0.843814 0.991970 0.180983
H34   H     H_    0.092320 0.809255 0.962539 0.178156
O55   O     O_3   0.466444 0.292185 0.068553 -0.539219
C147  C     C_3   0.427808 0.310594 0.015704 -0.299776
H35   H     H_    0.410564 0.294912 0.960059 0.130176
H36   H     H_    0.432217 0.343801 0.008417 0.181004
H37   H     H_    0.407920 0.309237 0.038073 0.178113
O56   O     O_3   0.533474 0.292187 0.931249 -0.539220
C148  C     C_3   0.572107 0.310620 0.984042 -0.299779
H38   H     H_    0.589374 0.294959 0.039707 0.130218
H39   H     H_    0.567689 0.343829 0.991294 0.180954
H40   H     H_    0.591977 0.309260 0.961636 0.178091
O57   O     O_3   0.467478 0.206892 0.069374 -0.525840
C149  C     C_3   0.425566 0.196396 0.017371 -0.244131
H41   H     H_    0.421587 0.176934 0.970973 0.143383
H42   H     H_    0.405804 0.224508 0.994454 0.154314
H43   H     H_    0.414420 0.178008 0.046652 0.187880
O58   O     O_3   0.532481 0.206892 0.930514 -0.525837
C150  C     C_3   0.574399 0.196417 0.982511 -0.244148
H44   H     H_    0.578391 0.176959 0.028928 0.143386
H45   H     H_    0.594150 0.224538 0.005402 0.154299
H46   H     H_    0.585546 0.178031 0.953233 0.187889
O59   O     O_3   0.967273 0.706886 0.069038 -0.525855
C151  C     C_3   0.925381 0.696395 0.016853 -0.243971
H47   H     H_    0.921490 0.676943 0.970512 0.143439
H48   H     H_    0.905628 0.724509 0.993867 0.154274
H49   H     H_    0.914151 0.677998 0.045987 0.187949
O60   O     O_3   0.032726 0.706896 0.930954 -0.525842
C152  C     C_3   0.074618 0.696409 0.983142 -0.244128
H50   H     H_    0.078508 0.676951 0.029478 0.143347
H51   H     H_    0.094369 0.724525 0.006135 0.154314
H52   H     H_    0.085851 0.678020 0.954008 0.187916
O61   O     O_3   0.973355 0.207818 0.867032 -0.534170
C153  C     C_3   0.933576 0.189974 0.835245 0.101399
H53   H     H_    0.914150 0.205838 0.851826 0.110524
H54   H     H_    0.936925 0.156906 0.852062 0.161539
C154  C     C_3   0.910426 0.191709 0.750413 -0.785488
H55   H     H_    0.928094 0.174871 0.731511 0.241634
H56   H     H_    0.879426 0.177125 0.724748 0.195298
H57   H     H_    0.906310 0.224419 0.731453 0.255540
O62   O     O_3   0.026652 0.207812 0.132980 -0.534156
C155  C     C_3   0.066431 0.189971 0.164763 0.101378
H58   H     H_    0.085855 0.205837 0.148175 0.110461
H59   H     H_    0.063081 0.156903 0.147948 0.161535
C156  C     C_3   0.089585 0.191705 0.249595 -0.785488
H60   H     H_    0.071919 0.174866 0.268504 0.241636
H61   H     H_    0.120584 0.177122 0.275256 0.195284
H62   H     H_    0.093702 0.224415 0.268553 0.255548
O63   O     O_3   0.473702 0.707818 0.867193 -0.534216
C157  C     C_3   0.433875 0.690027 0.835065 0.101369
H63   H     H_    0.414366 0.705885 0.851468 0.110482
H64   H     H_    0.437140 0.656943 0.851762 0.161473
C158  C     C_3   0.410907 0.691851 0.750267 -0.785614
H65   H     H_    0.428613 0.674941 0.731515 0.241680
H66   H     H_    0.379834 0.677396 0.724337 0.195191
H67   H     H_    0.406962 0.724576 0.731449 0.255801
O64   O     O_3   0.526431 0.707811 0.132883 -0.534166
C159  C     C_3   0.566236 0.689990 0.164901 0.101380
H68   H     H_    0.585715 0.705822 0.148401 0.110488
H69   H     H_    0.562930 0.656903 0.148204 0.161512
C160  C     C_3   0.589283 0.691817 0.249712 -0.785591
H70   H     H_    0.571577 0.674995 0.268553 0.241624
H71   H     H_    0.620310 0.677271 0.275553 0.195232
H72   H     H_    0.593333 0.724547 0.268544 0.255605
O65   O     O_3   0.473080 0.792998 0.867546 -0.524817
C161  C     C_3   0.431203 0.804960 0.832276 -0.252231
H73   H     H_    0.410692 0.778052 0.821654 0.142169
H74   H     H_    0.420761 0.818911 0.777272 0.188506
H75   H     H_    0.427338 0.828790 0.865398 0.153029
O66   O     O_3   0.527024 0.792988 0.132517 -0.524796
C162  C     C_3   0.568901 0.804946 0.167747 -0.252074
H76   H     H_    0.589401 0.778042 0.178287 0.142124
H77   H     H_    0.579374 0.818863 0.222788 0.188502
H78   H     H_    0.572747 0.828802 0.134635 0.153026
O67   O     O_3   0.972763 0.292996 0.867412 -0.524842
C163  C     C_3   0.930896 0.304936 0.832394 -0.252029
H79   H     H_    0.910420 0.278008 0.821842 0.142415
H80   H     H_    0.920350 0.318932 0.777373 0.188384
H81   H     H_    0.927104 0.328725 0.865668 0.152876
O68   O     O_3   0.027242 0.292991 0.132599 -0.524835
C164  C     C_3   0.069108 0.304934 0.167613 -0.252055
H82   H     H_    0.089584 0.278008 0.178162 0.142252
H83   H     H_    0.079657 0.318926 0.222636 0.188552
H84   H     H_    0.072898 0.328725 0.134338 0.152930
O69   O     O_3   0.931255 0.039927 0.727935 -0.562616
C165  C     C_3   0.901045 0.046464 0.651297 0.087822
H85   H     H_    0.886174 0.016575 0.623493 0.149649
H86   H     H_    0.914577 0.061138 0.622323 0.166194
C166  C     C_3   0.867678 0.075180 0.643420 -0.798802
H87   H     H_    0.881527 0.105505 0.670047 0.241429
H88   H     H_    0.843491 0.080292 0.583268 0.201423
H89   H     H_    0.853040 0.061208 0.670767 0.256638
O70   O     O_3   0.068756 0.039914 0.272068 -0.562612
C167  C     C_3   0.098965 0.046451 0.348706 0.087824
H90   H     H_    0.113830 0.016561 0.376516 0.149641
H91   H     H_    0.085435 0.061131 0.377674 0.166210
C168  C     C_3   0.132339 0.075161 0.356583 -0.798808
H92   H     H_    0.118496 0.105485 0.329948 0.241436
H93   H     H_    0.156524 0.080272 0.416734 0.201419
H94   H     H_    0.146976 0.061182 0.329241 0.256633
O71   O     O_3   0.431399 0.540181 0.727990 -0.562830
C169  C     C_3   0.401323 0.546986 0.651377 0.087986
H95   H     H_    0.386374 0.517199 0.623172 0.149418
H96   H     H_    0.415009 0.561763 0.622754 0.166897
C170  C     C_3   0.367999 0.575730 0.643590 -0.798852
H97   H     H_    0.381934 0.605951 0.670624 0.241703
H98   H     H_    0.343921 0.581062 0.583455 0.201401
H99   H     H_    0.353207 0.561662 0.670589 0.256622
O72   O     O_3   0.568710 0.539985 0.272023 -0.562634
C171  C     C_3   0.598906 0.546566 0.348654 0.087806
H100  H     H_    0.613802 0.516696 0.376515 0.149710
H101  H     H_    0.585353 0.561240 0.377588 0.166180
C172  C     C_3   0.632250 0.575307 0.356497 -0.798853
H102  H     H_    0.618373 0.605612 0.329810 0.241455
H103  H     H_    0.656425 0.580455 0.416643 0.201413
H104  H     H_    0.646909 0.561335 0.329190 0.256650
O73   O     O_3   0.999162 0.080030 0.703131 -0.576724
C173  C     C_3   0.995721 0.109703 0.747710 -0.271954
H105  H     H_    0.018965 0.104976 0.808499 0.187942
H106  H     H_    0.964004 0.109864 0.736038 0.192413
H107  H     H_    0.001353 0.140842 0.733098 0.188889
O74   O     O_3   0.000863 0.080033 0.296883 -0.576731
C174  C     C_3   0.004301 0.109706 0.252296 -0.271964
H108  H     H_    0.981039 0.104992 0.191512 0.187985
H109  H     H_    0.036010 0.109851 0.263927 0.192411
H110  H     H_    0.998697 0.140848 0.266939 0.188906
O75   O     O_3   0.499474 0.580022 0.703421 -0.576627
C175  C     C_3   0.496512 0.609733 0.748492 -0.272085
H111  H     H_    0.520376 0.605219 0.809056 0.189216
H112  H     H_    0.465113 0.609702 0.738264 0.192380
H113  H     H_    0.501601 0.640885 0.733063 0.189053
O76   O     O_3   0.500769 0.580032 0.296783 -0.576710
C176  C     C_3   0.504150 0.609706 0.252132 -0.272142
H114  H     H_    0.480841 0.604990 0.191368 0.188096
H115  H     H_    0.535833 0.609855 0.263649 0.192434
H116  H     H_    0.498567 0.640847 0.266813 0.188928
O77   O     O_3   0.068861 0.040502 0.864423 -0.574410
C177  C     C_3   0.094541 0.055935 0.842017 0.085469
H117  H     H_    0.078553 0.080695 0.799294 0.186161
H118  H     H_    0.104321 0.031007 0.819131 0.177151
C178  C     C_3   0.133397 0.074449 0.909608 -0.800734
H119  H     H_    0.150506 0.050251 0.953044 0.250222
H120  H     H_    0.153864 0.086867 0.892752 0.204886
H121  H     H_    0.124890 0.100058 0.933321 0.256028
O78   O     O_3   0.931151 0.040521 0.135583 -0.574410
C179  C     C_3   0.905470 0.055953 0.157987 0.085401
H122  H     H_    0.921473 0.080683 0.200766 0.186171
H123  H     H_    0.895655 0.031015 0.180799 0.177162
C180  C     C_3   0.866644 0.074520 0.090415 -0.800673
H124  H     H_    0.849519 0.050355 0.046921 0.250239
H125  H     H_    0.846175 0.086936 0.107269 0.204888
H126  H     H_    0.875188 0.100141 0.066776 0.256026
O79   O     O_3   0.568982 0.540258 0.864690 -0.573798
C181  C     C_3   0.595011 0.555172 0.842691 0.084662
H127  H     H_    0.578907 0.578825 0.797804 0.185785
H128  H     H_    0.605894 0.529648 0.822823 0.177970
C182  C     C_3   0.632924 0.575379 0.909604 -0.800553
H129  H     H_    0.650175 0.552318 0.955201 0.251090
H130  H     H_    0.653691 0.587338 0.893080 0.204565
H131  H     H_    0.623273 0.601577 0.930322 0.255647
O80   O     O_3   0.431101 0.540433 0.135531 -0.574354
C183  C     C_3   0.405391 0.555818 0.157905 0.085311
H132  H     H_    0.421374 0.580522 0.200745 0.186160
H133  H     H_    0.395560 0.530845 0.180629 0.177190
C184  C     C_3   0.366580 0.574409 0.090338 -0.800612
H134  H     H_    0.349474 0.550269 0.046784 0.250266
H135  H     H_    0.346088 0.586786 0.107168 0.204878
H136  H     H_    0.375140 0.600063 0.066785 0.256026
O81   O     O_3   0.068513 0.960670 0.770998 -0.591370
C185  C     C_3   0.093653 0.943441 0.843258 0.098696
H137  H     H_    0.078378 0.915902 0.848960 0.181365
H138  H     H_    0.100763 0.966217 0.887837 0.181248
C186  C     C_3   0.134483 0.929519 0.855355 -0.856087
H139  H     H_    0.150668 0.956443 0.850229 0.246241
H140  H     H_    0.154642 0.915878 0.912067 0.207562
H141  H     H_    0.128662 0.905789 0.813060 0.251975
O82   O     O_3   0.931478 0.960690 0.229005 -0.591379
C187  C     C_3   0.906332 0.943462 0.156747 0.098654
H142  H     H_    0.921601 0.915921 0.151042 0.181372
H143  H     H_    0.899223 0.966237 0.112165 0.181228
C188  C     C_3   0.865502 0.929545 0.144660 -0.856053
H144  H     H_    0.849323 0.956470 0.149792 0.246249
H145  H     H_    0.845337 0.915905 0.087949 0.207562
H146  H     H_    0.871321 0.905813 0.186956 0.251963
O83   O     O_3   0.568505 0.460416 0.771342 -0.590557
C189  C     C_3   0.593094 0.442593 0.843235 0.100271
H147  H     H_    0.577817 0.414453 0.847011 0.181008
H148  H     H_    0.599266 0.464650 0.888233 0.179957
C190  C     C_3   0.634587 0.429753 0.857024 -0.854260
H149  H     H_    0.650975 0.457357 0.854592 0.243685
H150  H     H_    0.654112 0.415256 0.913139 0.207313
H151  H     H_    0.629705 0.407010 0.813964 0.252890
O84   O     O_3   0.431522 0.460606 0.229054 -0.591351
C191  C     C_3   0.406409 0.443329 0.156830 0.098645
H152  H     H_    0.421707 0.415785 0.151213 0.181360
H153  H     H_    0.399299 0.466073 0.112203 0.181172
C192  C     C_3   0.365576 0.429401 0.144724 -0.856079
H154  H     H_    0.349367 0.456329 0.149763 0.246200
H155  H     H_    0.345439 0.415718 0.088042 0.207562
H156  H     H_    0.371398 0.405702 0.187068 0.251986
O85   O     O_3   0.792037 0.923362 0.279400 -0.534578
C193  C     C_3   0.810509 0.917589 0.238628 -0.289703
H157  H     H_    0.842642 0.929853 0.270565 0.186457
H158  H     H_    0.792614 0.931740 0.181706 0.121462
H159  H     H_    0.812482 0.883832 0.231219 0.189642
O86   O     O_3   0.207958 0.923370 0.720678 -0.534573
C194  C     C_3   0.189484 0.917624 0.761451 -0.289666
H160  H     H_    0.157349 0.929881 0.729490 0.186471
H161  H     H_    0.207373 0.931800 0.818352 0.121445
H162  H     H_    0.187516 0.883872 0.768910 0.189649
O87   O     O_3   0.292038 0.423364 0.279369 -0.534582
C195  C     C_3   0.310509 0.417599 0.238595 -0.289710
H163  H     H_    0.342642 0.429865 0.270533 0.186449
H164  H     H_    0.292613 0.431755 0.181676 0.121446
H165  H     H_    0.312483 0.383844 0.231177 0.189637
O88   O     O_3   0.706934 0.423960 0.716835 -0.532941
C196  C     C_3   0.693872 0.414951 0.765136 -0.272632
H166  H     H_    0.673032 0.439396 0.763189 0.154673
H167  H     H_    0.720727 0.410388 0.823577 0.152056
H168  H     H_    0.676037 0.385555 0.746636 0.191476
O89   O     O_3   0.706518 0.924249 0.196681 -0.534301
C197  C     C_3   0.694918 0.914579 0.123391 -0.274279
H169  H     H_    0.722530 0.908661 0.121236 0.158532
H170  H     H_    0.675370 0.939293 0.082781 0.145452
H171  H     H_    0.676213 0.885725 0.105476 0.187222
O90   O     O_3   0.293478 0.924256 0.803412 -0.534296
C198  C     C_3   0.305076 0.914621 0.876715 -0.274249
H172  H     H_    0.277463 0.908735 0.878883 0.158495
H173  H     H_    0.324637 0.939342 0.917293 0.145465
H174  H     H_    0.323769 0.885760 0.894661 0.187242
O91   O     O_3   0.206518 0.424250 0.196656 -0.534299
C199  C     C_3   0.194916 0.414587 0.123361 -0.274316
H175  H     H_    0.222527 0.408680 0.121199 0.158523
H176  H     H_    0.175362 0.439302 0.082758 0.145468
H177  H     H_    0.176216 0.385731 0.105444 0.187194
O92   O     O_3   0.792396 0.423592 0.805176 -0.534643
C200  C     C_3   0.809855 0.417804 0.882413 -0.282578
H178  H     H_    0.790899 0.431287 0.902019 0.123907
H179  H     H_    0.841685 0.430794 0.915812 0.168053
H180  H     H_    0.812392 0.384028 0.893859 0.188450
O93   O     O_3   0.707363 0.073990 0.211067 -0.560066
C201  C     C_3   0.707614 0.087920 0.273652 -0.301746
H181  H     H_    0.739606 0.095387 0.321387 0.157436
H182  H     H_    0.693057 0.064816 0.290971 0.161450
H183  H     H_    0.689057 0.116810 0.258070 0.188154
O94   O     O_3   0.292640 0.073991 0.788831 -0.560071
C202  C     C_3   0.292405 0.087878 0.726239 -0.301756
H184  H     H_    0.260416 0.095324 0.678470 0.157431
H185  H     H_    0.306980 0.064758 0.708987 0.161462
H186  H     H_    0.310955 0.116773 0.741779 0.188155
O95   O     O_3   0.207362 0.573990 0.211073 -0.560078
C203  C     C_3   0.207621 0.587921 0.273666 -0.301797
H187  H     H_    0.239615 0.595394 0.321390 0.157442
H188  H     H_    0.193072 0.564816 0.291000 0.161468
H189  H     H_    0.189061 0.616809 0.258085 0.188119
O96   O     O_3   0.793058 0.573702 0.788879 -0.559636
C204  C     C_3   0.792994 0.587518 0.726418 -0.301150
H190  H     H_    0.761087 0.595239 0.678661 0.157256
H191  H     H_    0.807381 0.564232 0.709059 0.161437
H192  H     H_    0.811807 0.616240 0.742178 0.188100

loop_
_geom_bond_atom_site_label_1
_geom_bond_atom_site_label_2
_ccdc_geom_bond_type
C99   C103  A    
C22   H2    S    
C172  H102  S    
C188  H144  S    
O95   C203  S    
C95   O67   S    
O92   C200  S    
C199  H176  S    
Cu9   Cu10  S    
C123  O71   S    
C121  O69   S    
Cu8   O39   S    
O64   C159  S    
C67   O13   A    
C154  H57   S    
C79   C121  S    
C177  H117  S    
Cu1   O2    S    
C57   O39   A    
C130  O78   S    
C28   C40   S    
Cu7   Cu8   S    
C128  O76   S    
C96   C99   A    
C142  H23   S    
C175  H111  S    
C63   O5    A    
C9    C13   A    
C200  H179  S    
C176  H116  S    
C193  H159  S    
C161  H73   S    
C11   C15   A    
C12   C16   A    
Cu11  O15   S    
O68   C164  S    
C61   C115  S    
C40   C44   T    
C108  O50   S    
Cu3   O25   S    
C97   C105  S    
C99   O62   S    
C5    C45   S    
C185  H138  S    
C202  H185  S    
C130  C134  S    
Cu5   O41   S    
C76   C83   A    
C82   C124  S    
C147  H36   S    
O70   C167  S    
C102  O63   S    
C56   O34   A    
Cu9   O10   S    
C25   C29   A    
C161  H74   S    
Cu4   O27   S    
C162  H77   S    
C165  H85   S    
C27   C31   A    
C163  H81   S    
C28   C32   A    
C47   O27   A    
C48   O28   A    
C137  H9    S    
C26   C38   S    
C192  H156  S    
C179  H123  S    
C94   C97   A    
O66   C162  S    
O84   C191  S    
C203  H189  S    
C17   C21   A    
C76   O53   S    
C136  O84   S    
C19   C23   A    
O85   C193  S    
C13   C33   S    
O52   C143  S    
Cu1   Cu3   S    
C10   C30   A    
C6    C80   S    
Cu8   O44   S    
Cu4   O20   S    
C190  H151  S    
C31   O87   S    
C111  C113  T    
C143  H25   S    
Cu2   Cu4   S    
C129  C133  S    
C1    C41   S    
C151  H48   S    
C172  H104  S    
C54   O31   A    
C87   C89   T    
C53   C89   S    
O77   C177  S    
C188  H146  S    
C183  H133  S    
O94   C202  S    
C109  O51   S    
C55   C117  S    
C166  H89   S    
C150  H45   S    
O49   C137  S    
C12   O92   S    
C193  H158  S    
C155  C156  S    
O89   C197  S    
C84   C88   S    
C9    O89   S    
C59   C113  S    
C77   C84   A    
C119  C123  S    
C180  H124  S    
C98   C106  S    
C175  H113  S    
Cu11  O47   S    
O80   C183  S    
C155  H59   S    
C157  H63   S    
Cu9   O5    S    
Cu7   O40   S    
C68   C92   S    
O78   C179  S    
C174  H110  S    
C201  H181  S    
C127  C131  S    
C107  O49   S    
C60   O44   A    
C158  H65   S    
Cu2   O4    S    
C200  H178  S    
C197  H169  S    
Cu12  O11   S    
Cu7   O35   S    
C184  H134  S    
O75   C175  S    
O56   C148  S    
C178  H120  S    
C32   O88   S    
C170  H97   S    
C100  O61   S    
C109  C135  S    
C60   C114  S    
Cu11  Cu12  S    
C156  H62   S    
C112  C114  T    
C182  H129  S    
O83   C189  S    
C5    C133  S    
C1    O17   A    
O93   C201  S    
C81   C123  S    
C55   O33   A    
C54   C90   S    
C198  H173  S    
C148  H38   S    
C68   O15   A    
C139  H15   S    
C173  H105  S    
O96   C204  S    
C201  H183  S    
O57   C149  S    
C118  C122  S    
C164  H83   S    
O74   C174  S    
C123  C127  S    
C8    C128  S    
C195  H163  S    
C160  H71   S    
C96   C98   A    
C119  C131  S    
C21   H1    S    
C5    C79   S    
C117  C129  S    
C144  H26   S    
C185  C186  S    
C194  H162  S    
O61   C153  S    
C70   C77   A    
C3    O3    A    
C158  H66   S    
C30   O86   S    
C72   C75   A    
Cu2   O23   S    
C186  H140  S    
C78   O55   S    
C189  H148  S    
C168  H93   S    
C180  H126  S    
C159  H69   S    
Cu12  O8    S    
C10   C14   A    
C104  C112  S    
O90   C198  S    
O60   C152  S    
C141  C142  S    
C140  H16   S    
C153  C154  S    
C163  H80   S    
C53   O30   A    
C121  C125  S    
O63   C157  S    
C125  C129  S    
C61   O46   A    
C79   H5    S    
C169  H96   S    
C132  C136  S    
C146  H34   S    
C73   C85   S    
C65   O7    A    
C203  H188  S    
C138  H11   S    
C35   C51   T    
C66   O8    A    
C77   O56   S    
C151  H47   S    
C184  H136  S    
C141  H20   S    
C62   O48   A    
C56   O38   A    
C7    C81   S    
Cu10  O9    S    
C26   C30   A    
C170  H99   S    
C167  H91   S    
C4    O20   A    
C187  H142  S    
C181  H128  S    
C93   C97   A    
C48   O24   A    
C182  H131  S    
Cu12  O48   S    
C169  C170  S    
C69   O57   S    
C196  H168  S    
C70   O58   S    
C21   C25   A    
C138  H12   S    
C162  H78   S    
C18   C22   A    
C105  C115  T    
C24   C28   A    
C14   C34   S    
C148  H40   S    
O59   C151  S    
O58   C150  S    
C154  H56   S    
C167  C168  S    
C80   C108  S    
C81   H7    S    
Cu1   O1    S    
C46   O26   A    
C204  H191  S    
C149  H41   S    
Cu10  O46   S    
Cu11  O7    S    
O79   C181  S    
C16   C36   S    
C9    C29   A    
C2    C42   S    
C195  H165  S    
C58   O40   A    
C142  H22   S    
C175  H112  S    
C37   C41   T    
C144  H28   S    
C176  H115  S    
C194  H160  S    
O87   C195  S    
C187  C188  S    
C171  H100  S    
C204  H192  S    
C5    C125  S    
C153  H53   S    
Cu3   O18   S    
C7    C127  S    
C173  H107  S    
C83   C87   S    
O81   C185  S    
C8    C136  S    
O72   C171  S    
C45   O25   A    
C150  H44   S    
C80   C122  S    
O50   C139  S    
C140  H18   S    
C15   C19   A    
Cu10  O6    S    
C145  H31   S    
Cu4   O28   S    
C165  H86   S    
C8    C82   S    
C57   O35   A    
C71   C76   A    
C137  H10   S    
C192  H155  S    
C125  O73   S    
C126  C130  S    
C59   O42   A    
C33   C49   T    
C146  H32   S    
Cu6   O34   S    
C96   O68   S    
C138  H13   S    
C127  O75   S    
C103  C111  S    
C51   C65   S    
C14   C18   A    
C191  H152  S    
C64   O10   A    
C24   H4    S    
C110  C136  S    
Cu1   O22   S    
C190  H150  S    
C165  C166  S    
C18   O94   S    
C69   C73   A    
C204  H190  S    
C124  C128  S    
C162  H76   S    
C172  H103  S    
C54   O32   A    
C188  H145  S    
C199  H175  S    
C145  H30   S    
C166  H88   S    
C67   O14   A    
Cu9   O13   S    
C134  O82   S    
Cu5   O33   S    
C6    C126  S    
C157  C158  S    
C72   C74   A    
C95   C100  A    
C4    C44   S    
C177  C178  S    
C196  H166  S    
C93   O65   S    
C100  C103  A    
C94   O66   S    
C106  C116  T    
C191  C192  S    
C7    C47   S    
C198  H172  S    
C8    C48   S    
C108  C134  S    
O62   C155  S    
C118  C130  S    
C110  O52   S    
C166  H87   S    
C152  H52   S    
C2    O2    A    
C70   C73   A    
C67   C91   S    
O54   C146  S    
C79   C107  S    
C174  H109  S    
C201  H182  S    
C189  C190  S    
Cu3   O26   S    
C135  O83   S    
C3    O19   A    
C88   C90   T    
C101  C104  A    
C197  H170  S    
C185  H137  S    
C202  H186  S    
C52   C66   S    
C147  H35   S    
C109  C119  S    
C178  H119  S    
C192  H154  S    
C145  H29   S    
C71   O59   S    
C56   C118  S    
C93   C102  A    
C71   C74   A    
C80   H6    S    
C179  H122  S    
C13   C17   A    
C197  H171  S    
Cu8   O36   S    
C65   O11   A    
C131  O79   S    
C66   O12   A    
C124  O72   S    
C122  O70   S    
C143  H24   S    
C107  C133  S    
C75   O54   S    
C62   C116  S    
C68   O16   A    
C75   C83   A    
C173  H106  S    
Cu4   O19   S    
Cu6   O37   S    
O82   C187  S    
C164  H82   S    
Cu11  O12   S    
O67   C163  S    
C126  O74   S    
O88   C196  S    
C195  H164  S    
C160  H70   S    
C22   C26   A    
C183  H132  S    
C156  H61   S    
C107  C117  S    
C199  H177  S    
C194  H161  S    
C161  H75   S    
C150  H46   S    
Cu9   O45   S    
C193  H157  S    
C49   C63   S    
C19   O95   S    
C50   C64   S    
O69   C165  S    
C46   O22   A    
C174  H108  S    
Cu2   O24   S    
C179  C180  S    
C186  H139  S    
C85   C91   T    
C95   C98   A    
O65   C161  S    
C180  H125  S    
C159  C160  S    
C3    C43   S    
C82   C110  S    
C168  H92   S    
C38   C42   T    
C131  C135  S    
C155  H58   S    
C29   O85   S    
C11   O91   S    
C143  C144  S    
C20   O96   S    
C53   O29   A    
C189  H147  S    
C117  C121  S    
C60   O43   A    
C25   C37   S    
Cu2   O3    S    
C20   C24   A    
C94   C101  A    
C27   C39   S    
C146  H33   S    
C183  C184  S    
C47   O23   A    
C202  H184  S    
C152  H51   S    
C23   C27   A    
C184  H135  S    
C101  O64   S    
C147  H37   S    
C16   C20   A    
C57   C119  S    
C178  H121  S    
C61   O45   A    
O86   C194  S    
C11   C31   A    
C170  H98   S    
C12   C32   A    
C187  H143  S    
Cu6   O42   S    
C181  C182  S    
C69   C78   A    
C157  H64   S    
C128  C132  S    
C15   C35   S    
C182  H130  S    
C129  O77   S    
C133  O81   S    
C196  H167  S    
Cu6   O30   S    
C34   C50   T    
C108  C118  S    
C64   O6    A    
C198  H174  S    
C110  C120  S    
O91   C199  S    
C148  H39   S    
C139  H14   S    
C39   C43   T    
C154  H55   S    
C200  H180  S    
C122  C126  S    
C164  H84   S    
C149  H42   S    
C7    C135  S    
O51   C141  S    
C151  H49   S    
C63   O9    A    
C160  H72   S    
C142  H21   S    
C74   C86   S    
C102  C104  A    
C144  H27   S    
C176  H114  S    
C55   O37   A    
C167  H90   S    
C171  H101  S    
Cu10  O14   S    
C158  H67   S    
C153  H54   S    
Cu3   O17   S    
C149  H43   S    
Cu5   O29   S    
C58   C120  S    
C186  H141  S    
O76   C176  S    
C156  H60   S    
Cu8   O32   S    
C168  H94   S    
C23   H3    S    
C159  H68   S    
C177  H118  S    
C6    C46   S    
C120  C132  S    
Cu7   O31   S    
C81   C109  S    
C139  C140  S    
C36   C52   T    
O55   C147  S    
C45   O21   A    
C140  H17   S    
C171  C172  S    
Cu7   O43   S    
O73   C173  S    
C163  H79   S    
C1    O1    A    
C82   H8    S    
C6    C134  S    
C86   C92   T    
Cu5   Cu6   S    
C2    O18   A    
C58   O36   A    
C132  O80   S    
C137  C138  S    
C169  H95   S    
C4    O4    A    
C59   O41   A    
C203  H187  S    
Cu12  O16   S    
Cu5   O38   S    
C141  H19   S    
C191  H153  S    
C62   O47   A    
C78   C84   A    
Cu1   O21   S    
C190  H149  S    
C72   O60   S    
C17   O93   S    
C181  H127  S    
C10   O90   S    
O71   C169  S    
O53   C145  S    
C120  C124  S    
C152  H50   S    
