data_mof_unit_66738.cif
_audit_creation_date              2013-03-05T15:40:46-0500
_audit_creation_method            fapswitch 2.2
_symmetry_space_group_name_H-M    P1
_symmetry_Int_Tables_number       1
_space_group_crystal_system       triclinic
_cell_length_a                    8.298608
_cell_length_b                    12.634137
_cell_length_c                    15.127465
_cell_angle_alpha                 95.329771
_cell_angle_beta                  99.641982
_cell_angle_gamma                 97.000868
_cell_volume                      1541.54816078

loop_
_atom_site_label
_atom_site_type_symbol
_atom_site_description
_atom_site_fract_x
_atom_site_fract_y
_atom_site_fract_z
_atom_type_partial_charge
P1    P     P_3+3 0.998660 0.747790 0.570900 0.464977
O1    O     O_2   0.168170 0.764170 0.543850 -0.342800
O2    O     O_3   0.898670 0.629780 0.545890 -0.402920
O3    O     O_3   0.365980 0.695510 0.380810 -0.358244
O4    O     O_2   0.304392 0.883957 0.450928 -0.363863
O5    O     O_3   0.047633 0.777890 0.688205 -0.585945
O6    O     O_3   0.324513 0.874361 0.283276 -0.516439
C1    C     C_3   0.329114 0.864972 0.126734 -0.112131
H1    H     H_    0.193943 0.842718 0.117282 0.222547
H2    H     H_    0.357693 0.952745 0.124129 0.179967
P2    P     P_3+3 0.306970 0.411860 0.294270 0.498974
P3    P     P_3+3 0.881336 0.627971 0.217955 0.491887
O7    O     O_2   0.136040 0.444100 0.280280 -0.353891
O8    O     O_3   0.934510 0.640480 0.335500 -0.349523
O9    O     O_2   0.989355 0.551222 0.178748 -0.363023
O10   O     O_3   0.276214 0.272785 0.268811 -0.538963
O11   O     O_3   0.951177 0.750213 0.181772 -0.480449
C2    C     C_3   0.821713 0.811651 0.163384 0.315449
H3    H     H_    0.841120 0.880405 0.216919 0.133832
H4    H     H_    0.697252 0.768469 0.162037 0.057639
C3    C     C_3   0.822941 0.852314 0.071648 -0.714071
H5    H     H_    0.732954 0.910032 0.060490 0.261707
H6    H     H_    0.946296 0.894286 0.067858 0.275386
C4    C     C_3   0.719904 0.312020 0.271432 0.435432
H7    H     H_    0.620118 0.343938 0.300987 0.080882
H8    H     H_    0.828788 0.374989 0.280377 0.119745
C5    C     C_3   0.659228 0.278038 0.170935 -0.905873
H9    H     H_    0.546516 0.217765 0.160419 0.269914
H10   H     H_    0.756312 0.242554 0.140747 0.298210
Ba1   Ba    Ba6+2 0.153570 0.551840 0.456200 1.602977
C6    C     C_3   0.073498 0.684845 0.728567 0.353910
H11   H     H_    0.182432 0.653832 0.708528 0.123920
H12   H     H_    0.964390 0.622036 0.709908 0.142308
C7    C     C_3   0.104169 0.714004 0.830106 -0.864858
H13   H     H_    0.211666 0.778070 0.849861 0.311684
H14   H     H_    0.994132 0.743854 0.850983 0.256161
C8    C     C_3   0.219815 0.224750 0.339381 0.278406
H15   H     H_    0.109660 0.258518 0.355463 0.101243
H16   H     H_    0.319256 0.235671 0.399928 0.081311
C9    C     C_3   0.171560 0.105735 0.308313 -0.105993
H17   H     H_    0.281077 0.071359 0.291595 0.182232
P4    P     P_3+3 0.811620 0.252200 0.429030 0.477786
O12   O     O_2   0.642110 0.235770 0.456130 -0.375192
O13   O     O_3   0.911620 0.370210 0.454030 -0.380875
O14   O     O_3   0.444310 0.304480 0.619110 -0.315331
O15   O     O_3   0.762436 0.221798 0.311622 -0.546835
P5    P     P_3+3 0.919588 0.364960 0.782803 0.520671
O16   O     O_3   0.400800 0.556680 0.607590 -0.322656
O17   O     O_3   0.875770 0.359510 0.664420 -0.326868
O18   O     O_2   0.801092 0.433946 0.822177 -0.370352
O19   O     O_3   0.863343 0.237302 0.812940 -0.485834
Ba2   Ba    Ba6+2 0.656590 0.448150 0.543720 1.605300
P6    P     P_3+3 0.409363 0.835730 0.386734 0.481339
C10   C     C_3   0.409130 0.835195 0.217403 0.239572
H18   H     H_    0.539980 0.873388 0.232759 0.020925
O20   O     O_3   0.409490 0.443300 0.392340 -0.398883
C11   C     C_3   0.625987 0.777873 0.687921 0.392660
H19   H     H_    0.755255 0.794400 0.724838 0.093831
H20   H     H_    0.622039 0.727596 0.622955 0.092350
C12   C     C_3   0.567988 0.883552 0.666006 -0.916632
H21   H     H_    0.544963 0.929061 0.727859 0.277347
H22   H     H_    0.662087 0.932495 0.637045 0.205643
H23   H     H_    0.451346 0.867896 0.616407 0.284368
P7    P     P_3+3 0.498965 0.590828 0.720980 0.491130
O21   O     O_2   0.674250 0.555830 0.719690 -0.380329
O22   O     O_3   0.526650 0.730729 0.744482 -0.552952
H24   H     H_    0.789526 0.783865 0.017263 0.234994
C13   C     C_3   0.918827 0.161245 0.755704 0.387685
H25   H     H_    0.836534 0.148485 0.688457 0.086801
H26   H     H_    0.047149 0.186983 0.746676 -0.016425
C14   C     C_3   0.912750 0.054999 0.796048 -0.166389
H27   H     H_    0.952263 0.993271 0.750253 0.110421
H28   H     H_    0.785111 0.028058 0.805029 0.182984
P8    P     P_3+3 0.402014 0.163928 0.614252 0.476882
C15   C     C_3   0.385473 0.161153 0.782097 0.345898
H29   H     H_    0.273686 0.100546 0.772971 0.090313
O23   O     O_2   0.512772 0.116320 0.553150 -0.379812
O24   O     O_3   0.484605 0.130438 0.720409 -0.510704
H30   H     H_    0.350274 0.242495 0.774302 0.089640
H31   H     H_    0.403177 0.187674 0.927213 0.235984
C16   C     C_3   0.480753 0.164184 0.877630 -0.781985
H32   H     H_    0.593661 0.224178 0.888451 0.277497
C17   C     C_R   0.086232 0.178399 0.522674 -0.468529
C18   C     C_R   0.728645 0.815852 0.468348 -0.458683
C19   C     C_R   0.692782 0.995162 0.432810 -0.174405
C20   C     C_R   0.629106 0.886845 0.430514 0.175590
C21   C     C_R   0.888378 0.851209 0.515358 0.269942
C22   C     C_R   0.953526 0.962849 0.522481 -0.052686
C23   C     C_R   0.854505 0.035763 0.478981 -0.050373
C24   C     C_R   0.921763 0.146549 0.483019 0.265526
C25   C     C_R   0.182488 0.110408 0.567334 0.181920
C26   C     C_R   0.114973 0.003732 0.569832 -0.234134
H33   H     H_    0.613749 0.046353 0.398916 0.177081
H34   H     H_    0.191686 0.953362 0.606402 0.185952
H35   H     H_    0.143868 0.256228 0.513308 0.185437
H36   H     H_    0.677630 0.732245 0.464880 0.164327
C27   C     C_R   0.240203 0.454572 0.768740 -0.068376
C28   C     C_R   0.137430 0.421706 0.828280 0.153203
C29   C     C_R   0.198218 0.438301 0.921357 -0.296219
C30   C     C_R   0.359259 0.493647 0.956082 0.116962
C31   C     C_R   0.448987 0.539458 0.893363 -0.245944
C32   C     C_R   0.390593 0.519542 0.800548 0.223629
C33   C     C_R   0.597124 0.554673 0.087701 -0.242993
C34   C     C_R   0.663792 0.571131 0.179565 0.179699
C35   C     C_R   0.411052 0.482476 0.213455 0.331377
C36   C     C_R   0.341110 0.468768 0.121168 -0.237356
C37   C     C_R   0.431462 0.507255 0.055991 0.124749
C38   C     C_R   0.569069 0.538734 0.242514 -0.505025
H37   H     H_    0.679778 0.577772 0.042961 0.146131
H38   H     H_    0.116589 0.408477 0.964525 0.174178
H39   H     H_    0.562867 0.593229 0.914223 0.159263
H40   H     H_    0.623412 0.549394 0.313514 0.164753
H41   H     H_    0.401016 0.746188 0.213471 0.127387
H42   H     H_    0.629822 0.347918 0.135670 0.206187
H43   H     H_    0.129379 0.643075 0.865133 0.228422
Br1   Br    Br    0.001921 0.087310 0.201258 -0.507145
H44   H     H_    0.125024 0.062910 0.361732 0.119938
Br2   Br    Br    0.402113 0.787545 0.028254 -0.642269
Br3   Br    Br    0.053752 0.069304 0.913702 -0.501985
H45   H     H_    0.516283 0.083904 0.889074 0.262820
H46   H     H_    0.218517 0.424987 0.102289 0.160263
Br4   Br    Br    0.176879 0.410361 0.643658 -0.454295

loop_
_geom_bond_atom_site_label_1
_geom_bond_atom_site_label_2
_geom_bond_distance
_ccdc_geom_bond_type
P1    C21   1.867783 S    
C21   C22   1.435170 A    
C31   C32   1.395078 A    
O3    P6    1.755079 S    
C5    H10   1.109903 S    
C2    C3    1.525036 S    
C4    C5    1.522726 S    
C11   O22   1.406302 S    
C16   H32   1.109811 S    
C1    Br2   1.928550 S    
P5    O17   1.759805 S    
C19   C20   1.400694 A    
P7    C32   1.853447 S    
C16   H45   1.110897 S    
C27   Br4   1.888770 S    
P5    C28   1.852341 S    
C12   H23   1.105215 S    
Ba1   O16   2.797730 S    
C4    H8    1.109741 S    
P1    O1    1.525339 D    
C8    C9    1.516938 S    
P4    O15   1.749520 S    
O12   Ba2   2.859622 S    
C11   H20   1.112904 S    
C36   C37   1.420781 A    
C10   H41   1.113743 S    
C12   H22   1.109638 S    
C7    H13   1.109052 S    
C18   H36   1.082130 S    
C30   C31   1.422417 A    
C13   H25   1.112292 S    
C19   H33   1.078755 S    
C22   C26   1.419863 A    
P2    Ba1   3.396663 S    
C1    H1    1.104398 S    
P8    O23   1.541754 D    
P3    O11   1.750964 S    
P2    C35   1.845290 S    
C6    H12   1.107624 S    
P6    C20   1.846606 S    
C2    H4    1.103795 S    
C27   C32   1.392349 A    
O10   C8    1.394808 S    
O13   Ba2   2.917419 S    
C9    H44   1.108932 S    
C33   H37   1.075695 S    
C3    H5    1.109636 S    
C3    H24   1.111108 S    
Ba1   O13   2.852915 S    
P4    O13   1.594723 S    
O8    Ba1   2.767127 S    
C27   C28   1.396975 A    
P5    O18   1.545981 D    
C35   C38   1.392710 A    
P1    O5    1.747600 S    
O7    Ba1   2.846967 S    
C4    H7    1.104608 S    
C1    C10   1.521641 S    
C25   C26   1.401529 A    
C14   H28   1.106878 S    
C19   C23   1.415532 A    
C2    H3    1.108089 S    
C11   C12   1.519762 S    
P5    O19   1.746815 S    
O14   Ba2   2.824330 S    
C7    H43   1.106497 S    
C29   H38   1.076550 S    
Ba1   O20   2.911231 S    
C38   H40   1.082207 S    
O14   P8    1.759846 S    
P1    O2    1.594703 S    
P7    O22   1.749362 S    
P8    C25   1.859360 S    
O2    Ba1   2.916510 S    
C15   H29   1.109171 S    
C8    H15   1.107759 S    
P2    O10   1.741518 S    
C6    H11   1.103957 S    
P3    O9    1.542309 D    
O17   Ba2   2.767722 S    
C17   H35   1.072218 S    
C26   H34   1.078181 S    
O11   C2    1.406211 S    
C6    C7    1.516888 S    
C13   H26   1.109483 S    
C9    H17   1.109670 S    
P3    O8    1.746272 S    
C3    H6    1.106971 S    
P4    O12   1.525698 D    
O6    P6    1.743541 S    
C34   C38   1.391755 A    
O4    P6    1.541413 D    
C17   C24   1.389840 A    
Ba1   Ba2   4.616566 S    
C10   H18   1.110349 S    
C30   C37   1.515273 S    
C15   C16   1.521434 S    
C18   C20   1.389957 A    
H31   C16   1.109989 S    
O2    Ba2   2.853566 S    
P3    C34   1.835051 S    
C18   C21   1.394005 A    
C31   H39   1.076092 S    
C17   C25   1.388054 A    
C35   C36   1.405350 A    
C29   C30   1.421155 A    
C14   Br3   1.939221 S    
O1    Ba1   2.859245 S    
C4    O15   1.395875 S    
P7    O21   1.573697 D    
C14   H27   1.110728 S    
C8    H16   1.111078 S    
P2    O7    1.509667 D    
C11   H19   1.108745 S    
C9    Br1   1.935216 S    
C13   C14   1.524095 S    
C36   H46   1.076419 S    
P1    Ba1   3.393690 S    
O5    C6    1.397044 S    
C7    H14   1.110970 S    
O19   C13   1.404240 S    
C15   O24   1.402095 S    
O16   P7    1.760907 S    
Ba2   O21   2.847167 S    
C5    H42   1.104547 S    
O16   Ba2   2.910318 S    
C22   C23   1.439749 A    
C1    H2    1.111157 S    
C28   C29   1.400858 A    
P8    O24   1.748110 S    
C33   C34   1.393283 A    
C12   H21   1.108753 S    
C33   C37   1.415593 A    
O6    C10   1.399443 S    
P4    C24   1.879914 S    
C23   C24   1.434097 A    
C15   H30   1.113338 S    
O3    Ba1   2.824990 S    
P2    O20   1.570943 S    
Ba2   O20   2.796965 S    
P4    Ba2   3.394162 S    
C5    H9    1.110898 S    
