data_mof_unit_51029.cif
_audit_creation_date              2012-12-10T19:50:32-0500
_audit_creation_method            fapswitch 2.2
_symmetry_space_group_name_H-M    P1
_symmetry_Int_Tables_number       1
_space_group_crystal_system       triclinic
_cell_length_a                    18.235114
_cell_length_b                    18.287999
_cell_length_c                    18.299015
_cell_angle_alpha                 119.883311
_cell_angle_beta                  90.557438
_cell_angle_gamma                 119.5658
_cell_volume                      4329.78678516

loop_
_atom_site_label
_atom_site_type_symbol
_atom_type_description
_atom_site_fract_x
_atom_site_fract_y
_atom_site_fract_z
_atom_type_partial_charge
C1    C     C_R   0.639636 0.780358 0.642888 0.788966
C2    C     C_R   0.254274 0.944338 0.161538 -0.335851
C3    C     C_R   0.199901 0.890758 0.195460 -0.155077
C4    C     C_R   0.360347 0.220373 0.359731 0.852055
C5    C     C_R   0.203854 0.949063 0.282825 0.053192
C6    C     C_3   0.162434 0.944389 0.352178 0.578667
C7    C     C_3   0.216707 0.064327 0.407925 -0.551997
C8    C     C_R   0.787820 0.568133 0.340524 0.146663
C9    C     C_R   0.696175 0.491979 0.304947 -0.104099
C10   C     C_R   0.660320 0.404243 0.216865 -0.258109
C11   C     C_R   0.712970 0.399446 0.161253 0.069908
C12   C     C_3   0.836438 0.561846 0.760502 -0.249279
C13   C     C_R   0.803014 0.487173 0.195040 -0.113473
C14   C     C_R   0.839682 0.566222 0.286443 0.092302
C15   C     C_3   0.894296 0.680355 0.334021 -0.486652
C16   C     C_R   0.360145 0.499975 0.639674 0.820612
C17   C     C_3   0.837298 0.682482 0.393991 -0.483539
C18   C     C_R   0.786288 0.946990 0.747270 -0.024905
C19   C     C_R   0.693167 0.891994 0.710911 -0.099720
C20   C     C_R   0.654604 0.949033 0.746139 0.060643
C21   C     C_R   0.711306 0.056974 0.796775 -0.234853
C22   C     C_R   0.804332 0.109130 0.817702 -0.118690
C23   C     C_3   0.773966 0.596817 0.790434 0.053239
C24   C     C_R   0.840305 0.052845 0.801665 -0.065455
C25   C     C_3   0.918863 0.057904 0.772789 0.324943
C26   C     C_3   0.857162 0.939008 0.710318 -0.166634
C27   C     C_R   0.242361 0.524698 0.335619 0.078501
C28   C     C_R   0.640076 0.499470 0.360076 0.814389
C29   C     C_R   0.293874 0.488042 0.301534 -0.053986
C30   C     C_R   0.279516 0.434983 0.209271 -0.235441
C31   C     C_R   0.226188 0.435551 0.155715 -0.238397
C32   C     C_R   0.186414 0.488022 0.194227 -0.083796
C33   C     C_R   0.188321 0.523982 0.282111 0.097819
C34   C     C_3   0.739064 0.533452 0.829308 0.486921
C35   C     C_3   0.209789 0.625903 0.357799 -0.114530
C36   C     C_3   0.269436 0.626143 0.416810 -0.501006
C37   C     C_R   0.287241 0.572962 0.735789 -0.022291
C38   C     C_R   0.303437 0.497879 0.693895 -0.151958
C39   C     C_R   0.262621 0.418507 0.706499 -0.327909
C40   C     C_R   0.357816 0.498876 0.358594 0.803944
C41   C     C_R   0.209318 0.417901 0.761761 0.455501
C42   C     C_R   0.193423 0.495858 0.802136 -0.156245
C43   C     C_R   0.233516 0.571024 0.786039 -0.038178
C44   C     C_3   0.247465 0.669093 0.810376 -0.494699
C45   C     C_3   0.662762 0.437564 0.739641 -0.306826
C46   C     C_3   0.309229 0.672163 0.753204 0.362110
C47   C     C_R   0.859497 0.497164 0.139713 0.794298
C48   C     C_R   0.139344 0.499037 0.859555 0.831705
C49   C     C_R   0.140676 0.779568 0.139954 0.831239
C50   C     C_R   0.860092 0.219906 0.861749 0.794471
C51   C     C_R   0.140076 0.498578 0.140983 0.794575
C52   C     C_R   0.641654 0.500758 0.642285 0.799257
C53   C     C_R   0.858321 0.499395 0.857956 0.833323
C54   C     C_3   0.760652 0.465853 0.669349 -0.185354
C55   C     C_3   0.726226 0.404021 0.710376 0.100723
C56   C     C_3   0.698862 0.501317 0.700157 -0.062152
C57   C     C_3   0.801059 0.498946 0.800315 -0.071474
C58   C     C_3   0.700415 0.294613 0.666824 -0.405109
C59   C     C_3   0.621350 0.217463 0.578738 -0.324390
C60   C     C_3   0.593549 0.107757 0.537100 -0.908471
C61   C     C_3   0.278287 0.960872 0.437044 0.127088
C62   C     C_3   0.300990 0.890012 0.433206 -0.870221
C63   C     C_3   0.669030 0.300916 0.067623 -0.384324
C64   C     C_3   0.614614 0.301821 0.003909 -0.291407
C65   C     C_3   0.580687 0.210173 0.907100 -0.883198
C66   C     C_3   0.555680 0.902530 0.732634 -0.347103
C67   C     C_R   0.251965 0.053033 0.332391 -0.078478
C68   C     C_3   0.508850 0.889203 0.652510 -0.326680
C69   C     C_3   0.410691 0.847616 0.642688 -0.863925
C70   C     C_3   0.994728 0.134956 0.925214 0.135293
C71   C     C_3   0.075083 0.158758 0.982206 -0.870784
C72   C     C_3   0.883655 0.881773 0.731776 -0.289401
C73   C     C_3   0.959812 0.879833 0.698214 -0.323975
C74   C     C_3   0.981913 0.818371 0.715698 -0.920253
C75   C     C_3   0.129472 0.624391 0.385573 -0.340525
C76   C     C_3   0.058348 0.525856 0.377340 -0.331731
C77   C     C_3   0.984942 0.534558 0.411164 -0.896879
C78   C     C_R   0.306618 0.109115 0.302343 -0.146581
C79   C     C_3   0.233952 0.351121 0.828179 0.085358
C80   C     C_3   0.187286 0.277100 0.854506 -0.728328
C81   C     C_3   0.450346 0.758670 0.859628 0.145025
C82   C     C_3   0.537940 0.864712 0.921494 -0.881548
C83   C     C_3   0.802261 0.707360 0.834559 -0.423135
C84   C     C_3   0.875427 0.781422 0.926667 -0.301563
C85   C     C_3   0.908442 0.892739 0.968104 -0.935561
C86   C     C_3   0.656803 0.568541 0.919549 0.095113
C87   C     C_3   0.662979 0.628438 0.016818 -0.844376
C88   C     C_3   0.316707 0.091282 0.111626 0.138023
C89   C     C_R   0.307656 0.053405 0.214207 0.450150
C90   C     C_3   0.380462 0.165892 0.090904 -0.817393
C91   C     C_3   0.059191 0.886488 0.319073 -0.401192
C92   C     C_3   0.021735 0.907484 0.261241 -0.419207
C93   C     C_3   0.919428 0.839986 0.227010 -0.876668
H1    H     H_    0.175801 0.094773 0.413743 0.181376
H2    H     H_    0.937089 0.093313 0.735273 0.103745
H3    H     H_    0.044175 0.890470 0.202165 0.226828
H4    H     H_    0.029290 0.802591 0.278954 0.227723
H5    H     H_    0.037161 0.905954 0.378537 0.199184
H6    H     H_    0.839163 0.907846 0.638010 0.128604
H7    H     H_    0.314420 0.399895 0.179626 0.174872
H8    H     H_    0.221660 0.401646 0.086141 0.172830
H9    H     H_    0.249203 0.686449 0.346634 0.163423
H10   H     H_    0.341813 0.687302 0.439250 0.199007
H11   H     H_    0.907824 0.612345 0.769472 0.165036
H12   H     H_    0.246088 0.619626 0.470459 0.202678
H13   H     H_    0.271622 0.356710 0.673721 0.183170
H14   H     H_    0.185076 0.656124 0.780933 0.179403
H15   H     H_    0.270475 0.109926 0.471979 0.191232
H16   H     H_    0.282356 0.731193 0.883274 0.206603
H17   H     H_    0.281697 0.661135 0.691346 0.095747
H18   H     H_    0.591260 0.386538 0.729951 0.141985
H19   H     H_    0.256324 0.902034 0.095009 0.175793
H20   H     H_    0.650267 0.102000 0.522871 0.263969
H21   H     H_    0.571954 0.084778 0.583071 0.258118
H22   H     H_    0.536651 0.053771 0.473220 0.249857
H23   H     H_    0.563016 0.220472 0.591108 0.222990
H24   H     H_    0.640330 0.237645 0.530600 0.219731
H25   H     H_    0.759383 0.293361 0.654101 0.188748
H26   H     H_    0.590666 0.340185 0.190434 0.178144
H27   H     H_    0.681995 0.273058 0.714200 0.215287
H28   H     H_    0.292361 0.018269 0.508412 0.141981
H29   H     H_    0.323579 0.000822 0.409948 0.145614
H30   H     H_    0.290841 0.834752 0.362705 0.255195
H31   H     H_    0.372148 0.935692 0.474390 0.209152
H32   H     H_    0.257639 0.847800 0.459586 0.255260
H33   H     H_    0.638142 0.216209 0.883889 0.274119
H34   H     H_    0.540624 0.136632 0.901015 0.253849
H35   H     H_    0.537731 0.209969 0.863473 0.244241
H36   H     H_    0.556254 0.298671 0.023824 0.204553
H37   H     H_    0.965333 0.717975 0.369902 0.222064
H38   H     H_    0.656252 0.374012 0.008049 0.248424
H39   H     H_    0.718920 0.287007 0.041992 0.216492
H40   H     H_    0.623059 0.233992 0.069775 0.180538
H41   H     H_    0.374024 0.769545 0.628239 0.273481
H42   H     H_    0.405168 0.899729 0.705061 0.263497
H43   H     H_    0.379264 0.842785 0.586750 0.238362
H44   H     H_    0.542820 0.964907 0.662310 0.206960
H45   H     H_    0.512619 0.835407 0.589759 0.236645
H46   H     H_    0.521068 0.829778 0.727559 0.260460
H47   H     H_    0.548873 0.954931 0.793888 0.194624
H48   H     H_    0.884034 0.702990 0.290745 0.203024
H49   H     H_    0.933592 0.077557 0.927569 0.133477
H50   H     H_    0.998870 0.207137 0.954656 0.180154
H51   H     H_    0.138104 0.214712 0.981053 0.256234
H52   H     H_    0.076049 0.192053 0.052476 0.219304
H53   H     H_    0.071134 0.087033 0.955719 0.252892
H54   H     H_    0.003213 0.853438 0.788630 0.263744
H55   H     H_    0.922514 0.737274 0.679918 0.268180
H56   H     H_    0.037388 0.818510 0.691132 0.253839
H57   H     H_    0.939701 0.843909 0.625108 0.205003
H58   H     H_    0.021059 0.959428 0.732315 0.263671
H59   H     H_    0.875325 0.720587 0.464255 0.204309
H60   H     H_    0.903077 0.917103 0.804656 0.210337
H61   H     H_    0.825075 0.801086 0.698578 0.225027
H62   H     H_    0.013685 0.599722 0.483079 0.261076
H63   H     H_    0.951570 0.546996 0.371856 0.270960
H64   H     H_    0.933990 0.462264 0.403576 0.249534
H65   H     H_    0.026983 0.458537 0.306028 0.218580
H66   H     H_    0.089466 0.511807 0.416873 0.219394
H67   H     H_    0.155903 0.692202 0.455965 0.194800
H68   H     H_    0.096650 0.634364 0.343086 0.235786
H69   H     H_    0.275233 0.431003 0.890940 0.124641
H70   H     H_    0.794811 0.707287 0.386083 0.193371
H71   H     H_    0.278608 0.333885 0.792995 0.125877
H72   H     H_    0.146430 0.196370 0.793752 0.264163
H73   H     H_    0.237921 0.286505 0.898956 0.173444
H74   H     H_    0.143018 0.293515 0.890811 0.287438
H75   H     H_    0.466742 0.702698 0.819286 0.133516
H76   H     H_    0.414291 0.738356 0.902256 0.136996
H77   H     H_    0.524102 0.923430 0.960538 0.264573
H78   H     H_    0.576465 0.864515 0.968690 0.208215
H79   H     H_    0.579102 0.885326 0.881985 0.247327
H80   H     H_    0.942613 0.918523 0.927566 0.258951
H81   H     H_    0.768334 0.437478 0.602373 0.138485
H82   H     H_    0.851574 0.900356 0.972194 0.264953
H83   H     H_    0.957196 0.943362 0.036767 0.253838
H84   H     H_    0.848711 0.760714 0.972662 0.256200
H85   H     H_    0.933226 0.775640 0.920187 0.222199
H86   H     H_    0.827743 0.731279 0.790041 0.216404
H87   H     H_    0.742889 0.709658 0.841645 0.178458
H88   H     H_    0.596763 0.487799 0.884391 0.142190
H89   H     H_    0.648714 0.604697 0.888825 0.126363
H90   H     H_    0.722051 0.709810 0.053523 0.251690
H91   H     H_    0.601472 0.626815 0.020230 0.201216
H92   H     H_    0.681794 0.099834 0.817249 0.166629
H93   H     H_    0.669807 0.593419 0.049261 0.258740
H94   H     H_    0.265346 0.107112 0.129249 0.132308
H95   H     H_    0.283293 0.011511 0.050284 0.128925
H96   H     H_    0.432360 0.151959 0.072295 0.245788
H97   H     H_    0.342632 0.154892 0.034228 0.196298
H98   H     H_    0.413712 0.246540 0.150470 0.273758
H99   H     H_    0.893467 0.757196 0.183460 0.262258
H100  H     H_    0.893802 0.854714 0.284052 0.260042
H101  H     H_    0.894253 0.857853 0.186999 0.253712
H102  H     H_    0.045175 0.989327 0.300747 0.225618
O1    O     O_3   0.500000 0.500000 0.500000 -0.477277
O2    O     O_R   0.945260 0.268310 0.884540 -0.652271
O3    O     O_R   0.117230 0.560570 0.177940 -0.652865
O4    O     O_R   0.676910 0.731570 0.616180 -0.657556
O5    O     O_R   0.821960 0.439250 0.882690 -0.633787
O6    O     O_R   0.117230 0.439140 0.056500 -0.666660
O7    O     O_R   0.943400 0.560680 0.882690 -0.652061
O8    O     O_R   0.115380 0.731510 0.054650 -0.650482
O9    O     O_R   0.823040 0.268340 0.883770 -0.658930
O10   O     O_R   0.945260 0.560610 0.176860 -0.643923
O11   O     O_R   0.116150 0.439180 0.884540 -0.604033
O12   O     O_R   0.384580 0.439270 0.616180 -0.653723
O13   O     O_R   0.384580 0.268400 0.445300 -0.648321
O14   O     O_R   0.383810 0.560730 0.615410 -0.643394
O15   O     O_R   0.554700 0.439300 0.323100 -0.649001
O16   O     O_R   0.382730 0.560770 0.443450 -0.646727
O17   O     O_R   0.678000 0.560660 0.617260 -0.652712
O18   O     O_R   0.382730 0.439340 0.322020 -0.658777
O19   O     O_R   0.556550 0.439230 0.617260 -0.650552
O20   O     O_3   0.185893 0.902205 0.388455 -0.603463
O21   O     O_3   0.996537 0.095940 0.836785 -0.611409
O22   O     O_3   0.168619 0.337810 0.771385 -0.587064
O23   O     O_R   0.676910 0.560700 0.445300 -0.640302
O24   O     O_3   0.399720 0.761041 0.802617 -0.603531
O25   O     O_3   0.734810 0.570303 0.916566 -0.625845
O26   O     O_3   0.366098 0.105367 0.182993 -0.595986
O27   O     O_R   0.554700 0.731600 0.615410 -0.652396
O28   O     O_R   0.383810 0.268430 0.323100 -0.613292
O29   O     O_3   0.999960 0.499910 0.999960 -0.481953
O30   O     O_R   0.823040 0.439210 0.054650 -0.643478
O31   O     O_R   0.115380 0.560640 0.883770 -0.647526
O32   O     O_R   0.116150 0.731480 0.176860 -0.625321
Zn1   Zn    Zn3+2 0.457170 0.413230 0.543930 0.941947
Zn2   Zn    Zn3+2 0.456070 0.586770 0.542830 0.944814
Zn3   Zn    Zn3+2 0.456070 0.413270 0.369320 0.963187
Zn4   Zn    Zn3+2 0.630690 0.586730 0.543930 0.940366
Zn5   Zn    Zn3+2 0.042790 0.586680 0.956030 0.954883
Zn6   Zn    Zn3+2 0.043880 0.586640 0.130630 0.957891
Zn7   Zn    Zn3+2 0.043880 0.413140 0.957130 0.953052
Zn8   Zn    Zn3+2 0.869270 0.413190 0.956030 0.951938

loop_
_geom_bond_atom_site_label_1
_geom_bond_atom_site_label_2
_ccdc_geom_bond_type
C75   H67   S    
C39   H13   S    
C66   C68   S    
C49   O8    A    
C76   H66   S    
C69   H41   S    
C73   H57   S    
C27   C29   A    
C26   C72   S    
C41   C42   A    
C68   H45   S    
C35   C36   S    
C18   C26   S    
O5    Zn8   S    
C92   H3    S    
C79   H71   S    
C5    C67   A    
C35   H9    S    
C62   H31   S    
C81   C82   S    
C3    C49   S    
C23   C56   S    
C39   C41   A    
C27   C33   A    
C52   O17   A    
C12   C23   S    
C35   C75   S    
C70   H50   S    
C29   C30   A    
C23   C83   S    
C83   H87   S    
C36   H10   S    
C18   C24   A    
C5    C6    S    
C65   H34   S    
C74   H55   S    
C16   O14   A    
O29   Zn8   S    
C12   H11   S    
O9    Zn8   S    
C11   C63   S    
O29   Zn5   S    
C77   H63   S    
C89   O26   S    
O8    Zn5   S    
C34   O25   S    
C82   H77   S    
C79   O22   S    
C28   O15   A    
C6    C91   S    
C81   O24   S    
C30   H7    S    
C58   H25   S    
C85   H83   S    
C29   C40   S    
C61   H28   S    
C18   C19   A    
C73   C74   S    
O4    Zn4   S    
O29   Zn7   S    
C10   H26   S    
C17   H70   S    
C85   H82   S    
C15   H48   S    
C60   H21   S    
C84   C85   S    
C88   H94   S    
C6    O20   S    
C93   H101  S    
C45   C56   S    
C8    C9    A    
C40   O18   A    
C34   C57   S    
C85   H80   S    
C64   H38   S    
C74   H56   S    
C70   C71   S    
C72   H60   S    
C81   H76   S    
C49   O32   A    
O19   Zn1   S    
C9    C10   A    
C80   H74   S    
C61   C62   S    
O28   Zn3   S    
C26   H6    S    
C22   C50   S    
C44   H16   S    
C16   O12   A    
C59   C60   S    
C59   H24   S    
O11   Zn7   S    
C21   C22   A    
C73   H58   S    
C68   H44   S    
C1    O4    A    
C67   C78   A    
C64   H36   S    
C80   H73   S    
C62   H30   S    
C50   O2    A    
C44   C46   S    
C4    O13   A    
C87   H93   S    
C54   C56   S    
C90   H98   S    
C78   C89   A    
C38   C39   A    
O32   Zn6   S    
C82   H79   S    
C1    C19   S    
C70   H49   S    
C66   H46   S    
O30   Zn8   S    
C65   H35   S    
C74   H54   S    
C72   H61   S    
C24   C25   S    
O27   Zn2   S    
C87   H91   S    
C13   C47   S    
O17   Zn4   S    
C47   O10   A    
C86   C87   S    
C68   C69   S    
C65   H33   S    
O14   Zn2   S    
C8    C14   A    
C3    C5    A    
C25   C26   S    
C59   H23   S    
O29   Zn6   S    
C91   H4    S    
C63   C64   S    
C77   H62   S    
C1    O27   A    
C37   C43   A    
C2    C89   A    
C75   C76   S    
C32   C51   S    
C4    C78   S    
C37   C38   A    
C51   O3    A    
C86   H88   S    
C48   O31   A    
C31   C32   A    
C47   O30   A    
O1    Zn4   S    
C23   C34   S    
C2    H19   S    
C44   H14   S    
C58   H27   S    
O15   Zn3   S    
C34   C45   S    
C42   C48   S    
C63   H39   S    
C76   C77   S    
C84   H85   S    
C77   H64   S    
C12   C57   S    
C40   O16   A    
C71   H52   S    
C14   C15   S    
C88   C90   S    
C52   O19   A    
C25   H2    S    
C69   H43   S    
C55   C57   S    
C43   C44   S    
C22   C24   A    
C83   C84   S    
C17   H59   S    
C42   C43   A    
C79   H69   S    
O1    Zn2   S    
C63   H40   S    
C80   H72   S    
C91   C92   S    
O1    Zn1   S    
O7    Zn5   S    
C90   H97   S    
C93   H99   S    
C20   C66   S    
C15   C17   S    
C7    H1    S    
C54   C55   S    
C28   O23   A    
C46   O24   S    
O16   Zn2   S    
C36   H12   S    
C88   O26   S    
C53   O5    A    
C25   O21   S    
C93   H100  S    
C8    C17   S    
O1    Zn3   S    
C72   C73   S    
C92   H102  S    
O3    Zn6   S    
C53   C57   S    
C62   H32   S    
C41   O22   S    
O2    Zn7   S    
C45   H18   S    
C21   H92   S    
C6    C7    S    
C50   O9    A    
C27   C36   S    
C4    O28   A    
C53   O7    A    
C83   H86   S    
C75   H68   S    
C70   O21   S    
C32   C33   A    
C54   H81   S    
C19   C20   A    
C46   H17   S    
C2    C3    A    
C58   C59   S    
O13   Zn1   S    
C87   H90   S    
C11   C13   A    
O6    Zn7   S    
C30   C31   A    
C15   H37   S    
C31   H8    S    
O31   Zn5   S    
C76   H65   S    
C64   C65   S    
O10   Zn6   S    
C92   C93   S    
C33   C35   S    
C81   H75   S    
C82   H78   S    
C91   H5    S    
C84   H84   S    
O23   Zn4   S    
C10   C11   A    
C7    C67   S    
C79   C80   S    
C52   C56   S    
O12   Zn1   S    
C88   H95   S    
C71   H53   S    
C66   H47   S    
C20   C21   A    
C45   C55   S    
C69   H42   S    
C86   O25   S    
C55   C58   S    
C48   O11   A    
C86   H89   S    
C60   H20   S    
C7    H15   S    
C61   H29   S    
C60   H22   S    
C61   O20   S    
C37   C46   S    
C13   C14   A    
C12   C54   S    
O18   Zn3   S    
C51   O6    A    
C9    C28   S    
C16   C38   S    
C71   H51   S    
C90   H96   S    
