data_mof_unit_57644.cif
_audit_creation_date              2012-12-10T18:57:09-0500
_audit_creation_method            fapswitch 2.2
_symmetry_space_group_name_H-M    P1
_symmetry_Int_Tables_number       1
_space_group_crystal_system       triclinic
_cell_length_a                    10.831422
_cell_length_b                    9.928689
_cell_length_c                    10.779725
_cell_angle_alpha                 91.291098
_cell_angle_beta                  94.624311
_cell_angle_gamma                 89.259165
_cell_volume                      1155.13234944

loop_
_atom_site_label
_atom_site_type_symbol
_atom_type_description
_atom_site_fract_x
_atom_site_fract_y
_atom_site_fract_z
_atom_type_partial_charge
C1    C     C_R   0.260497 0.501475 0.508615 0.819763
C2    C     C_R   0.412067 0.575424 0.927016 0.048839
C3    C     C_R   0.495854 0.494215 0.125495 -0.276412
C4    C     C_R   0.499208 0.498023 0.869802 -0.289448
C5    C     C_R   0.557967 0.389540 0.064111 0.400361
C6    C     C_R   0.577295 0.407469 0.938227 0.362877
C7    C     C_3   0.386947 0.721616 0.912202 -0.544224
C8    C     C_3   0.414897 0.736192 0.050906 -0.341160
C9    C     C_R   0.064198 0.385847 0.476997 -0.228420
C10   C     C_R   0.937502 0.385851 0.464415 -0.241856
C11   C     C_R   0.870933 0.506096 0.472753 -0.103076
C12   C     C_R   0.738939 0.500495 0.488965 0.837334
C13   C     C_R   0.126737 0.504480 0.511394 -0.081904
C14   C     C_R   0.934835 0.630418 0.481116 0.102897
C15   C     C_R   0.058901 0.625582 0.530681 0.092834
C16   C     C_3   0.687136 0.204173 0.116008 0.184227
C17   C     C_3   0.781887 0.280831 0.201135 -0.937512
C18   C     C_3   0.775539 0.469200 0.910258 0.093632
C19   C     C_3   0.906805 0.413258 0.938678 -0.889668
C20   C     C_3   0.874187 0.764807 0.439393 -0.386212
C21   C     C_3   0.940457 0.832792 0.338422 -0.419067
C22   C     C_3   0.865033 0.948786 0.280189 -0.948973
C23   C     C_R   0.570685 0.073876 0.588834 0.299852
C24   C     C_3   0.107187 0.738253 0.619484 -0.438987
C25   C     C_3   0.038446 0.740668 0.739126 -0.352590
C26   C     C_3   0.053222 0.875732 0.809188 -0.925312
C27   C     C_3   0.774129 0.121248 0.616179 0.114408
C28   C     C_3   0.871462 0.202324 0.692496 -0.804143
C29   C     C_3   0.283451 0.177356 0.282039 0.225782
C30   C     C_3   0.227959 0.153131 0.149014 -0.865212
C31   C     C_3   0.651089 0.913342 0.802400 0.160416
C32   C     C_3   0.703466 0.811157 0.896071 -0.955026
C33   C     C_3   0.254873 0.834703 0.325471 0.143942
C34   C     C_R   0.439262 0.070353 0.403842 0.307772
C35   C     C_3   0.205360 0.706621 0.257486 -0.832800
C36   C     C_R   0.566479 0.928124 0.593758 0.287272
C37   C     C_R   0.436961 0.926442 0.405915 0.336339
C38   C     C_R   0.498634 0.498587 0.259390 0.887135
C39   C     C_R   0.502208 0.500742 0.739147 0.957584
C40   C     C_R   0.421325 0.584922 0.054614 0.048211
H1    H     H_    0.450241 0.774417 0.856152 0.243327
H2    H     H_    0.791157 0.386033 0.171251 0.254116
H3    H     H_    0.748599 0.282507 0.295200 0.276897
H4    H     H_    0.757332 0.539162 0.989623 0.116931
H5    H     H_    0.773575 0.529321 0.824355 0.162287
H6    H     H_    0.905479 0.311575 0.978958 0.272488
H7    H     H_    0.957766 0.408623 0.853527 0.237688
H8    H     H_    0.959683 0.480975 0.006541 0.220134
H9    H     H_    0.774892 0.911556 0.237248 0.263047
H10   H     H_    0.848912 0.027788 0.351468 0.259474
H11   H     H_    0.916676 0.992848 0.206290 0.255134
H12   H     H_    0.335873 0.786057 0.090336 0.250171
H13   H     H_    0.028027 0.874473 0.379647 0.220491
H14   H     H_    0.955310 0.758513 0.262521 0.243159
H15   H     H_    0.781013 0.751729 0.392497 0.253429
H16   H     H_    0.867821 0.833647 0.520691 0.210991
H17   H     H_    0.151703 0.906187 0.821094 0.263601
H18   H     H_    0.999750 0.954715 0.756547 0.266145
H19   H     H_    0.017404 0.868590 0.902454 0.252144
H20   H     H_    0.937828 0.723171 0.717702 0.240621
H21   H     H_    0.075270 0.658370 0.800394 0.218189
H22   H     H_    0.206823 0.726262 0.649091 0.216810
H23   H     H_    0.288091 0.739243 0.881920 0.211412
H24   H     H_    0.095731 0.836998 0.574195 0.193505
H25   H     H_    0.772169 0.147223 0.516786 0.134574
H26   H     H_    0.802511 0.014120 0.624006 0.134003
H27   H     H_    0.876072 0.170947 0.790877 0.254524
H28   H     H_    0.963614 0.184708 0.656499 0.193044
H29   H     H_    0.846910 0.310729 0.687072 0.293576
H30   H     H_    0.280440 0.287528 0.298241 0.176181
H31   H     H_    0.224525 0.130280 0.348767 0.043981
H32   H     H_    0.127742 0.179731 0.142224 0.197044
H33   H     H_    0.275293 0.216966 0.084442 0.267796
H34   H     H_    0.505805 0.783636 0.078001 0.217359
H35   H     H_    0.239467 0.046167 0.119727 0.261853
H36   H     H_    0.561070 0.954462 0.830028 0.135248
H37   H     H_    0.719988 0.994268 0.811554 0.195232
H38   H     H_    0.704265 0.854903 0.991851 0.213696
H39   H     H_    0.647782 0.719027 0.890005 0.266501
H40   H     H_    0.799716 0.783275 0.877330 0.256068
H41   H     H_    0.199033 0.919569 0.286680 0.125152
H42   H     H_    0.238563 0.829000 0.425571 0.123327
H43   H     H_    0.135052 0.658806 0.309143 0.211226
H44   H     H_    0.160603 0.729981 0.163999 0.203504
H45   H     H_    0.112470 0.291190 0.464106 0.152322
H46   H     H_    0.278454 0.629954 0.248584 0.275398
H47   H     H_    0.893084 0.290747 0.448560 0.161834
H48   H     H_    0.716813 0.185911 0.021417 0.177192
H49   H     H_    0.680208 0.102054 0.153600 0.164310
H50   H     H_    0.873870 0.230344 0.202616 0.219513
N1    N     N_R   0.500000 0.857200 0.500000 -0.183941
N2    N     N_R   0.500000 0.142810 0.500000 -0.192855
O1    O     O_R   0.316770 0.614620 0.499990 -0.625323
O2    O     O_3   0.687228 0.363987 0.891641 -0.594634
O3    O     O_3   0.657231 0.146426 0.662138 -0.550050
O4    O     O_3   0.408066 0.132484 0.291726 -0.524548
O5    O     O_3   0.640306 0.853618 0.680860 -0.577178
O6    O     O_3   0.380816 0.854690 0.306069 -0.570549
O7    O     O_R   0.683230 0.614620 0.500010 -0.605735
O8    O     O_R   0.316800 0.385290 0.500000 -0.657967
O9    O     O_R   0.683200 0.385290 0.500000 -0.599384
O10   O     O_R   0.500000 0.614690 0.316780 -0.580074
O11   O     O_R   0.500000 0.614690 0.683220 -0.594442
O12   O     O_R   0.500020 0.385360 0.316780 -0.539585
O13   O     O_R   0.499980 0.385360 0.683220 -0.551995
O14   O     O_3   0.568584 0.263669 0.118406 -0.565090
Zn1   Zn    Zn3+2 0.500000 0.653120 0.500000 0.992945
Zn2   Zn    Zn3+2 0.500000 0.346880 0.500000 1.014280

loop_
_geom_bond_atom_site_label_1
_geom_bond_atom_site_label_2
_ccdc_geom_bond_type
C34   C37   A    
C27   O3    S    
C2    C7    S    
C20   H16   S    
C19   H6    S    
C7    C8    S    
C28   H28   S    
C34   O4    S    
C18   C19   S    
C21   H14   S    
C11   C14   A    
C19   H7    S    
C14   C20   S    
C33   O6    S    
C9    C13   A    
C17   H2    S    
C12   O7    A    
C38   O12   A    
C9    H45   S    
N2    Zn2   S    
C28   H29   S    
C3    C38   S    
C16   C17   S    
C6    O2    S    
C36   O5    S    
C25   H20   S    
C33   H42   S    
C8    H12   S    
C16   O14   S    
C22   H10   S    
O9    Zn2   S    
C7    H1    S    
C16   H49   S    
C24   H24   S    
C21   C22   S    
C20   H15   S    
C1    O8    A    
C37   O6    S    
C31   H37   S    
C5    O14   S    
O13   Zn2   S    
C10   H47   S    
O8    Zn2   S    
C37   N1    A    
N1    Zn1   S    
C28   H27   S    
C24   C25   S    
C4    C6    A    
C30   H33   S    
C35   H43   S    
C19   H8    S    
C25   C26   S    
C2    C4    A    
C17   H3    S    
C29   C30   S    
C27   H25   S    
C18   H4    S    
C32   H40   S    
C31   C32   S    
C4    C39   S    
C11   C12   S    
C8    H34   S    
O10   Zn1   S    
C25   H21   S    
C26   H18   S    
C7    H23   S    
C22   H9    S    
C36   N1    A    
C15   C24   S    
C3    C40   A    
C13   C15   A    
C18   O2    S    
C1    C13   S    
C18   H5    S    
O12   Zn2   S    
C29   H30   S    
C9    C10   A    
C39   O13   A    
C24   H22   S    
C23   N2    A    
C17   H50   S    
C3    C5    A    
C29   O4    S    
C30   H32   S    
C35   H44   S    
C39   O11   A    
O7    Zn1   S    
C12   O9    A    
C38   O10   A    
C27   H26   S    
O1    Zn1   S    
C32   H39   S    
C21   H13   S    
C30   H35   S    
C31   H36   S    
C5    C6    A    
C33   C35   S    
C23   O3    S    
C31   O5    S    
C26   H17   S    
C34   N2    A    
C10   C11   A    
C32   H38   S    
C2    C40   A    
C20   C21   S    
C1    O1    A    
C23   C36   A    
C27   C28   S    
C16   H48   S    
C14   C15   A    
C26   H19   S    
O11   Zn1   S    
C8    C40   S    
C33   H41   S    
C35   H46   S    
C22   H11   S    
C29   H31   S    
