data_mof_unit_37951.cif
_audit_creation_date              2012-10-26T19:10:28-0400
_audit_creation_method            fapswitch 2.2
_symmetry_space_group_name_H-M    P1
_symmetry_Int_Tables_number       1
_space_group_crystal_system       triclinic
_cell_length_a                    10.725448
_cell_length_b                    9.396499
_cell_length_c                    19.337651
_cell_angle_alpha                 90.018128
_cell_angle_beta                  89.834921
_cell_angle_gamma                 89.870742
_cell_volume                      1948.86744558

loop_
_atom_site_label
_atom_site_type_symbol
_atom_type_description
_atom_site_fract_x
_atom_site_fract_y
_atom_site_fract_z
_atom_type_partial_charge
C1    C     C_R   0.259921 0.500038 0.499866 0.563241
C2    C     C_3   0.070637 0.585244 0.564201 -0.096117
C3    C     C_3   0.926966 0.573040 0.433231 -0.222492
C4    C     C_3   0.926371 0.575727 0.565710 -0.221636
C5    C     C_3   0.070543 0.344893 0.500755 -0.215765
C6    C     C_3   0.122415 0.500456 0.499780 0.090655
C7    C     C_3   0.877904 0.498902 0.499840 0.027772
C8    C     C_R   0.498442 0.499963 0.367472 0.551515
C9    C     C_3   0.928329 0.344396 0.500541 -0.239294
C10   C     C_3   0.616379 0.083589 0.531956 -0.103861
C11   C     C_3   0.616406 0.915910 0.531942 -0.103275
C12   C     C_R   0.474751 0.496925 0.069921 0.348922
C13   C     C_3   0.394590 0.084159 0.542428 -0.103572
C14   C     C_3   0.394629 0.916349 0.542460 -0.103461
C15   C     C_3   0.489577 0.083653 0.430569 -0.101784
C16   C     C_3   0.489534 0.916333 0.430571 -0.101779
C17   C     C_R   0.740088 0.499633 0.499915 0.554866
C18   C     C_R   0.498559 0.499965 0.632603 0.544861
C19   C     C_R   0.484406 0.627985 0.255180 -0.141649
C20   C     C_R   0.490785 0.370774 0.255474 -0.137358
C21   C     C_R   0.481595 0.628844 0.183020 0.226764
C22   C     C_R   0.478532 0.368740 0.183724 0.226898
C23   C     C_R   0.457588 0.623515 0.816790 -0.123723
C24   C     C_R   0.477341 0.498376 0.146318 0.026412
C25   C     C_R   0.492155 0.499683 0.291665 -0.085881
C26   C     C_R   0.476526 0.496489 0.929671 0.323559
C27   C     C_3   0.599418 0.802528 0.131468 0.030142
C28   C     C_3   0.654773 0.897083 0.188284 -0.275818
C29   C     C_3   0.777068 0.964752 0.164940 -0.468422
C30   C     C_3   0.345981 0.200861 0.139809 0.028353
C31   C     C_3   0.296643 0.110129 0.199860 -0.277235
C32   C     C_3   0.164829 0.057032 0.185642 -0.475546
C33   C     C_3   0.133257 0.552634 0.362619 -0.278434
C34   C     C_R   0.508657 0.372070 0.817103 -0.124430
C35   C     C_3   0.131708 0.399522 0.336053 -0.435670
C36   C     C_3   0.132388 0.561343 0.636075 -0.281501
C37   C     C_3   0.132803 0.409615 0.664316 -0.431058
C38   C     C_R   0.464589 0.624761 0.744809 -0.145823
C39   C     C_R   0.514376 0.372997 0.745156 -0.144146
C40   C     C_R   0.493156 0.499508 0.708464 0.009304
C41   C     C_R   0.480278 0.497302 0.853590 0.037442
C42   C     C_3   0.071372 0.581533 0.434262 -0.096734
Cu1   Cu    Cu3+1 0.499860 0.642410 0.500030 0.858232
Cu2   Cu    Cu3+1 0.499860 0.357590 0.500030 0.861147
H1    H     H_    0.482449 0.728629 0.282490 0.128229
H2    H     H_    0.398879 0.876879 0.596607 0.106613
H3    H     H_    0.402593 0.123138 0.405780 0.104988
H4    H     H_    0.402488 0.877348 0.405831 0.107682
H5    H     H_    0.568573 0.121609 0.398093 0.111310
H6    H     H_    0.568458 0.877864 0.398051 0.109621
H7    H     H_    0.304443 0.121754 0.520895 0.107010
H8    H     H_    0.304449 0.878876 0.521043 0.107792
H9    H     H_    0.435831 0.721733 0.843579 0.131290
H10   H     H_    0.525978 0.273037 0.844080 0.131644
H11   H     H_    0.446799 0.723506 0.717650 0.109549
H12   H     H_    0.496547 0.270434 0.282849 0.129697
H13   H     H_    0.536243 0.274801 0.718329 0.113394
H14   H     H_    0.093034 0.696408 0.442098 0.099453
H15   H     H_    0.091581 0.699761 0.554672 0.097479
H16   H     H_    0.887638 0.682539 0.429412 0.100571
H17   H     H_    0.886471 0.685078 0.568818 0.100227
H18   H     H_    0.893779 0.513965 0.386994 0.122398
H19   H     H_    0.893473 0.517944 0.612483 0.123603
H20   H     H_    0.104797 0.281611 0.456520 0.114064
H21   H     H_    0.103737 0.284358 0.545985 0.110469
H22   H     H_    0.592325 0.866074 0.083187 0.181461
H23   H     H_    0.894799 0.285251 0.454283 0.112793
H24   H     H_    0.663751 0.712032 0.119611 0.118964
H25   H     H_    0.587545 0.982750 0.201925 0.198170
H26   H     H_    0.672994 0.832485 0.235260 0.136845
H27   H     H_    0.846428 0.881097 0.151583 0.143029
H28   H     H_    0.815304 0.030978 0.207431 0.141790
H29   H     H_    0.761271 0.033919 0.119203 0.175971
H30   H     H_    0.342117 0.136345 0.091709 0.179310
H31   H     H_    0.283718 0.294613 0.131098 0.117272
H32   H     H_    0.359038 0.017087 0.207837 0.194611
H33   H     H_    0.294975 0.173997 0.248146 0.136860
H34   H     H_    0.893873 0.286903 0.547175 0.110896
H35   H     H_    0.100154 0.148397 0.178674 0.142773
H36   H     H_    0.131798 0.992336 0.230086 0.138674
H37   H     H_    0.163683 0.989639 0.138443 0.168970
H38   H     H_    0.206553 0.336351 0.361078 0.149131
H39   H     H_    0.039447 0.349007 0.344052 0.142379
H40   H     H_    0.151955 0.399496 0.279686 0.135429
H41   H     H_    0.085350 0.620429 0.323691 0.133479
H42   H     H_    0.231610 0.589444 0.363640 0.158703
H43   H     H_    0.154103 0.412596 0.720469 0.143917
H44   H     H_    0.040824 0.357750 0.657692 0.141230
H45   H     H_    0.628347 0.123648 0.585661 0.109444
H46   H     H_    0.207756 0.346171 0.639296 0.151327
H47   H     H_    0.230248 0.599819 0.634486 0.156310
H48   H     H_    0.083294 0.630203 0.674268 0.133991
H49   H     H_    0.628403 0.875858 0.585645 0.112848
H50   H     H_    0.698832 0.120336 0.502046 0.109957
H51   H     H_    0.698924 0.878772 0.502035 0.110953
H52   H     H_    0.398649 0.123822 0.596560 0.109986
N1    N     N_R   0.525931 0.386844 0.034305 -0.187084
N2    N     N_R   0.423961 0.606603 0.033985 -0.188554
N3    N     N_R   0.526522 0.386396 0.965572 -0.243883
N4    N     N_R   0.425075 0.606597 0.965196 -0.244690
N5    N     N_3   0.500250 0.143650 0.501520 -0.218659
N6    N     N_3   0.500250 0.856350 0.501520 -0.218403
O1    O     O_R   0.317570 0.620260 0.500040 -0.525437
O2    O     O_3   0.472342 0.238295 0.150659 -0.563716
O3    O     O_R   0.317570 0.379740 0.500040 -0.517201
O4    O     O_R   0.499870 0.620300 0.400170 -0.513511
O5    O     O_R   0.499870 0.379700 0.400170 -0.510455
O6    O     O_R   0.682190 0.620260 0.500020 -0.512019
O7    O     O_R   0.682190 0.379740 0.500020 -0.511701
O8    O     O_R   0.499890 0.620220 0.599880 -0.510758
O9    O     O_R   0.499890 0.379780 0.599880 -0.509038
O10   O     O_3   0.477180 0.758605 0.149254 -0.563066

loop_
_geom_bond_atom_site_label_1
_geom_bond_atom_site_label_2
_ccdc_geom_bond_type
C3    C42   S    
C37   H44   S    
C28   H25   S    
C15   H3    S    
C20   H12   S    
C42   H14   S    
C14   H2    S    
Cu2   O3    S    
C32   H37   S    
C4    H19   S    
C37   H46   S    
C33   C42   S    
C36   C37   S    
C19   C21   A    
C16   H6    S    
C3    C7    S    
C30   C31   S    
C30   H30   S    
Cu2   O5    S    
C29   H29   S    
C20   C25   A    
C10   H50   S    
C2    C36   S    
C15   C16   S    
C39   H13   S    
C22   O2    S    
C18   C40   S    
C33   H41   S    
C27   H24   S    
C13   H7    S    
C14   H8    S    
C38   H11   S    
C10   H45   S    
C7    C17   S    
C23   H9    S    
Cu1   O8    S    
C1    O1    A    
C12   N2    A    
C26   N3    A    
C9    H34   S    
C29   H28   S    
C3    H16   S    
C36   H48   S    
C13   C14   S    
C8    C25   S    
C16   H4    S    
C2    C6    S    
C34   C41   A    
C4    C7    S    
N1    N3    A    
C35   H38   S    
C1    O3    A    
C31   H33   S    
C13   H52   S    
C1    C6    S    
C18   O9    A    
C5    H21   S    
C17   O6    A    
C39   C40   A    
C35   H39   S    
C2    H15   S    
C4    H17   S    
C34   C39   A    
C5    H20   S    
C8    O4    A    
Cu1   O4    S    
C2    C4    S    
C33   H42   S    
C9    H23   S    
C5    C9    S    
C32   H36   S    
C31   C32   S    
Cu2   N5    S    
C15   N5    S    
C12   N1    A    
C36   H47   S    
C16   N6    S    
C20   C22   A    
C27   O10   S    
C34   H10   S    
N2    N4    A    
Cu1   Cu2   S    
C22   C24   A    
C13   N5    S    
C8    O5    A    
C21   O10   S    
C3    H18   S    
C11   H51   S    
C7    C9    S    
C28   C29   S    
C37   H43   S    
C10   N5    S    
C28   H26   S    
C18   O8    A    
C17   O7    A    
C35   H40   S    
C19   H1    S    
C23   C38   A    
C12   C24   S    
C23   C41   A    
Cu1   N6    S    
C27   H22   S    
Cu2   O7    S    
C32   H35   S    
C38   C40   A    
C30   H31   S    
C11   H49   S    
C31   H32   S    
C5    C6    S    
C33   C35   S    
C11   N6    S    
Cu1   O6    S    
C15   H5    S    
C19   C25   A    
Cu1   O1    S    
C14   N6    S    
C10   C11   S    
Cu2   O9    S    
C6    C42   S    
C21   C24   A    
C30   O2    S    
C27   C28   S    
C26   C41   S    
C26   N4    A    
C29   H27   S    
