data_mof_unit_10837.cif
_audit_creation_date              2012-10-26T18:26:57-0400
_audit_creation_method            fapswitch 2.2
_symmetry_space_group_name_H-M    P1
_symmetry_Int_Tables_number       1
_space_group_crystal_system       triclinic
_cell_length_a                    14.99822
_cell_length_b                    10.923338
_cell_length_c                    9.726461
_cell_angle_alpha                 90.069823
_cell_angle_beta                  89.262345
_cell_angle_gamma                 89.926585
_cell_volume                      1593.35761406

loop_
_atom_site_label
_atom_site_type_symbol
_atom_type_description
_atom_site_fract_x
_atom_site_fract_y
_atom_site_fract_z
_atom_type_partial_charge
C1    C     C_R   0.499224 0.265457 0.499972 0.566911
C2    C     C_R   0.188408 0.387941 0.505893 -0.123103
C3    C     C_R   0.233009 0.499736 0.503046 -0.005757
C4    C     C_R   0.329160 0.500797 0.500875 0.544524
C5    C     C_R   0.186246 0.610073 0.502342 -0.134520
C6    C     C_2   0.501563 0.932953 0.386890 -0.167514
C7    C     C_2   0.506887 0.866601 0.502297 -0.119258
C8    C     C_2   0.505708 0.066969 0.387053 -0.162512
C9    C     C_2   0.495251 0.133417 0.502018 -0.103965
C10   C     C_2   0.471265 0.409163 0.922811 0.003563
C11   C     C_2   0.456936 0.420273 0.076641 0.259206
C12   C     C_R   0.905940 0.607882 0.502105 0.019918
C13   C     C_R   0.501520 0.734556 0.500107 0.546140
C14   C     C_R   0.670941 0.496307 0.498976 0.586700
C15   C     C_R   0.812757 0.604834 0.502989 -0.186664
C16   C     C_R   0.767556 0.493699 0.496211 0.015241
C17   C     C_R   0.813752 0.382026 0.485726 0.256338
C18   C     C_R   0.907496 0.382512 0.497189 -0.034447
C19   C     C_R   0.953499 0.495661 0.500008 -0.017163
C20   C     C_3   0.779031 0.218089 0.345082 -0.009145
C21   C     C_3   0.717890 0.273502 0.236990 -0.264410
C22   C     C_3   0.723286 0.202901 0.101706 -0.488742
C23   C     C_R   0.955950 0.272692 0.507042 -0.104269
C24   C     C_3   0.122180 0.125670 0.377329 -0.003256
C25   C     C_3   0.048946 0.054169 0.303785 -0.276621
C26   C     C_3   0.084247 0.994942 0.171774 -0.474881
C27   C     C_R   0.048963 0.272633 0.504117 0.257113
C28   C     C_R   0.095204 0.384828 0.503716 0.019625
C29   C     C_R   0.047238 0.496550 0.502257 0.011240
C30   C     C_R   0.093249 0.609344 0.503067 -0.008368
C31   C     C_R   0.045933 0.719668 0.504873 -0.076957
C32   C     C_R   0.952934 0.720199 0.505536 0.107040
Cu1   Cu    Cu3+1 0.500020 0.500020 0.638630 0.957794
Cu2   Cu    Cu3+1 0.499980 0.499980 0.361370 0.957472
H1    H     H_    0.774026 0.688517 0.508108 0.108122
H2    H     H_    0.081402 0.806064 0.506920 0.133918
H3    H     H_    0.495036 0.888218 0.287716 0.147533
H4    H     H_    0.332499 0.352512 0.094681 0.202253
H5    H     H_    0.414603 0.249530 0.120380 0.189337
H6    H     H_    0.588401 0.630680 0.150591 0.255357
H7    H     H_    0.628446 0.490501 0.114156 0.237250
H8    H     H_    0.763023 0.119280 0.356212 0.156569
H9    H     H_    0.849011 0.223127 0.306539 0.108956
H10   H     H_    0.648128 0.271790 0.275276 0.210922
H11   H     H_    0.738218 0.369683 0.217734 0.160491
H12   H     H_    0.517413 0.907702 0.602009 0.104739
H13   H     H_    0.792604 0.203876 0.060076 0.158235
H14   H     H_    0.678706 0.246411 0.025600 0.159645
H15   H     H_    0.701598 0.106660 0.117371 0.144275
H16   H     H_    0.180930 0.064797 0.389785 0.154750
H17   H     H_    0.145072 0.203853 0.312127 0.122192
H18   H     H_    0.022599 0.981797 0.372904 0.206209
H19   H     H_    0.993435 0.116883 0.277599 0.141589
H20   H     H_    0.110675 0.065929 0.100491 0.155529
H21   H     H_    0.029329 0.945362 0.120345 0.156651
H22   H     H_    0.138005 0.928424 0.195350 0.149963
H23   H     H_    0.516000 0.111616 0.288384 0.139009
H24   H     H_    0.867605 0.839505 0.598198 0.240097
H25   H     H_    0.868268 0.844104 0.423112 0.220810
H26   H     H_    0.481622 0.092396 0.601230 0.096953
H27   H     H_    0.453016 0.323769 0.873801 0.123633
H28   H     H_    0.500458 0.584252 0.890859 0.249642
H29   H     H_    0.922032 0.185441 0.514469 0.164174
H30   H     H_    0.226989 0.304014 0.508794 0.137875
H31   H     H_    0.222442 0.696026 0.501461 0.102679
N1    N     N_2   0.499020 0.498660 0.846910 -0.343773
N2    N     N_2   0.499000 0.498630 0.153040 -0.133734
N3    N     N_3   0.394236 0.339304 0.141097 -0.567494
N4    N     N_3   0.575642 0.550383 0.096002 -0.569914
N5    N     N_3   0.908144 0.836182 0.510036 -0.656167
O1    O     O_R   0.500020 0.321960 0.617040 -0.501582
O2    O     O_3   0.093571 0.161777 0.510788 -0.573213
O3    O     O_R   0.499980 0.321920 0.382900 -0.487665
O4    O     O_R   0.370270 0.499990 0.617090 -0.497487
O5    O     O_R   0.370240 0.499950 0.382940 -0.464070
O6    O     O_R   0.500020 0.678080 0.617100 -0.507748
O7    O     O_R   0.499980 0.678040 0.382960 -0.505011
O8    O     O_R   0.629760 0.500050 0.617060 -0.472930
O9    O     O_R   0.629730 0.500010 0.382910 -0.531014
O10   O     O_3   0.765601 0.273739 0.475899 -0.574826

loop_
_geom_bond_atom_site_label_1
_geom_bond_atom_site_label_2
_ccdc_geom_bond_type
C8    C9    D    
C22   H14   S    
H5    N3    S    
C26   H21   S    
C1    O1    A    
C6    C8    S    
C28   C29   A    
C25   H19   S    
Cu2   O7    S    
C30   C31   A    
C8    H23   S    
Cu1   O8    S    
C15   C16   A    
C18   C19   A    
C4    O5    A    
C2    H30   S    
C16   C17   A    
C12   C15   A    
C23   C27   A    
C4    O4    A    
Cu2   O5    S    
C24   H17   S    
C23   H29   S    
C22   H13   S    
C21   C22   S    
C12   C32   A    
C26   H20   S    
C15   H1    S    
C11   N2    D    
Cu1   N1    S    
Cu1   Cu2   S    
C21   H11   S    
C10   N1    D    
C24   H16   S    
C13   O7    A    
H6    N4    S    
H28   N1    S    
C18   C23   A    
C7    H12   S    
C1    C9    S    
C24   C25   S    
C5    H31   S    
C20   O10   S    
H24   N5    S    
C32   N5    S    
Cu2   O3    S    
C25   C26   S    
C17   O10   S    
N2    N4    S    
C29   C30   A    
Cu2   O9    S    
C21   H10   S    
Cu1   O6    S    
C31   C32   A    
C13   O6    A    
C17   C18   A    
C6    H3    S    
C14   O9    A    
C22   H15   S    
H4    N3    S    
C14   C16   S    
C10   H27   S    
C3    C4    S    
C19   C29   A    
C20   H9    S    
C11   N3    S    
C24   O2    S    
H7    N4    S    
C5    C30   A    
C3    C5    A    
C26   H22   S    
Cu2   N2    S    
C20   H8    S    
C6    C7    D    
C9    H26   S    
C1    O3    A    
C2    C3    A    
C25   H18   S    
C12   C19   A    
C14   O8    A    
C10   C11   S    
Cu1   O1    S    
H25   N5    S    
Cu1   O4    S    
C7    C13   S    
C20   C21   S    
C27   C28   A    
C31   H2    S    
C2    C28   A    
C27   O2    S    
