data_mof_unit_33056.cif
_audit_creation_date              2012-12-10T17:16:43-0500
_audit_creation_method            fapswitch 2.2
_symmetry_space_group_name_H-M    P1
_symmetry_Int_Tables_number       1
_space_group_crystal_system       triclinic
_cell_length_a                    10.098251
_cell_length_b                    10.644653
_cell_length_c                    10.825378
_cell_angle_alpha                 89.961209
_cell_angle_beta                  94.932911
_cell_angle_gamma                 81.829898
_cell_volume                      1147.47076875

loop_
_atom_site_label
_atom_site_type_symbol
_atom_type_description
_atom_site_fract_x
_atom_site_fract_y
_atom_site_fract_z
_atom_type_partial_charge
C1    C     C_R   0.444135 0.511916 0.267395 0.925322
C2    C     C_R   0.505891 0.738861 0.517761 0.863563
C3    C     C_R   0.709575 0.082728 0.379283 -0.093757
C4    C     C_R   0.290938 0.916851 0.621902 -0.094090
C5    C     C_R   0.835847 0.009432 0.383517 -0.143572
C6    C     C_R   0.164665 0.990104 0.617874 -0.142804
C7    C     C_R   0.861704 0.898540 0.454706 -0.160939
C8    C     C_R   0.138673 0.101049 0.546763 -0.159365
C9    C     C_R   0.758208 0.856106 0.513095 -0.109756
C10   C     C_R   0.242041 0.143575 0.488236 -0.109186
C11   C     C_R   0.626408 0.923662 0.499756 0.087931
C12   C     C_R   0.555984 0.495010 0.732616 0.926810
C13   C     C_R   0.373899 0.076102 0.501402 0.087336
C14   C     C_R   0.606871 0.045109 0.446252 0.066202
C15   C     C_R   0.393504 0.954624 0.554864 0.067678
C16   C     C_R   0.513672 0.873545 0.537550 -0.249307
C17   C     C_R   0.486590 0.126209 0.463349 -0.251855
C18   C     C_2   0.412628 0.530065 0.135819 -0.362034
C19   C     C_2   0.587955 0.503784 0.864181 -0.367089
C20   C     C_2   0.513187 0.538900 0.065978 -0.138713
C21   C     C_2   0.488253 0.542809 0.934040 -0.152250
C22   C     C_2   0.071488 0.494203 0.486617 0.062667
C23   C     C_2   0.928535 0.505711 0.513450 0.060857
C24   C     C_R   0.494175 0.261043 0.482484 0.871070
F1    F     F_    0.885567 0.379138 0.353271 -0.615034
F2    F     F_    0.114406 0.621001 0.646634 -0.617259
H1    H     H_    0.039047 0.155214 0.538366 0.174131
H2    H     H_    0.616679 0.534035 0.105386 0.209153
H3    H     H_    0.690740 0.477212 0.904021 0.167625
H4    H     H_    0.309431 0.534568 0.095977 0.165307
H5    H     H_    0.894083 0.563780 0.589695 0.130758
H6    H     H_    0.105968 0.436042 0.410439 0.130298
H7    H     H_    0.961299 0.844315 0.463210 0.174612
H8    H     H_    0.692580 0.168475 0.322893 0.179472
H9    H     H_    0.308055 0.830964 0.678109 0.175594
H10   H     H_    0.914540 0.040501 0.334315 0.165912
H11   H     H_    0.086057 0.958936 0.667121 0.165416
H12   H     H_    0.782550 0.771856 0.570793 0.153159
H13   H     H_    0.217470 0.227772 0.430490 0.152989
H14   H     H_    0.385170 0.569207 0.894634 0.211534
N1    N     N_2   0.157300 0.551390 0.551120 0.122450
N2    N     N_2   0.842700 0.448610 0.448880 0.121965
O1    O     O_R   0.568940 0.489660 0.307530 -0.580879
O2    O     O_R   0.431060 0.510340 0.692470 -0.579143
O3    O     O_R   0.348880 0.522640 0.340350 -0.636633
O4    O     O_R   0.651120 0.477360 0.659650 -0.635805
O5    O     O_R   0.610030 0.300280 0.483580 -0.591268
O6    O     O_R   0.389970 0.699720 0.516420 -0.593885
O7    O     O_R   0.389970 0.333270 0.516400 -0.630318
O8    O     O_R   0.610030 0.666730 0.483600 -0.633762
Zn1   Zn    Zn3+2 0.646940 0.477980 0.478080 1.014169
Zn2   Zn    Zn3+2 0.353060 0.522020 0.521920 1.014722

loop_
_geom_bond_atom_site_label_1
_geom_bond_atom_site_label_2
_ccdc_geom_bond_type
F1    N2    S    
C6    C8    A    
C18   H4    S    
C3    C14   A    
C17   C24   S    
C9    C11   A    
C11   C16   A    
N1    Zn2   S    
O3    Zn2   S    
C13   C17   A    
N2    Zn1   S    
O7    Zn2   S    
C1    O3    A    
O2    Zn2   S    
C4    C15   A    
C2    O8    A    
O8    Zn1   S    
C6    H11   S    
C12   O2    A    
C7    H7    S    
C14   C17   A    
O1    Zn1   S    
C1    C18   S    
C23   N2    D    
C22   H6    S    
C12   C19   S    
C4    C6    A    
C9    H12   S    
C19   C21   D    
C18   C20   D    
C21   H14   S    
C13   C15   A    
C11   C14   A    
C4    H9    S    
C22   N1    D    
C15   C16   A    
C19   H3    S    
C5    H10   S    
C7    C9    A    
O6    Zn2   S    
C2    C16   S    
C20   C21   S    
C12   O4    A    
C24   O7    A    
C5    C7    A    
C8    H1    S    
C22   C23   S    
O5    Zn1   S    
C20   H2    S    
C3    H8    S    
C2    O6    A    
C24   O5    A    
O4    Zn1   S    
C1    O1    A    
C8    C10   A    
F2    N1    S    
C10   H13   S    
C3    C5    A    
C10   C13   A    
C23   H5    S    
