data_mof_unit_55117.cif
_audit_creation_date              2012-10-26T19:59:37-0400
_audit_creation_method            fapswitch 2.2
_symmetry_space_group_name_H-M    P1
_symmetry_Int_Tables_number       1
_space_group_crystal_system       triclinic
_cell_length_a                    10.745145
_cell_length_b                    8.696275
_cell_length_c                    7.450474
_cell_angle_alpha                 102.771841
_cell_angle_beta                  94.336646
_cell_angle_gamma                 92.469822
_cell_volume                      675.741978335

loop_
_atom_site_label
_atom_site_type_symbol
_atom_type_description
_atom_site_fract_x
_atom_site_fract_y
_atom_site_fract_z
_atom_type_partial_charge
C1    C     C_R   0.501077 0.200304 0.453964 0.576455
C2    C     C_R   0.512047 0.799951 0.546058 0.494547
C3    C     C_R   0.737413 0.506261 0.498865 0.550683
C4    C     C_R   0.150940 0.772674 0.731272 -0.103559
C5    C     C_R   0.095640 0.899531 0.838215 -0.123123
C6    C     C_R   0.966099 0.901359 0.833899 -0.102562
C7    C     C_R   0.891121 0.776400 0.722481 -0.091306
C8    C     C_R   0.945114 0.645371 0.614751 0.022209
C9    C     C_2   0.622861 0.048220 0.736579 0.226387
C10   C     C_R   0.076706 0.643340 0.619484 0.025757
C11   C     C_R   0.129611 0.514146 0.506803 0.005777
C12   C     C_R   0.054369 0.394169 0.386528 -0.145184
C13   C     C_R   0.926062 0.396259 0.381803 -0.127740
C14   C     C_R   0.871375 0.518283 0.497516 0.011547
C15   C     C_2   0.499784 0.032760 0.431568 -0.130472
C16   C     C_2   0.540806 0.966097 0.569110 -0.035872
C17   C     C_R   0.262882 0.504355 0.502678 0.534378
Cu1   Cu    Cu3+1 0.513920 0.517380 0.684380 0.978435
Cu2   Cu    Cu3+1 0.486080 0.482620 0.315620 0.962256
H1    H     H_    0.095426 0.296845 0.297903 0.121846
H2    H     H_    0.615206 0.013556 0.866791 0.110719
H3    H     H_    0.597568 0.622186 0.051389 0.238570
H4    H     H_    0.251762 0.778938 0.735196 0.142257
H5    H     H_    0.153558 0.997693 0.923140 0.112809
H6    H     H_    0.923476 0.000916 0.915464 0.138602
H7    H     H_    0.791047 0.785309 0.719225 0.127725
H8    H     H_    0.869099 0.299821 0.291300 0.139522
H9    H     H_    0.451916 0.962617 0.303907 0.105742
H10   H     H_    0.402494 0.377761 0.948570 0.237880
N1    N     N_2   0.465100 0.456430 0.038520 -0.249495
N2    N     N_2   0.534900 0.543570 0.961480 -0.247182
O1    O     O_R   0.509050 0.286130 0.619770 -0.458807
O2    O     O_R   0.485540 0.256780 0.308360 -0.512005
O3    O     O_R   0.331410 0.514680 0.655740 -0.515515
O4    O     O_R   0.307900 0.485330 0.344330 -0.499076
O5    O     O_R   0.514460 0.743220 0.691640 -0.538117
O6    O     O_R   0.490950 0.713870 0.380230 -0.509663
O7    O     O_R   0.692100 0.514670 0.655670 -0.476862
O8    O     O_R   0.668590 0.485320 0.344260 -0.504362
O9    O     O_2   0.704916 0.147221 0.727565 -0.493201

loop_
_geom_bond_atom_site_label_1
_geom_bond_atom_site_label_2
_ccdc_geom_bond_type
C9    O9    D    
C11   C12   A    
Cu1   O5    S    
C6    C7    A    
C1    C15   S    
C2    C16   S    
N1    N2    D    
C12   H1    S    
C7    H7    S    
Cu1   O7    S    
C3    O8    A    
C7    C8    A    
Cu2   O4    S    
C13   C14   A    
C3    C14   S    
C2    O6    A    
C9    H2    S    
C15   H9    S    
H10   N1    S    
C5    H5    S    
Cu2   O8    S    
C17   O4    A    
C9    C16   S    
C10   C11   A    
Cu1   O3    S    
Cu2   O2    S    
C5    C6    A    
C6    H6    S    
Cu1   O1    S    
H3    N2    S    
C1    O2    A    
C15   C16   D    
C12   C13   A    
C8    C10   A    
Cu1   Cu2   S    
C17   O3    A    
C2    O5    A    
C4    H4    S    
C13   H8    S    
C8    C14   A    
Cu1   N2    S    
Cu2   O6    S    
Cu2   N1    S    
C4    C10   A    
C1    O1    A    
C11   C17   S    
C3    O7    A    
C4    C5    A    
