data_mof_unit_9057.cif
_audit_creation_date              2013-03-05T15:58:34-0500
_audit_creation_method            fapswitch 2.2
_symmetry_space_group_name_H-M    P1
_symmetry_Int_Tables_number       1
_space_group_crystal_system       triclinic
_cell_length_a                    15.057029
_cell_length_b                    13.710278
_cell_length_c                    10.688838
_cell_angle_alpha                 89.899241
_cell_angle_beta                  90.51672
_cell_angle_gamma                 90.140371
_cell_volume                      2206.46185164

loop_
_atom_site_label
_atom_site_type_symbol
_atom_site_description
_atom_site_fract_x
_atom_site_fract_y
_atom_site_fract_z
_atom_type_partial_charge
O1    O     O_R   0.370260 0.582280 0.500030 -0.589437
O2    O     O_R   0.629740 0.417720 0.499970 -0.589401
O3    O     O_R   0.629740 0.582280 0.499970 -0.563319
O4    O     O_R   0.370260 0.417720 0.500030 -0.563223
C1    C     C_R   0.328908 0.499905 0.499685 0.870745
C2    C     C_R   0.671093 0.500093 0.500362 0.870726
O5    O     O_R   0.499980 0.582260 0.316850 -0.565934
O6    O     O_R   0.500020 0.417740 0.683150 -0.565739
O7    O     O_R   0.500020 0.582260 0.683150 -0.584588
O8    O     O_R   0.499980 0.417740 0.316850 -0.584525
C3    C     C_R   0.500597 0.500090 0.259299 0.894897
C4    C     C_R   0.499360 0.499912 0.740699 0.894953
Cu1   Cu    Cu3+1 0.500000 0.597420 0.500000 1.016187
Cu2   Cu    Cu3+1 0.500000 0.402580 0.500000 1.016293
C5    C     C_3   0.426875 0.547097 0.041223 -0.189152
C6    C     C_3   0.573020 0.452918 0.958781 -0.189113
C7    C     C_3   0.500042 0.593131 0.957767 -0.243569
C8    C     C_3   0.499849 0.406882 0.042223 -0.243458
C9    C     C_3   0.428453 0.454940 0.959509 0.390991
C10   C     C_3   0.571435 0.545078 0.040485 0.391078
H1    H     H_    0.367383 0.585903 0.074983 0.243862
H2    H     H_    0.632515 0.414119 0.925020 0.243881
H3    H     H_    0.501789 0.669301 0.922409 0.195385
H4    H     H_    0.498100 0.330711 0.077580 0.195297
C11   C     C_3   0.499758 0.499848 0.877057 -0.161301
C12   C     C_3   0.500137 0.500166 0.122938 -0.161209
C13   C     C_R   0.812019 0.501159 0.389082 -0.221771
C14   C     C_R   0.187993 0.498748 0.610995 -0.221743
C15   C     C_R   0.767452 0.500299 0.502673 -0.175799
C16   C     C_R   0.232552 0.499684 0.497397 -0.175792
C17   C     C_R   0.814286 0.496450 0.616693 0.322480
C18   C     C_R   0.185715 0.503526 0.383384 0.322440
C19   C     C_R   0.907819 0.497321 0.616007 -0.044957
C20   C     C_R   0.092185 0.502605 0.384078 -0.044952
C21   C     C_R   0.953164 0.498842 0.500545 -0.001320
C22   C     C_R   0.046843 0.501073 0.499544 -0.001331
C23   C     C_R   0.904877 0.498355 0.386158 0.012231
C24   C     C_R   0.095133 0.501531 0.613931 0.012224
C25   C     C_R   0.956788 0.499684 0.728315 -0.160699
C26   C     C_R   0.043218 0.500178 0.271774 -0.160686
C27   C     C_R   0.049358 0.502570 0.728453 0.310406
C28   C     C_R   0.950652 0.497254 0.271641 0.310405
H5    H     H_    0.773201 0.504383 0.303395 0.210530
H6    H     H_    0.226820 0.495484 0.696674 0.210405
H7    H     H_    0.923632 0.502398 0.817499 0.259479
H8    H     H_    0.076371 0.497424 0.182589 0.259486
C29   C     C_R   0.440954 0.793121 0.572928 0.037214
C30   C     C_R   0.559052 0.206880 0.427080 0.037215
C31   C     C_R   0.559293 0.793683 0.427607 0.057568
C32   C     C_R   0.440695 0.206314 0.572369 0.057518
N1    N     N_R   0.500000 0.743810 0.500000 -0.197993
N2    N     N_R   0.500000 0.256190 0.500000 -0.197996
C33   C     C_R   0.560607 0.896696 0.425667 -0.016389
C34   C     C_R   0.439386 0.103302 0.574316 -0.016414
C35   C     C_R   0.439509 0.896157 0.574611 -0.006946
C36   C     C_R   0.560492 0.103842 0.425387 -0.006969
C37   C     C_R   0.500013 0.948202 0.500043 0.091495
C38   C     C_R   0.499986 0.051796 0.499949 0.091517
C39   C     C_R   0.620831 0.949219 0.351451 -0.155844
C40   C     C_R   0.379160 0.050780 0.648529 -0.155886
C41   C     C_R   0.379252 0.948193 0.648724 -0.176403
C42   C     C_R   0.620746 0.051806 0.351268 -0.176404
H9    H     H_    0.394964 0.752118 0.629987 0.136680
H10   H     H_    0.605046 0.247883 0.370028 0.136725
H11   H     H_    0.605799 0.753143 0.371590 0.178348
H12   H     H_    0.394172 0.246850 0.628354 0.178543
H13   H     H_    0.667977 0.910974 0.293484 0.176033
H14   H     H_    0.332010 0.089025 0.706489 0.175998
H15   H     H_    0.332155 0.909577 0.706806 0.160416
H16   H     H_    0.667844 0.090423 0.293187 0.160454
N3    N     N_R   0.350067 0.403516 0.913759 0.124239
O9    O     O_R   0.271623 0.429939 0.950156 -0.240635
O10   O     O_R   0.358773 0.324817 0.847398 -0.388271
N4    N     N_R   0.649791 0.596527 0.086277 0.124500
O11   O     O_R   0.728301 0.569452 0.051096 -0.241718
O12   O     O_R   0.641068 0.675636 0.151800 -0.387775
N5    N     N_R   0.766741 0.490807 0.732216 0.101513
O13   O     O_R   0.777545 0.416001 0.805786 -0.335692
O14   O     O_R   0.710972 0.558963 0.762345 -0.345300
N6    N     N_R   0.233256 0.509184 0.267859 0.101567
O15   O     O_R   0.222364 0.583934 0.194223 -0.335692
O16   O     O_R   0.289079 0.441080 0.237763 -0.345238
N7    N     N_R   0.095486 0.508819 0.846058 0.155388
O17   O     O_R   0.074029 0.450393 0.936968 -0.271490
O18   O     O_R   0.147332 0.582829 0.869135 -0.309730
N8    N     N_R   0.904530 0.490867 0.154050 0.155522
O19   O     O_R   0.925929 0.549251 0.063068 -0.271507
O20   O     O_R   0.852772 0.416768 0.131064 -0.309521

loop_
_geom_bond_atom_site_label_1
_geom_bond_atom_site_label_2
_geom_bond_distance
_ccdc_geom_bond_type
O5    Cu1   1.969024 S    
C13   C15   1.392561 A    
C9    N3    1.454634 S    
C21   C22   1.410928 A    
C8    C12   1.543974 S    
O3    C2    1.288714 A    
C33   C39   1.406364 A    
C25   C27   1.394284 A    
C34   C40   1.406363 A    
N5    O13   1.300923 A    
C26   H8    1.080817 S    
C32   C34   1.412535 A    
C31   H11   1.080931 S    
C8    H4    1.110301 S    
C21   C23   1.416877 A    
C29   H9    1.082598 S    
N8    O20   1.301292 A    
C30   H10   1.082598 S    
C27   N7    1.433268 S    
C7    C10   1.534795 S    
C42   H16   1.083312 S    
C30   C36   1.413040 A    
C8    C9    1.534836 S    
C23   C28   1.410287 A    
O7    Cu1   1.968296 S    
C39   H13   1.083362 S    
Cu1   N1    2.007048 S    
Cu2   N2    2.007048 S    
C31   N1    1.367835 A    
C32   N2    1.367824 A    
C17   C19   1.408436 A    
C28   N8    1.433216 S    
C20   C22   1.415919 A    
O3    Cu1   1.965005 S    
C6    C10   1.537591 S    
C25   H7    1.080814 S    
C26   C28   1.394232 A    
Cu1   Cu2   2.671309 S    
O2    C2    1.288292 A    
O2    Cu2   1.963993 S    
C17   N5    1.434761 S    
N5    O14   1.300696 A    
N4    O11   1.298962 A    
C24   C27   1.410321 A    
N6    O16   1.300621 A    
O8    Cu2   1.968297 S    
N3    O10   1.299849 A    
C33   C37   1.407593 A    
N8    O19   1.300751 A    
N6    O15   1.300913 A    
C5    C12   1.542047 S    
C29   N1    1.368369 A    
C3    C12   1.457493 S    
C14   H6    1.082963 S    
C6    H2    1.106577 S    
C40   C41   1.406498 A    
C18   C20   1.408396 A    
C5    C9    1.537614 S    
C18   N6    1.434763 S    
O5    C3    1.284617 A    
N7    O17   1.300756 A    
C7    H3    1.110302 S    
C14   C24   1.399443 A    
O6    C4    1.284641 A    
C10   N4    1.454587 S    
C19   C25   1.403501 A    
C32   H12   1.080886 S    
N4    O12   1.299676 A    
N7    O18   1.301299 A    
C35   C37   1.407936 A    
O1    C1    1.288306 A    
O1    Cu1   1.963993 S    
C29   C35   1.413027 A    
C1    C16   1.450818 S    
C34   C38   1.407587 A    
C41   H15   1.083312 S    
C6    C11   1.542082 S    
C5    C7    1.555677 S    
C39   C42   1.406506 A    
O6    Cu2   1.969023 S    
O4    C1    1.288677 A    
C4    C11   1.457470 S    
C7    C11   1.543936 S    
C14   C16   1.392577 A    
N3    O9    1.299441 A    
C15   C17   1.403512 A    
C16   C18   1.403466 A    
C37   C38   1.420308 A    
C5    H1    1.106575 S    
C10   C12   1.523247 S    
C13   C23   1.399421 A    
C31   C33   1.412547 A    
C35   C41   1.406352 A    
C22   C24   1.416895 A    
C19   C21   1.415903 A    
C36   C38   1.407934 A    
C36   C42   1.406355 A    
O4    Cu2   1.965005 S    
C9    C11   1.523296 S    
O7    C4    1.284824 A    
O8    C3    1.284855 A    
C13   H5    1.082945 S    
C30   N2    1.368378 A    
C2    C15   1.450864 S    
C40   H14   1.083363 S    
C6    C8    1.555650 S    
C20   C26   1.403475 A    
