data_mof_unit_49140.cif
_audit_creation_date              2013-03-05T15:45:11-0500
_audit_creation_method            fapswitch 2.2
_symmetry_space_group_name_H-M    P1
_symmetry_Int_Tables_number       1
_space_group_crystal_system       triclinic
_cell_length_a                    11.607541
_cell_length_b                    11.505643
_cell_length_c                    19.552711
_cell_angle_alpha                 90.472125
_cell_angle_beta                  90.033985
_cell_angle_gamma                 60.059167
_cell_volume                      2262.7106828

loop_
_atom_site_label
_atom_site_type_symbol
_atom_site_description
_atom_site_fract_x
_atom_site_fract_y
_atom_site_fract_z
_atom_type_partial_charge
O1    O     O_R   0.267740 0.231990 0.575440 -0.492299
O2    O     O_R   0.527280 0.186680 0.570530 -0.497681
C1    C     C_R   0.640131 0.117493 0.599250 0.542391
O3    O     O_R   0.728090 0.003480 0.576380 -0.498176
O4    O     O_R   0.682970 0.789220 0.570490 -0.487780
C2    C     C_R   0.611991 0.746448 0.598640 0.549040
O5    O     O_R   0.499290 0.771920 0.575530 -0.499907
O6    O     O_R   0.285330 0.030900 0.569730 -0.488411
C3    C     C_R   0.240946 0.145363 0.598181 0.558377
O7    O     O_R   0.270980 0.227040 0.423900 -0.404567
O8    O     O_R   0.530280 0.182090 0.430050 -0.480461
C4    C     C_R   0.645357 0.109683 0.401553 0.545668
O9    O     O_R   0.731330 0.998530 0.424830 -0.460389
O10   O     O_R   0.685970 0.784630 0.430010 -0.451524
C5    C     C_R   0.615215 0.740063 0.402357 0.572547
O11   O     O_R   0.502530 0.766960 0.423990 -0.519237
O12   O     O_R   0.288330 0.026310 0.429250 -0.506185
C6    C     C_R   0.300870 0.117055 0.393518 0.551636
Cr1   Cr    Cr6+3 0.404720 0.198220 0.499960 1.112953
Cr2   Cr    Cr6+3 0.698290 0.897110 0.500380 1.107333
Cr3   Cr    Cr6+3 0.396970 0.904720 0.499610 1.063463
O13   O     O_3   0.499990 0.000020 0.499980 -0.312785
C7    C     C_1   0.670577 0.646504 0.860120 0.016629
C8    C     C_1   0.654331 0.683911 0.728422 -0.026438
C9    C     C_1   0.663382 0.666803 0.799680 -0.025089
C10   C     C_1   0.640614 0.704221 0.667996 0.011030
C11   C     C_1   0.126692 0.198654 0.859301 0.016283
C12   C     C_1   0.171594 0.170211 0.727708 -0.026167
C13   C     C_1   0.150175 0.182145 0.798946 -0.024200
C14   C     C_1   0.195378 0.160912 0.667377 0.008811
C15   C     C_1   0.679176 0.190949 0.860775 0.016797
C16   C     C_1   0.658358 0.167383 0.729036 -0.026045
C17   C     C_1   0.665993 0.180709 0.800349 -0.024583
C18   C     C_1   0.652502 0.150026 0.668636 0.009885
C19   C     C_R   0.526955 0.766349 0.288311 -0.144795
H1    H     H_    0.427896 0.829510 0.308746 0.167347
C20   C     C_R   0.542158 0.753565 0.218385 0.180383
C21   C     C_R   0.669897 0.675412 0.191504 0.019321
C22   C     C_R   0.782653 0.624831 0.235145 0.151788
C23   C     C_R   0.765475 0.627198 0.305511 0.170044
C24   C     C_R   0.637502 0.701788 0.331692 -0.025284
C25   C     C_R   0.276287 0.229013 0.276433 0.177565
C26   C     C_R   0.250590 0.224566 0.206764 0.152924
C27   C     C_R   0.162650 0.181149 0.187052 0.012662
C28   C     C_R   0.132475 0.106469 0.233361 0.205451
C29   C     C_R   0.190936 0.076538 0.297233 -0.127047
H2    H     H_    0.169662 0.014729 0.330574 0.198255
C30   C     C_R   0.258806 0.139956 0.321433 -0.074658
C31   C     C_R   0.735906 0.029174 0.284036 0.161650
C32   C     C_R   0.720237 0.055592 0.214195 0.214416
C33   C     C_R   0.662354 0.188754 0.192239 0.031543
C34   C     C_R   0.597359 0.295249 0.240081 0.140413
C35   C     C_R   0.603438 0.267735 0.309076 -0.083265
H3    H     H_    0.555665 0.349817 0.345531 0.196684
C36   C     C_R   0.668373 0.136290 0.331619 -0.024506
O14   O     O_R   0.821500 0.119550 0.952820 -0.494629
O15   O     O_R   0.037130 0.162750 0.957360 -0.496834
C37   C     C_R   0.081831 0.231141 0.928592 0.551380
O16   O     O_R   0.056440 0.344950 0.951330 -0.493974
O17   O     O_R   0.797900 0.560570 0.957460 -0.494186
C38   C     C_R   0.684094 0.604319 0.929489 0.553305
O18   O     O_R   0.596140 0.579600 0.952720 -0.491961
O19   O     O_R   0.639070 0.321380 0.958660 -0.495037
C39   C     C_R   0.708768 0.206698 0.930103 0.551983
O20   O     O_R   0.821240 0.124490 0.104360 -0.427252
O21   O     O_R   0.036900 0.167320 0.097830 -0.460280
C40   C     C_R   0.085585 0.233627 0.124381 0.592187
O22   O     O_R   0.056190 0.349890 0.102870 -0.441082
O23   O     O_R   0.797670 0.565150 0.097930 -0.470621
C41   C     C_R   0.684016 0.613648 0.124882 0.608251
O24   O     O_R   0.595880 0.584540 0.104260 -0.431652
O25   O     O_R   0.638830 0.325960 0.099140 -0.464610
C42   C     C_R   0.705836 0.211622 0.126181 0.607669
Cr4   Cr    Cr6+3 0.926180 0.152240 0.028110 1.157706
Cr5   Cr    Cr6+3 0.921340 0.452070 0.027460 1.142669
Cr6   Cr    Cr6+3 0.626260 0.447120 0.028700 1.145651
O26   O     O_3   0.824590 0.350480 0.028090 -0.321572
N1    N     N_R   0.764437 0.948032 0.164999 0.093274
O27   O     O_R   0.681614 0.951136 0.119203 -0.313417
O28   O     O_R   0.890293 0.861512 0.157972 -0.178719
Br1   Br    Br    0.492411 0.480689 0.217186 -0.302023
N2    N     N_R   0.427344 0.816736 0.175309 0.090577
O29   O     O_R   0.321153 0.811977 0.191240 -0.235703
O30   O     O_R   0.429826 0.875203 0.119080 -0.296290
Br2   Br    Br    0.959254 0.567875 0.202756 -0.202794
Br3   Br    Br    0.915140 0.526813 0.365575 -0.332938
N3    N     N_R   0.289384 0.342668 0.298727 0.116857
O31   O     O_R   0.233326 0.453013 0.263820 -0.164238
O32   O     O_R   0.347142 0.344652 0.354760 -0.307808
Br4   Br    Br    0.331169 0.284058 0.139249 -0.321945
N4    N     N_R   0.030614 0.074244 0.220500 0.095611
O33   O     O_R   0.055124 0.972450 0.181444 -0.178709
O34   O     O_R   0.928100 0.123946 0.261087 -0.370476
Br5   Br    Br    0.866667 0.850232 0.310756 -0.250178

loop_
_geom_bond_atom_site_label_1
_geom_bond_atom_site_label_2
_geom_bond_distance
_ccdc_geom_bond_type
N3    O31   1.300074 A    
C21   C41   1.448275 S    
O11   Cr3   2.055406 S    
C11   C13   1.203329 T    
C19   H1    1.082379 S    
O25   Cr6   1.920910 S    
O4    Cr2   1.923652 S    
C2    C10   1.426400 S    
C28   C29   1.382606 A    
C27   C28   1.412242 A    
O22   Cr5   2.048219 S    
O8    Cr1   1.937850 S    
C12   C13   1.408553 S    
C19   C20   1.375925 A    
C8    C10   1.201282 T    
O4    C2    1.278147 A    
N1    O28   1.300130 A    
O19   Cr6   1.934791 S    
C5    O11   1.256970 A    
O21   Cr4   1.938239 S    
O20   C42   1.278516 A    
C23   Br3   1.936053 S    
O6    C3    1.272901 A    
Cr4   O26   1.976899 S    
C15   C17   1.203625 T    
C41   O24   1.288666 A    
C31   Br5   1.926913 S    
O21   C40   1.262678 A    
Cr3   O13   1.985195 S    
O18   Cr6   2.038973 S    
O23   C41   1.261204 A    
C19   C24   1.405507 A    
C32   N1    1.437775 S    
O12   C6    1.327881 A    
C35   C36   1.386482 A    
C21   C22   1.423489 A    
C29   C30   1.394485 A    
O1    Cr1   2.057626 S    
C26   Br4   1.934294 S    
O14   Cr4   2.056693 S    
C33   C34   1.415887 A    
O10   Cr2   1.934843 S    
Cr1   O13   1.976344 S    
O1    C3    1.266788 A    
C8    C9    1.405262 S    
C5    C24   1.430592 S    
C22   C23   1.388435 A    
N1    O27   1.300978 A    
C1    C18   1.430508 S    
C32   C33   1.402155 A    
C37   O16   1.266678 A    
C31   C36   1.420067 A    
O12   Cr3   1.925781 S    
O20   Cr4   2.051021 S    
C40   O22   1.279153 A    
O17   C38   1.279640 A    
C16   C18   1.203668 T    
O15   Cr4   1.935767 S    
C26   C27   1.394780 A    
C20   C21   1.394830 A    
N4    O34   1.298907 A    
C34   Br1   1.912398 S    
O7    Cr1   2.055024 S    
O14   C39   1.269601 A    
O6    Cr3   1.938566 S    
C25   C30   1.444946 A    
Cr6   O26   1.995219 S    
Cr5   O26   1.984476 S    
C3    C14   1.429941 S    
C23   C24   1.387890 A    
Cr2   O13   1.994942 S    
C31   C32   1.393428 A    
N2    O30   1.301408 A    
N3    O32   1.290086 A    
C20   N2    1.433748 S    
C25   C26   1.400294 A    
C22   Br2   1.919990 S    
C1    O3    1.271662 A    
O16   Cr5   2.058449 S    
N4    O33   1.299509 A    
C34   C35   1.381931 A    
C29   H2    1.083885 S    
O9    Cr2   2.041247 S    
O2    Cr1   1.938442 S    
C15   C39   1.430337 S    
C33   C42   1.459845 S    
O25   C42   1.266781 A    
C11   C37   1.429920 S    
C6    C30   1.473523 S    
O8    C4    1.292743 A    
C35   H3    1.083562 S    
C2    O5    1.272861 A    
O17   Cr5   1.930045 S    
C16   C17   1.409078 S    
C12   C14   1.203332 T    
O2    C1    1.276926 A    
O5    Cr3   2.042696 S    
O15   C37   1.272796 A    
O24   Cr6   2.052446 S    
O7    C6    1.274457 A    
O23   Cr5   1.939186 S    
C7    C9    1.201267 T    
C38   O18   1.273591 A    
C28   N4    1.426313 S    
C4    C36   1.457344 S    
O19   C39   1.276772 A    
O3    Cr2   2.053699 S    
C7    C38   1.426345 S    
C4    O9    1.254456 A    
N2    O29   1.299028 A    
O10   C5    1.282613 A    
C27   C40   1.462221 S    
C25   N3    1.453307 S    
