data_mof_unit_27889.cif
_audit_creation_date              2012-12-10T20:45:30-0500
_audit_creation_method            fapswitch 2.2
_symmetry_space_group_name_H-M    P1
_symmetry_Int_Tables_number       1
_space_group_crystal_system       triclinic
_cell_length_a                    10.700321
_cell_length_b                    10.679715
_cell_length_c                    9.850482
_cell_angle_alpha                 89.671481
_cell_angle_beta                  90.03768
_cell_angle_gamma                 90.099273
_cell_volume                      1125.65698183

loop_
_atom_site_label
_atom_site_type_symbol
_atom_type_description
_atom_site_fract_x
_atom_site_fract_y
_atom_site_fract_z
_atom_type_partial_charge
C1    C     C_R   0.503837 0.259985 0.500302 0.874265
C2    C     C_R   0.233500 0.783366 0.075086 -0.089716
C3    C     C_R   0.932656 0.557264 0.394281 -0.243215
C4    C     C_R   0.872436 0.495635 0.501187 -0.075738
C5    C     C_R   0.939230 0.441212 0.609631 -0.006120
C6    C     C_R   0.067238 0.448228 0.606962 -0.237869
C7    C     C_R   0.127677 0.509063 0.499718 -0.067539
C8    C     C_R   0.060947 0.567011 0.392988 0.008753
C9    C     C_R   0.883745 0.430457 0.855862 -0.144419
C10   C     C_R   0.824933 0.371468 0.965720 -0.137901
C11   C     C_R   0.763067 0.257482 0.947227 -0.121320
C12   C     C_R   0.260199 0.504489 0.499741 0.890086
C13   C     C_R   0.760083 0.202270 0.818925 -0.116421
C14   C     C_R   0.817375 0.261702 0.708318 -0.107822
C15   C     C_R   0.879484 0.376365 0.726236 0.140663
C16   C     C_R   0.516634 0.063018 0.623316 0.053350
C17   C     C_R   0.522803 0.128679 0.501298 -0.062895
C18   C     C_R   0.551314 0.065510 0.380673 -0.226639
C19   C     C_R   0.550619 0.935910 0.380416 -0.244969
C20   C     C_R   0.520272 0.871473 0.500417 -0.060375
C21   C     C_R   0.513754 0.935716 0.622748 0.063088
C22   C     C_3   0.423022 0.929522 0.738586 0.095057
C23   C     C_R   0.503218 0.739991 0.499729 0.903276
C24   C     C_3   0.426563 0.071689 0.738628 -0.505243
C25   C     C_R   0.450311 0.401325 0.072021 0.204044
C26   C     C_R   0.559700 0.591255 0.071489 -0.136072
C27   C     C_R   0.560019 0.591064 0.927424 -0.109200
C28   C     C_R   0.448434 0.402419 0.929326 0.230138
C29   C     C_3   0.314747 0.362297 0.926684 -0.524049
C30   C     C_3   0.318903 0.356358 0.080470 -0.493855
C31   C     C_R   0.739875 0.496749 0.500363 0.862241
C32   C     C_R   0.257116 0.812190 0.210766 -0.140395
C33   C     C_R   0.200745 0.742234 0.314296 -0.073407
C34   C     C_R   0.120433 0.642241 0.282910 0.125794
C35   C     C_R   0.094556 0.616131 0.145914 -0.215761
C36   C     C_R   0.151955 0.685693 0.042540 -0.110025
H1    H     H_    0.277970 0.837313 0.995454 0.163567
H2    H     H_    0.717665 0.211818 0.032348 0.117550
H3    H     H_    0.713558 0.113264 0.805399 0.125874
H4    H     H_    0.813447 0.218657 0.609097 0.110955
H5    H     H_    0.566126 0.115181 0.285801 0.160897
H6    H     H_    0.565583 0.887301 0.285579 0.158058
H7    H     H_    0.464766 0.886859 0.831255 0.116112
H8    H     H_    0.337239 0.116768 0.707934 0.230015
H9    H     H_    0.470830 0.110868 0.831291 0.170833
H10   H     H_    0.605890 0.666142 0.125458 0.137636
H11   H     H_    0.319015 0.888869 0.235693 0.141474
H12   H     H_    0.606708 0.665651 0.872610 0.139338
H13   H     H_    0.251843 0.436972 0.887548 0.217097
H14   H     H_    0.301227 0.269267 0.879662 0.202619
H15   H     H_    0.256039 0.424262 0.130335 0.235760
H16   H     H_    0.313134 0.259316 0.121448 0.199587
H17   H     H_    0.219952 0.765595 0.418790 0.158025
H18   H     H_    0.032342 0.540072 0.119252 0.128643
H19   H     H_    0.133407 0.663692 0.937277 0.160563
H20   H     H_    0.879179 0.602731 0.314399 0.157188
H21   H     H_    0.119924 0.402825 0.687384 0.155383
H22   H     H_    0.930997 0.519027 0.871158 0.122719
H23   H     H_    0.827072 0.414186 0.065106 0.133952
N1    N     N_R   0.499160 0.499140 0.142800 -0.101062
N2    N     N_R   0.499160 0.499180 0.857150 -0.098085
O1    O     O_R   0.500020 0.316790 0.614690 -0.614112
O2    O     O_R   0.500000 0.316760 0.385350 -0.628350
O3    O     O_R   0.316770 0.500030 0.614670 -0.608201
O4    O     O_R   0.316750 0.499990 0.385330 -0.616705
O5    O     O_R   0.500000 0.683240 0.614650 -0.605793
O6    O     O_R   0.499980 0.683210 0.385310 -0.632834
O7    O     O_R   0.683250 0.500010 0.614670 -0.611130
O8    O     O_R   0.683230 0.499970 0.385330 -0.632834
Zn1   Zn    Zn3+2 0.500010 0.500020 0.653130 0.968142
Zn2   Zn    Zn3+2 0.499990 0.499980 0.346870 0.941926
Br1   Br    Br    0.258790 0.864621 0.690586 -0.604600

loop_
_geom_bond_atom_site_label_1
_geom_bond_atom_site_label_2
_ccdc_geom_bond_type
N2    Zn1   S    
C27   H12   S    
C11   H2    S    
C30   H15   S    
C19   H6    S    
C16   C21   A    
C25   N1    A    
O3    Zn1   S    
C3    H20   S    
O5    Zn1   S    
C1    C17   S    
C35   C36   A    
C2    H1    S    
C20   C23   S    
C10   H23   S    
C28   N2    A    
C19   C20   A    
C33   C34   A    
C9    C15   A    
C7    C8    A    
C16   C24   S    
C36   H19   S    
C29   H13   S    
C21   C22   S    
C32   C33   A    
C35   H18   S    
C33   H17   S    
C11   C13   A    
C6    H21   S    
C26   C27   A    
C29   C30   S    
C12   O3    A    
C24   H9    S    
C1    O2    A    
C23   O5    A    
C22   Br1   S    
C28   C29   S    
O2    Zn2   S    
C9    H22   S    
C6    C7    A    
O6    Zn2   S    
C29   H14   S    
C3    C8    A    
C17   C18   A    
C5    C6    A    
C24   H8    S    
C32   H11   S    
C22   C24   S    
C7    C12   S    
C5    C15   S    
C4    C31   S    
C13   H3    S    
C10   C11   A    
C26   H10   S    
C14   H4    S    
C3    C4    A    
C9    C10   A    
C31   O8    A    
C2    C36   A    
C20   C21   A    
O1    Zn1   S    
C1    O1    A    
O7    Zn1   S    
C34   C35   A    
C12   O4    A    
C18   H5    S    
C23   O6    A    
C25   C30   S    
O8    Zn2   S    
C18   C19   A    
C30   H16   S    
C14   C15   A    
C2    C32   A    
C8    C34   S    
C27   N2    A    
N1    Zn2   S    
O4    Zn2   S    
C26   N1    A    
C31   O7    A    
C22   H7    S    
C16   C17   A    
C4    C5    A    
C25   C28   A    
C13   C14   A    
