data_mof_unit_65649.cif
_audit_creation_date              2013-03-05T16:39:53-0500
_audit_creation_method            fapswitch 2.2
_symmetry_space_group_name_H-M    P1
_symmetry_Int_Tables_number       1
_space_group_crystal_system       triclinic
_cell_length_a                    27.602536
_cell_length_b                    26.963582
_cell_length_c                    18.560067
_cell_angle_alpha                 90.407552
_cell_angle_beta                  89.589436
_cell_angle_gamma                 90.021255
_cell_volume                      13812.870854

loop_
_atom_site_label
_atom_site_type_symbol
_atom_site_description
_atom_site_fract_x
_atom_site_fract_y
_atom_site_fract_z
_atom_type_partial_charge
O1    O     O_R   0.050900 0.449080 0.560840 -0.591852
O2    O     O_R   0.949100 0.550920 0.439160 -0.571104
O3    O     O_R   0.949100 0.550920 0.560840 -0.572446
O4    O     O_R   0.050900 0.449080 0.439160 -0.562399
O5    O     O_R   0.949100 0.449080 0.439160 -0.558332
O6    O     O_R   0.050900 0.550920 0.560840 -0.577065
O7    O     O_R   0.050900 0.550920 0.439160 -0.574756
O8    O     O_R   0.949100 0.449080 0.560840 -0.582241
O9    O     O_R   0.550900 0.949080 0.560840 -0.578187
O10   O     O_R   0.449100 0.050920 0.439160 -0.587635
O11   O     O_R   0.449100 0.050920 0.560840 -0.562855
O12   O     O_R   0.550900 0.949080 0.439160 -0.559587
O13   O     O_R   0.449100 0.949080 0.439160 -0.555441
O14   O     O_R   0.550900 0.050920 0.560840 -0.557360
O15   O     O_R   0.550900 0.050920 0.439160 -0.577916
O16   O     O_R   0.449100 0.949080 0.560840 -0.583401
C1    C     C_R   0.067148 0.433106 0.499491 1.009596
C2    C     C_R   0.932800 0.566866 0.500138 1.023358
C3    C     C_R   0.931295 0.434359 0.500206 1.025958
C4    C     C_R   0.067326 0.567016 0.499975 1.006072
C5    C     C_R   0.567768 0.933780 0.499350 1.013974
C6    C     C_R   0.430982 0.065256 0.500222 1.014485
C7    C     C_R   0.431310 0.934486 0.500289 1.014666
C8    C     C_R   0.567120 0.067001 0.500237 1.008186
Zn1   Zn    Zn3+2 0.000000 0.500000 0.581210 1.137955
Zn2   Zn    Zn3+2 0.000000 0.500000 0.418790 1.160769
Zn3   Zn    Zn3+2 0.500000 1.000000 0.581210 1.154096
Zn4   Zn    Zn3+2 0.500000 0.000000 0.418790 1.151051
C9    C     C_R   0.995396 0.543515 0.727282 0.264928
C10   C     C_R   0.022804 0.462196 0.272865 0.283060
C11   C     C_R   0.005096 0.456153 0.725607 0.272231
C12   C     C_R   0.978461 0.537567 0.271846 0.259517
C13   C     C_R   0.511797 0.042142 0.727942 0.294590
C14   C     C_R   0.513427 0.958091 0.272730 0.268567
C15   C     C_R   0.486337 0.958055 0.726189 0.255568
C16   C     C_R   0.486506 0.041587 0.273118 0.263303
C17   C     C_R   0.994883 0.544013 0.803403 0.343836
C18   C     C_R   0.026340 0.462451 0.196681 0.312244
C19   C     C_R   0.007823 0.455316 0.801668 0.339264
C20   C     C_R   0.982013 0.539417 0.195433 0.337236
C21   C     C_R   0.508621 0.043480 0.804110 0.355065
C22   C     C_R   0.508951 0.955392 0.197124 0.333918
C23   C     C_R   0.484989 0.957298 0.802563 0.315729
C24   C     C_R   0.485523 0.041497 0.196745 0.341431
C25   C     C_R   0.093665 0.650160 0.459380 0.298502
C26   C     C_R   0.854333 0.407003 0.559971 0.296781
C27   C     C_R   0.879452 0.367671 0.446130 0.288185
C28   C     C_R   0.141101 0.607178 0.551060 0.279117
C29   C     C_R   0.903314 0.651239 0.532160 0.283508
C30   C     C_R   0.150299 0.399792 0.480856 0.275379
C31   C     C_R   0.083269 0.343611 0.511820 0.286476
C32   C     C_R   0.849769 0.593298 0.467030 0.280396
C33   C     C_R   0.582110 0.156869 0.489401 0.278114
C34   C     C_R   0.351436 0.912293 0.554877 0.284193
C35   C     C_R   0.384847 0.860653 0.457644 0.302450
C36   C     C_R   0.650079 0.101518 0.517828 0.274725
C37   C     C_R   0.379827 0.133388 0.553154 0.297120
C38   C     C_R   0.652059 0.905432 0.473511 0.275912
C39   C     C_R   0.591070 0.846642 0.520186 0.274678
C40   C     C_R   0.352737 0.090379 0.443789 0.287775
C41   C     C_R   0.119959 0.693023 0.472716 -0.083466
C42   C     C_R   0.813998 0.376082 0.561852 -0.090578
C43   C     C_R   0.840173 0.335713 0.451571 -0.104970
C44   C     C_R   0.170814 0.648877 0.556054 -0.103624
C45   C     C_R   0.865544 0.685427 0.534722 -0.101088
C46   C     C_R   0.181732 0.359360 0.481755 -0.106155
C47   C     C_R   0.115199 0.303827 0.508963 -0.081925
C48   C     C_R   0.813163 0.628579 0.470512 -0.097537
C49   C     C_R   0.613501 0.197145 0.491394 -0.086825
C50   C     C_R   0.312002 0.880322 0.559765 -0.081150
C51   C     C_R   0.347674 0.826874 0.468776 -0.113983
C52   C     C_R   0.680859 0.142540 0.515782 -0.102291
C53   C     C_R   0.341438 0.166213 0.546511 -0.109544
C54   C     C_R   0.686792 0.868261 0.479161 -0.087286
C55   C     C_R   0.626854 0.810496 0.524111 -0.098893
C56   C     C_R   0.313388 0.122606 0.440517 -0.081829
H1    H     H_    0.111214 0.726483 0.443592 0.205801
H2    H     H_    0.787664 0.380048 0.605109 0.201848
H3    H     H_    0.834696 0.307746 0.410167 0.199988
H4    H     H_    0.202755 0.647566 0.589537 0.206658
H5    H     H_    0.871104 0.721847 0.558328 0.202494
H6    H     H_    0.219933 0.364747 0.470418 0.204193
H7    H     H_    0.101765 0.266506 0.517220 0.203121
H8    H     H_    0.778192 0.620800 0.446732 0.201248
H9    H     H_    0.599470 0.234349 0.484672 0.203493
H10   H     H_    0.282237 0.889409 0.595856 0.206669
H11   H     H_    0.346278 0.793624 0.435707 0.201462
H12   H     H_    0.719170 0.137993 0.526163 0.207972
H13   H     H_    0.336629 0.195458 0.586313 0.199215
H14   H     H_    0.723866 0.875112 0.462375 0.205669
H15   H     H_    0.617715 0.773173 0.540741 0.201914
H16   H     H_    0.286308 0.117602 0.399095 0.204597
C57   C     C_R   0.160146 0.691877 0.517626 0.073272
C58   C     C_R   0.807212 0.340272 0.508481 0.080448
C59   C     C_R   0.820972 0.673959 0.504393 0.086758
C60   C     C_R   0.164125 0.311585 0.494159 0.081649
C61   C     C_R   0.662570 0.190062 0.504312 0.079397
C62   C     C_R   0.310184 0.837531 0.517404 0.075062
C63   C     C_R   0.308098 0.160620 0.491077 0.078654
C64   C     C_R   0.674193 0.821434 0.503959 0.083009
N1    N     N_R   1.000000 0.500000 0.689440 -0.246732
N2    N     N_R   1.000000 0.500000 0.310560 -0.225818
N3    N     N_R   0.500000 0.000000 0.689440 -0.233835
N4    N     N_R   0.500000 0.000000 0.310560 -0.236338
C65   C     C_R   0.966103 0.475868 0.963030 0.160825
C66   C     C_R   0.042801 0.523715 0.036167 0.107152
C67   C     C_R   0.040869 0.524240 0.959740 0.165692
C68   C     C_R   0.966823 0.477182 0.039410 0.197330
C69   C     C_R   0.538150 0.984375 0.960687 0.089642
C70   C     C_R   0.452680 0.008252 0.038300 0.163725
C71   C     C_R   0.453271 0.010250 0.961938 0.205882
C72   C     C_R   0.538135 0.984792 0.037109 0.189789
C73   C     C_R   0.001875 0.499657 0.841498 -0.071279
C74   C     C_R   0.005498 0.501225 0.157548 -0.031326
C75   C     C_R   0.496177 0.000268 0.841938 -0.039691
C76   C     C_R   0.496050 0.997712 0.157861 -0.085368
C77   C     C_R   0.102526 0.607364 0.500957 -0.243605
C78   C     C_R   0.887938 0.402829 0.501663 -0.230344
C79   C     C_R   0.894881 0.604075 0.500071 -0.234077
C80   C     C_R   0.100769 0.391885 0.497383 -0.233530
C81   C     C_R   0.600403 0.108646 0.501995 -0.238861
C82   C     C_R   0.388312 0.902772 0.502756 -0.239964
C83   C     C_R   0.387319 0.096393 0.499736 -0.230944
C84   C     C_R   0.603992 0.894944 0.497008 -0.245386
C85   C     C_R   0.211540 0.752291 0.585157 0.193422
C86   C     C_R   0.734500 0.302911 0.451994 0.192378
C87   C     C_R   0.759205 0.276051 0.572335 0.196941
C88   C     C_R   0.211084 0.753727 0.452970 0.195004
C89   C     C_R   0.767516 0.730833 0.438535 0.200785
C90   C     C_R   0.202250 0.238247 0.550641 0.201678
C91   C     C_R   0.224748 0.261023 0.427028 0.201596
C92   C     C_R   0.761840 0.726288 0.570537 0.205213
C93   C     C_R   0.722779 0.239979 0.571780 0.198649
C94   C     C_R   0.245326 0.791765 0.453755 0.196096
C95   C     C_R   0.250115 0.786151 0.585300 0.198240
C96   C     C_R   0.700058 0.264824 0.449648 0.204239
C97   C     C_R   0.260625 0.224339 0.426420 0.200818
C98   C     C_R   0.725721 0.762683 0.570464 0.207195
C99   C     C_R   0.730795 0.766418 0.438360 0.195703
C100  C     C_R   0.236252 0.199794 0.548496 0.192474
C101  C     C_R   0.765620 0.306745 0.511807 -0.193903
C102  C     C_R   0.193950 0.733966 0.518793 -0.183598
C103  C     C_R   0.197204 0.269311 0.490349 -0.196670
C104  C     C_R   0.782753 0.710931 0.504594 -0.208337
C105  C     C_R   0.267415 0.805291 0.519342 -0.185917
C106  C     C_R   0.695079 0.232769 0.508938 -0.195940
C107  C     C_R   0.710612 0.782619 0.504382 -0.209040
C108  C     C_R   0.266914 0.194542 0.487739 -0.195712
C109  C     C_R   0.005353 0.500501 0.076469 -0.066944
C110  C     C_R   0.002867 0.499897 0.922681 -0.135395
C111  C     C_R   0.495448 0.996662 0.076483 -0.140320
C112  C     C_R   0.496174 0.999407 0.922846 -0.091723
N5    N     N_R   0.989746 0.589025 0.689907 0.265493
O17   O     O_R   0.027612 0.616527 0.677848 -0.252246
O18   O     O_R   0.946873 0.608768 0.686711 -0.353498
N6    N     N_R   0.040733 0.419762 0.309449 0.261561
O19   O     O_R   0.087035 0.410891 0.310621 -0.351534
O20   O     O_R   0.010714 0.386090 0.332004 -0.233451
N7    N     N_R   0.006973 0.410364 0.686600 0.266081
O21   O     O_R   0.966919 0.386314 0.674948 -0.250702
O22   O     O_R   0.047948 0.386816 0.680955 -0.346810
N8    N     N_R   0.948382 0.573420 0.306879 0.227861
O23   O     O_R   0.901989 0.572722 0.295170 -0.272250
O24   O     O_R   0.967714 0.613090 0.334558 -0.331262
N9    N     N_R   0.530309 0.084907 0.692196 0.246082
O25   O     O_R   0.577043 0.089357 0.685184 -0.345131
O26   O     O_R   0.504063 0.124823 0.690486 -0.233063
N10   N     N_R   0.535613 0.917310 0.308270 0.258662
O27   O     O_R   0.580508 0.906315 0.293536 -0.250149
O28   O     O_R   0.509147 0.885420 0.342715 -0.281827
N11   N     N_R   0.474534 0.913787 0.687777 0.236459
O29   O     O_R   0.509330 0.887554 0.659601 -0.346271
O30   O     O_R   0.432125 0.893571 0.696658 -0.275145
N12   N     N_R   0.476266 0.086892 0.310517 0.248477
O31   O     O_R   0.435784 0.110038 0.298708 -0.248393
O32   O     O_R   0.511538 0.110863 0.340926 -0.338980
O33   O     O_3   0.990035 0.588467 0.840437 -0.545468
C113  C     C_3   0.940550 0.597385 0.856427 0.177451
H17   H     H_    0.916703 0.564101 0.851753 0.172938
H18   H     H_    0.926639 0.626013 0.819231 0.228904
C114  C     C_3   0.935956 0.617405 0.932851 -0.726134
H19   H     H_    0.958294 0.651424 0.938899 0.279885
H20   H     H_    0.897542 0.626654 0.944944 0.249241
H21   H     H_    0.948365 0.589093 0.971723 0.247229
O34   O     O_3   0.043437 0.420846 0.160380 -0.545962
C115  C     C_3   0.093317 0.426180 0.144091 0.186938
H22   H     H_    0.114714 0.403842 0.182419 0.229447
H23   H     H_    0.106890 0.465061 0.147087 0.170013
C116  C     C_3   0.103190 0.405900 0.068689 -0.723842
H24   H     H_    0.081576 0.426468 0.028622 0.228980
H25   H     H_    0.142230 0.409953 0.055145 0.248616
H26   H     H_    0.093280 0.366014 0.065874 0.275163
O35   O     O_3   0.012242 0.410356 0.836464 -0.535681
C117  C     C_3   0.061219 0.403195 0.855254 0.123900
H27   H     H_    0.073344 0.431601 0.894842 0.146730
H28   H     H_    0.085371 0.404624 0.807002 0.201859
C118  C     C_3   0.066606 0.352556 0.889753 -0.614499
H29   H     H_    0.055956 0.323031 0.850951 0.298534
H30   H     H_    0.104875 0.346679 0.905652 0.215418
H31   H     H_    0.043162 0.350236 0.938513 0.260869
O36   O     O_3   0.958538 0.575858 0.156283 -0.579198
C119  C     C_3   0.978411 0.623328 0.170794 0.209852
H32   H     H_    0.014278 0.622504 0.198171 0.198742
H33   H     H_    0.952707 0.644609 0.205344 0.227886
C120  C     C_3   0.984447 0.651428 0.100637 -0.701853
H34   H     H_    0.948485 0.657131 0.075660 0.257782
H35   H     H_    0.001062 0.688226 0.111418 0.254753
H36   H     H_    0.008216 0.630335 0.062898 0.274250
O37   O     O_3   0.510737 0.088766 0.839782 -0.549460
C121  C     C_3   0.558225 0.098040 0.864109 0.145186
H37   H     H_    0.586486 0.086573 0.824212 0.214317
H38   H     H_    0.564341 0.078593 0.915746 0.162541
C122  C     C_3   0.563996 0.153346 0.878087 -0.622738
H39   H     H_    0.537133 0.165967 0.919126 0.245606
H40   H     H_    0.601023 0.161169 0.898241 0.227695
H41   H     H_    0.558336 0.174161 0.827407 0.296191
O38   O     O_3   0.519937 0.911390 0.161992 -0.538996
C123  C     C_3   0.476685 0.884437 0.151550 0.122894
H42   H     H_    0.453904 0.902613 0.110162 0.168425
H43   H     H_    0.455453 0.880905 0.202609 0.207313
C124  C     C_3   0.489224 0.832480 0.125133 -0.611632
H44   H     H_    0.510526 0.812817 0.166667 0.291292
H45   H     H_    0.455476 0.811317 0.114490 0.224174
H46   H     H_    0.510939 0.834421 0.074668 0.250641
O39   O     O_3   0.468734 0.915854 0.839214 -0.554159
C125  C     C_3   0.505151 0.878980 0.839872 0.179103
H47   H     H_    0.542606 0.893818 0.832630 0.175347
H48   H     H_    0.498222 0.851568 0.796224 0.222687
C126  C     C_3   0.502878 0.852032 0.911532 -0.687590
H49   H     H_    0.466882 0.834220 0.918539 0.272848
H50   H     H_    0.531395 0.823037 0.913184 0.244489
H51   H     H_    0.508706 0.878714 0.956469 0.248140
O40   O     O_3   0.472109 0.083991 0.160616 -0.530647
C127  C     C_3   0.514171 0.110943 0.142070 0.113353
H52   H     H_    0.539758 0.088080 0.109302 0.160501
H53   H     H_    0.532890 0.124592 0.191313 0.199761
C128  C     C_3   0.499792 0.155379 0.097037 -0.627980
H54   H     H_    0.474707 0.179683 0.128243 0.296847
H55   H     H_    0.532568 0.176979 0.082062 0.211539
H56   H     H_    0.481565 0.142616 0.047040 0.257114
N13   N     N_R   0.059260 0.650619 0.402003 0.248470
O41   O     O_R   0.067955 0.623656 0.344949 -0.312677
O42   O     O_R   0.029399 0.687747 0.396821 -0.275110
N14   N     N_R   0.859556 0.443050 0.616796 0.235838
O43   O     O_R   0.862791 0.489969 0.601731 -0.334268
O44   O     O_R   0.852187 0.430065 0.683372 -0.261996
N15   N     N_R   0.909854 0.363742 0.383600 0.256344
O45   O     O_R   0.905959 0.396921 0.333407 -0.253353
O46   O     O_R   0.929168 0.321065 0.367312 -0.245702
N16   N     N_R   0.151310 0.565265 0.596255 0.242163
O47   O     O_R   0.144530 0.520173 0.573259 -0.343110
O48   O     O_R   0.171721 0.571954 0.658576 -0.265160
N17   N     N_R   0.950100 0.666166 0.558811 0.263987
O49   O     O_R   0.953583 0.702510 0.605046 -0.260257
O50   O     O_R   0.989680 0.648072 0.530971 -0.371816
N18   N     N_R   0.169396 0.447946 0.463045 0.243970
O51   O     O_R   0.144813 0.478447 0.423496 -0.324794
O52   O     O_R   0.214186 0.458818 0.477944 -0.280901
N19   N     N_R   0.033069 0.334039 0.527033 0.236624
O53   O     O_R   0.020990 0.299793 0.572846 -0.247719
O54   O     O_R   0.999836 0.352564 0.486038 -0.364213
N20   N     N_R   0.840242 0.547514 0.429208 0.252068
O55   O     O_R   0.857035 0.505694 0.452461 -0.380698
O56   O     O_R   0.809549 0.546635 0.376287 -0.245605
N21   N     N_R   0.531446 0.166026 0.478789 0.237139
O57   O     O_R   0.517674 0.201307 0.436049 -0.264405
O58   O     O_R   0.499773 0.146447 0.522118 -0.364809
N22   N     N_R   0.352038 0.955309 0.600888 0.240020
O59   O     O_R   0.357400 0.999072 0.573191 -0.365631
O60   O     O_R   0.337819 0.951808 0.667662 -0.243338
N23   N     N_R   0.416520 0.853060 0.397411 0.255669
O61   O     O_R   0.411030 0.881042 0.341239 -0.313291
O62   O     O_R   0.438193 0.810501 0.389473 -0.268921
N24   N     N_R   0.669934 0.054031 0.537643 0.244543
O63   O     O_R   0.643549 0.021181 0.570636 -0.345329
O64   O     O_R   0.716510 0.046765 0.534024 -0.263515
N25   N     N_R   0.409516 0.137555 0.615725 0.257986
O65   O     O_R   0.405588 0.103906 0.665337 -0.255567
O66   O     O_R   0.427059 0.180757 0.633245 -0.255194
N26   N     N_R   0.666817 0.952600 0.443947 0.243761
O67   O     O_R   0.636700 0.980305 0.408854 -0.333943
O68   O     O_R   0.712591 0.964138 0.441305 -0.264484
N27   N     N_R   0.541789 0.832901 0.536482 0.255029
O69   O     O_R   0.532817 0.795980 0.579392 -0.280867
O70   O     O_R   0.506091 0.852009 0.500838 -0.345533
N28   N     N_R   0.355299 0.050349 0.392319 0.238213
O71   O     O_R   0.361054 0.005079 0.414303 -0.349362
O72   O     O_R   0.342179 0.057602 0.326013 -0.250626
N29   N     N_R   0.191297 0.735304 0.652230 0.242942
O73   O     O_R   0.219237 0.717801 0.702174 -0.246732
O74   O     O_R   0.144599 0.735413 0.662369 -0.266463
N30   N     N_R   0.739173 0.336576 0.392537 0.244866
O75   O     O_R   0.743429 0.319710 0.326930 -0.248503
O76   O     O_R   0.740995 0.384195 0.404110 -0.279982
N31   N     N_R   0.790354 0.280588 0.633709 0.243276
O77   O     O_R   0.772068 0.289394 0.697328 -0.251438
O78   O     O_R   0.836862 0.274130 0.626575 -0.272584
N32   N     N_R   0.195374 0.733942 0.384971 0.233591
O79   O     O_R   0.173461 0.762258 0.339010 -0.259541
O80   O     O_R   0.204495 0.687980 0.367893 -0.290758
N33   N     N_R   0.789069 0.714628 0.371626 0.247479
O81   O     O_R   0.761928 0.698445 0.319464 -0.252277
O82   O     O_R   0.835824 0.716305 0.362456 -0.295659
N34   N     N_R   0.173479 0.246187 0.614525 0.241958
O83   O     O_R   0.146824 0.210538 0.640184 -0.255628
O84   O     O_R   0.174575 0.288743 0.647983 -0.306843
N35   N     N_R   0.217245 0.290864 0.364137 0.241105
O85   O     O_R   0.253551 0.313282 0.333309 -0.265893
O86   O     O_R   0.173878 0.296619 0.338455 -0.294968
N36   N     N_R   0.777975 0.705696 0.637494 0.246687
O87   O     O_R   0.791046 0.734753 0.690152 -0.261735
O88   O     O_R   0.779853 0.657872 0.645976 -0.303329
N37   N     N_R   0.714946 0.209508 0.634126 0.241868
O89   O     O_R   0.750943 0.186120 0.663407 -0.252958
O90   O     O_R   0.671494 0.203866 0.660489 -0.304205
N38   N     N_R   0.258726 0.815798 0.387533 0.240647
O91   O     O_R   0.273628 0.789866 0.332279 -0.259548
O92   O     O_R   0.258208 0.863958 0.383514 -0.284101
N39   N     N_R   0.272098 0.800311 0.652265 0.240056
O93   O     O_R   0.246156 0.820694 0.703238 -0.246447
O94   O     O_R   0.317968 0.792234 0.662812 -0.280035
N40   N     N_R   0.670841 0.258231 0.386542 0.241709
O95   O     O_R   0.644224 0.294490 0.363289 -0.260490
O96   O     O_R   0.671656 0.216388 0.351189 -0.302957
N41   N     N_R   0.291157 0.218038 0.364007 0.244044
O97   O     O_R   0.272127 0.209026 0.301329 -0.250803
O98   O     O_R   0.337908 0.222896 0.369227 -0.280081
N42   N     N_R   0.704056 0.778962 0.637242 0.246927
O99   O     O_R   0.686398 0.746757 0.682231 -0.265264
O100  O     O_R   0.702155 0.825946 0.653517 -0.297008
N43   N     N_R   0.714645 0.786845 0.371288 0.247020
O101  O     O_R   0.745766 0.805365 0.325871 -0.249889
O102  O     O_R   0.668783 0.787183 0.355533 -0.287209
N44   N     N_R   0.240948 0.167151 0.609046 0.245996
O103  O     O_R   0.246026 0.185132 0.673805 -0.253049
O104  O     O_R   0.241995 0.119326 0.599240 -0.280905
N45   N     N_R   0.928093 0.449234 0.926860 0.280874
O105  O     O_R   0.904261 0.469543 0.874556 -0.327678
O106  O     O_R   0.917071 0.404345 0.946384 -0.219454
N46   N     N_R   0.084490 0.544355 0.071858 0.233520
O107  O     O_R   0.079823 0.570927 0.130202 -0.372704
O108  O     O_R   0.127846 0.535244 0.047121 -0.286459
N47   N     N_R   0.077634 0.550233 0.919792 0.286304
O109  O     O_R   0.101165 0.528241 0.867653 -0.341982
O110  O     O_R   0.087748 0.596152 0.935650 -0.227263
N48   N     N_R   0.926896 0.456526 0.079258 0.263004
O111  O     O_R   0.934266 0.423264 0.128397 -0.255566
O112  O     O_R   0.882735 0.469766 0.064682 -0.243191
N49   N     N_R   0.580872 0.968232 0.921960 0.230208
O113  O     O_R   0.600926 0.925972 0.937103 -0.284210
O114  O     O_R   0.597731 0.993270 0.867681 -0.399548
N50   N     N_R   0.408450 0.018574 0.076972 0.281805
O115  O     O_R   0.393446 0.988970 0.127508 -0.318681
O116  O     O_R   0.383140 0.057856 0.062121 -0.218661
N51   N     N_R   0.409198 0.020207 0.923941 0.264870
O117  O     O_R   0.407493 0.055278 0.876261 -0.256989
O118  O     O_R   0.370571 0.993937 0.936715 -0.232593
N52   N     N_R   0.582780 0.977233 0.074774 0.270945
O119  O     O_R   0.601452 0.013229 0.112454 -0.360644
O120  O     O_R   0.601655 0.933154 0.078805 -0.200640

loop_
_geom_bond_atom_site_label_1
_geom_bond_atom_site_label_2
_geom_bond_distance
_ccdc_geom_bond_type
C92   C104  1.409063 A    
C117  H28   1.113498 S    
N40   O96   1.301248 A    
C14   C22   1.410923 A    
C33   C49   1.389496 A    
C27   N15   1.430627 S    
N45   O105  1.300779 A    
N33   O81   1.301182 A    
N11   O30   1.301012 A    
C26   C42   1.391044 A    
C11   N1    1.371477 A    
C18   C74   1.403144 A    
C114  H21   1.110018 S    
O6    Zn1   2.000076 S    
C66   C67   1.420047 A    
N16   O48   1.301603 A    
N23   O61   1.301039 A    
N14   O43   1.300474 A    
C10   C18   1.416710 A    
N24   O63   1.300302 A    
C118  H30   1.110510 S    
C70   C71   1.418663 A    
C67   C110  1.416900 A    
C36   C52   1.395026 A    
N7    O22   1.300471 A    
C26   N14   1.437122 S    
C70   N50   1.438058 S    
C85   C95   1.402350 A    
C10   N6    1.425253 S    
C90   C100  1.398977 A    
C59   C104  1.451685 S    
C127  H53   1.113376 S    
C65   C68   1.418075 A    
C31   C80   1.414919 A    
C7    C82   1.463201 S    
N8    O24   1.299413 A    
C114  H20   1.110350 S    
N36   O88   1.301299 A    
C48   C59   1.389197 A    
C119  H32   1.116322 S    
N46   O107  1.299846 A    
C54   C64   1.390172 A    
C122  H39   1.110931 S    
C40   C56   1.393155 A    
N38   O91   1.301451 A    
C127  C128  1.520215 S    
C126  H49   1.110620 S    
C37   C83   1.415591 A    
Zn4   N4    2.008754 S    
O4    Zn2   2.004594 S    
N51   O117  1.300808 A    
C34   C50   1.391109 A    
O11   Zn3   2.004595 S    
C71   N51   1.436893 S    
N50   O115  1.301258 A    
C10   N2    1.381573 A    
C72   C111  1.417529 A    
C65   N45   1.438704 S    
O2    Zn2   1.997099 S    
C22   C76   1.405624 A    
N10   O27   1.300997 A    
N22   O60   1.301359 A    
C36   N24   1.444016 S    
C16   C24   1.417930 A    
C35   N23   1.427903 S    
N32   O79   1.301329 A    
O15   Zn4   2.000190 S    
C91   C103  1.411642 A    
C87   N31   1.436569 S    
C39   C84   1.419114 A    
N19   O54   1.298313 A    
C86   C101  1.411711 A    
Zn3   N3    2.008754 S    
N30   O76   1.301346 A    
C66   N46   1.441496 S    
Zn2   N2    2.008754 S    
N28   O72   1.301439 A    
C54   H14   1.083764 S    
C115  C116  1.521704 S    
C33   N21   1.435384 S    
N6    O20   1.298473 A    
C8    C81   1.450894 S    
C117  C118  1.519991 S    
C24   C76   1.408620 A    
O35   C117  1.412230 S    
N13   O42   1.301504 A    
C115  H22   1.109061 S    
C35   C51   1.387085 A    
C57   C102  1.469070 S    
N15   O46   1.301135 A    
N39   O94   1.301228 A    
C47   H7    1.083842 S    
N49   O113  1.300421 A    
C97   C108  1.409559 A    
O9    C5    1.294327 A    
C113  H17   1.116030 S    
O34   C115  1.414992 S    
N31   O78   1.301260 A    
C89   C104  1.408899 A    
C99   N43   1.438635 S    
C19   O35   1.383479 S    
C43   C58   1.393912 A    
O7    Zn2   2.000190 S    
C30   C80   1.415408 A    
C126  H51   1.110131 S    
N17   O49   1.301950 A    
N37   O90   1.301378 A    
O13   C7    1.296690 A    
N13   O41   1.301174 A    
C87   C101  1.410187 A    
O14   C8    1.285771 A    
N41   O98   1.301264 A    
N12   O31   1.300815 A    
C1    C80   1.448367 S    
C123  H43   1.115273 S    
C3    C78   1.467960 S    
C41   H1    1.083210 S    
C19   C73   1.410207 A    
N18   O52   1.301667 A    
C15   C23   1.418016 A    
O40   C127  1.411299 S    
C85   C102  1.413085 A    
C55   H15   1.083873 S    
O16   Zn3   2.000194 S    
N34   O84   1.301290 A    
N9    O26   1.298304 A    
C128  H54   1.110646 S    
N41   O97   1.301098 A    
C21   C75   1.405846 A    
N29   O73   1.301355 A    
C52   C61   1.395700 A    
C120  H35   1.110384 S    
O8    C3    1.291107 A    
C72   N52   1.436472 S    
N26   O67   1.299404 A    
N44   O103  1.301311 A    
O38   C123  1.411280 S    
N39   O93   1.301170 A    
C40   C83   1.423879 A    
C96   C106  1.409998 A    
C124  H44   1.110659 S    
C88   C94   1.394545 A    
C30   C46   1.393840 A    
N48   O112  1.301121 A    
C89   C99   1.396011 A    
O37   C121  1.411093 S    
C31   C47   1.389083 A    
N22   O59   1.298458 A    
N52   O120  1.300718 A    
N21   O58   1.298213 A    
C86   N30   1.438929 S    
O15   C8    1.293692 A    
N51   O118  1.301121 A    
O7    C4    1.291571 A    
O16   C7    1.288590 A    
C121  H38   1.109728 S    
N47   O110  1.301258 A    
C49   H9    1.083812 S    
C38   C54   1.392243 A    
C123  C124  1.520205 S    
C25   C77   1.415092 A    
C91   N35   1.438671 S    
C90   N34   1.437135 S    
C73   C110  1.507175 S    
C42   H2    1.083896 S    
C13   N9    1.427062 S    
N42   O99   1.301170 A    
C28   C77   1.418739 A    
C62   C105  1.466193 S    
C121  C122  1.520326 S    
C32   N20   1.440827 S    
O1    C1    1.291898 A    
N25   O66   1.301401 A    
C122  H40   1.110485 S    
C24   O40   1.383616 S    
C95   N39   1.436156 S    
C29   C79   1.420265 A    
N14   O44   1.301274 A    
N40   O95   1.301132 A    
N24   O64   1.301742 A    
C118  H29   1.110656 S    
C85   N29   1.438618 S    
C30   N18   1.440851 S    
C86   C96   1.399848 A    
C32   C79   1.420966 A    
C45   C59   1.390435 A    
C125  H47   1.115991 S    
C128  H56   1.111156 S    
C17   O33   1.383549 S    
N27   O69   1.301886 A    
C2    C79   1.450147 S    
C76   C111  1.510663 S    
C49   C61   1.390647 A    
C16   N12   1.428059 S    
C39   C55   1.390516 A    
C15   N11   1.424794 S    
C93   N37   1.438937 S    
C63   C108  1.461267 S    
C71   C112  1.413928 A    
C6    C83   1.469168 S    
C114  H19   1.110534 S    
O10   C6    1.292169 A    
C65   C110  1.416304 A    
C89   N33   1.438370 S    
C119  H33   1.110147 S    
O12   Zn4   2.004594 S    
N46   O108  1.301574 A    
C124  H46   1.109924 S    
C15   N3    1.376073 A    
C27   C43   1.388233 A    
C41   C57   1.392790 A    
C28   C44   1.394387 A    
C17   C73   1.407755 A    
C64   C107  1.451561 S    
C92   C98   1.399215 A    
C53   C63   1.392632 A    
C26   C78   1.424155 A    
N38   O92   1.301332 A    
O36   C119  1.417207 S    
C39   N27   1.440301 S    
C27   C78   1.416080 A    
C95   C105  1.411879 A    
C119  C120  1.519261 S    
N50   O116  1.301295 A    
O13   Zn4   2.000080 S    
O14   Zn3   2.000076 S    
N5    O18   1.299726 A    
N10   O28   1.297076 A    
C117  H27   1.110792 S    
O8    Zn1   2.000194 S    
C44   H4    1.083028 S    
N32   O80   1.301239 A    
C14   N10   1.426829 S    
C4    C77   1.458470 S    
N45   O106  1.301239 A    
C97   N41   1.436749 S    
N33   O82   1.301329 A    
N35   O85   1.301258 A    
C48   H8    1.084093 S    
O3    Zn1   2.004595 S    
C69   C112  1.419873 A    
C70   C111  1.417348 A    
N31   O77   1.301112 A    
C68   N48   1.437188 S    
C34   N22   1.435593 S    
C100  N44   1.439002 S    
C118  H31   1.110887 S    
N43   O101  1.301213 A    
C91   C97   1.399857 A    
C45   H5    1.083772 S    
N7    O21   1.300199 A    
C9    N1    1.368659 A    
N20   O55   1.297234 A    
C51   H11   1.083701 S    
O4    C1    1.286340 A    
C38   N26   1.446002 S    
C42   C58   1.391973 A    
C127  H52   1.112471 S    
C115  H23   1.114325 S    
C18   O34   1.385697 S    
C67   N47   1.437657 S    
O9    Zn3   1.997099 S    
C46   C60   1.396699 A    
N8    O23   1.300509 A    
C122  H41   1.110780 S    
O10   Zn4   1.997099 S    
C94   C105  1.410942 A    
C31   N19   1.435796 S    
N36   O87   1.301194 A    
N30   O75   1.301306 A    
C13   N3    1.378179 A    
C87   C93   1.398693 A    
C113  H18   1.109724 S    
O5    C3    1.296564 A    
O6    C4    1.292108 A    
C13   C21   1.415969 A    
C5    C84   1.448330 S    
N16   O47   1.299640 A    
C53   H13   1.084224 S    
C126  H50   1.110359 S    
C33   C81   1.416629 A    
C60   C103  1.461721 S    
N47   O109  1.301188 A    
Zn1   N1    2.008754 S    
N37   O89   1.301285 A    
C25   C41   1.386234 A    
C116  H24   1.108588 S    
N12   O32   1.298609 A    
C113  C114  1.518551 S    
O5    Zn2   2.000080 S    
C69   N49   1.442393 S    
C20   O36   1.389481 S    
O33   C113  1.415983 S    
C9    C17   1.412741 A    
C93   C106  1.411460 A    
C74   C109  1.504861 S    
C92   N36   1.438375 S    
C37   N25   1.429886 S    
N11   O29   1.297818 A    
N9    O25   1.301162 A    
O2    C2    1.286121 A    
C61   C106  1.462048 S    
C22   O38   1.382482 S    
C100  C108  1.411397 A    
N48   O111  1.300746 A    
C43   H3    1.084152 S    
C120  H34   1.109779 S    
C56   C63   1.391764 A    
C99   C107  1.409072 A    
C29   C45   1.392220 A    
N6    O19   1.300677 A    
N26   O68   1.301755 A    
C44   C57   1.398095 A    
N28   O71   1.299960 A    
N44   O104  1.301341 A    
C46   H6    1.083669 S    
C37   C53   1.387643 A    
O3    C2    1.292627 A    
C116  H25   1.110304 S    
C23   C75   1.400999 A    
C20   C74   1.399553 A    
C40   N28   1.437690 S    
C75   C112  1.502005 S    
C96   N40   1.436777 S    
N21   O57   1.301540 A    
C32   C48   1.388891 A    
C21   O37   1.386275 S    
C34   C82   1.421384 A    
C35   C82   1.409777 A    
N49   O114  1.299968 A    
C66   C109  1.419432 A    
O1    Zn1   1.997099 S    
C52   H12   1.083405 S    
C51   C62   1.396847 A    
N42   O100  1.301280 A    
C69   C72   1.418359 A    
N17   O50   1.298967 A    
N20   O56   1.301789 A    
C25   N13   1.432042 S    
O12   C5    1.284178 A    
C14   N4    1.375700 A    
C12   N8    1.424981 S    
N35   O86   1.301358 A    
C116  H26   1.110580 S    
C29   N17   1.442361 S    
C98   C107  1.408550 A    
N18   O51   1.300682 A    
O39   C125  1.414287 S    
C90   C103  1.410271 A    
N43   O102  1.301317 A    
C56   H16   1.083805 S    
N34   O83   1.301159 A    
C125  H48   1.110310 S    
C128  H55   1.110505 S    
C47   C60   1.392252 A    
C12   N2    1.383010 A    
N19   O53   1.301418 A    
C50   H10   1.083341 S    
C94   N38   1.439449 S    
C9    N5    1.423071 S    
C120  H36   1.110222 S    
N23   O62   1.301237 A    
C58   C101  1.462202 S    
N15   O45   1.301212 A    
C88   N32   1.436497 S    
C125  C126  1.520983 S    
O11   C6    1.296042 A    
C38   C84   1.422557 A    
C16   N4    1.376282 A    
C36   C81   1.417817 A    
C124  H45   1.110422 S    
C123  H42   1.112740 S    
C98   N42   1.438118 S    
C55   C64   1.388728 A    
N29   O74   1.301316 A    
C11   C19   1.414570 A    
C12   C20   1.422143 A    
C28   N16   1.441277 S    
N52   O119  1.300720 A    
C68   C109  1.415403 A    
C50   C62   1.392679 A    
C121  H37   1.114046 S    
N5    O17   1.300318 A    
N25   O65   1.301221 A    
C88   C102  1.414530 A    
C11   N7    1.427555 S    
C23   O39   1.385224 S    
N27   O70   1.299465 A    
