data_mof_unit_44269.cif
_audit_creation_date              2012-12-10T17:05:42-0500
_audit_creation_method            fapswitch 2.2
_symmetry_space_group_name_H-M    P1
_symmetry_Int_Tables_number       1
_space_group_crystal_system       triclinic
_cell_length_a                    15.869854
_cell_length_b                    10.852506
_cell_length_c                    9.891503
_cell_angle_alpha                 110.245906
_cell_angle_beta                  99.025687
_cell_angle_gamma                 92.145585
_cell_volume                      1570.7922142

loop_
_atom_site_label
_atom_site_type_symbol
_atom_type_description
_atom_site_fract_x
_atom_site_fract_y
_atom_site_fract_z
_atom_type_partial_charge
C1    C     C_R   0.496055 0.253204 0.441295 0.734983
C2    C     C_3   0.961017 0.446291 0.635607 0.334572
C3    C     C_3   0.917636 0.497593 0.511784 0.121951
C4    C     C_3   0.956949 0.639132 0.534173 0.204689
C5    C     C_3   0.052870 0.635035 0.516570 -0.310227
C6    C     C_1   0.824767 0.498871 0.504402 -0.043065
C7    C     C_1   0.175466 0.496148 0.503897 0.009312
C8    C     C_1   0.250661 0.496757 0.500367 -0.151899
C9    C     C_2   0.500784 0.111760 0.411335 0.264404
C10   C     C_2   0.551000 0.074959 0.510480 -0.243798
C11   C     C_2   0.528557 0.890313 0.592241 0.225297
C12   C     C_R   0.340296 0.498744 0.499828 0.846861
C13   C     C_2   0.552805 0.935864 0.492079 -0.021545
C14   C     C_2   0.515670 0.491128 0.073702 -0.144185
C15   C     C_2   0.493344 0.481573 0.914708 0.602927
C16   C     C_R   0.511796 0.747080 0.559146 0.727982
C17   C     C_R   0.659591 0.500766 0.500183 0.792863
C18   C     C_3   0.063434 0.460834 0.645493 0.340162
C19   C     C_3   0.032260 0.393339 0.367808 -0.392938
C20   C     C_3   0.934876 0.402982 0.361905 -0.453885
C21   C     C_1   0.749044 0.500150 0.500819 -0.202081
C22   C     C_3   0.083599 0.497908 0.511531 0.089358
Cu1   Cu    Cu3+1 0.514650 0.521810 0.644910 0.976221
Cu2   Cu    Cu3+1 0.485350 0.478190 0.355090 0.948743
H1    H     H_    0.922302 0.666107 0.442032 0.072192
H2    H     H_    0.590653 0.147469 0.607009 0.128736
H3    H     H_    0.578428 0.535839 0.135959 0.202960
H4    H     H_    0.401286 0.415768 0.081670 0.222535
H5    H     H_    0.050675 0.408641 0.270229 0.165460
H6    H     H_    0.047201 0.292097 0.360349 0.241862
H7    H     H_    0.901279 0.302779 0.331901 0.228994
H8    H     H_    0.909252 0.440074 0.273293 0.165332
H9    H     H_    0.056757 0.643645 0.408621 0.127095
N1    N     N_2   0.463320 0.445430 0.137380 -0.311030
N2    N     N_2   0.536720 0.554500 0.862620 -0.050158
O1    O     O_R   0.507820 0.332330 0.577400 -0.588276
O2    O     O_R   0.483070 0.295500 0.332660 -0.578967
O3    O     O_R   0.391820 0.518430 0.622420 -0.511737
O4    O     O_R   0.367070 0.481600 0.377680 -0.571975
O5    O     O_R   0.516930 0.704500 0.667340 -0.578997
O6    O     O_R   0.492180 0.667670 0.422600 -0.557354
O7    O     O_R   0.632930 0.518400 0.622320 -0.628583
O8    O     O_R   0.608180 0.481570 0.377580 -0.567015
O9    O     O_3   0.934208 0.307445 0.589620 -0.558410
C23   C     C_3   0.862624 0.271995 0.643179 0.065309
H10   H     H_    0.812605 0.341490 0.650570 0.146708
H11   H     H_    0.884704 0.267548 0.753590 0.143228
C24   C     C_3   0.821375 0.136196 0.540657 -0.821707
H12   H     H_    0.869103 0.062822 0.530311 0.242360
H13   H     H_    0.767304 0.105134 0.584479 0.195090
H14   H     H_    0.796485 0.139247 0.430569 0.246007
C25   C     C_1   0.110050 0.565166 0.783928 0.165261
N3    N     N_1   0.146142 0.644931 0.891245 -0.248790
C26   C     C_1   0.937692 0.523675 0.780736 0.168149
N4    N     N_1   0.919581 0.583119 0.892463 -0.291900
C27   C     C_1   0.588161 0.853564 0.369861 0.230462
N5    N     N_1   0.617512 0.787999 0.273288 -0.271240
O10   O     O_3   0.518849 0.979273 0.727484 -0.593445
C28   C     C_3   0.592831 0.987529 0.832546 0.058241
H15   H     H_    0.652420 0.966533 0.784857 0.116575
H16   H     H_    0.582084 0.916715 0.887916 0.185630
C29   C     C_3   0.609116 0.125642 0.948328 -0.852978
H17   H     H_    0.551615 0.152158 0.998888 0.241740
H18   H     H_    0.663720 0.129394 0.035414 0.208553
H19   H     H_    0.625293 0.198522 0.898266 0.229337
O11   O     O_3   0.444196 0.018226 0.297302 -0.568706
C30   C     C_3   0.468724 0.003739 0.161879 0.056938
H20   H     H_    0.539575 0.004066 0.168150 0.142949
H21   H     H_    0.445604 0.083483 0.123688 0.168453
C31   C     C_3   0.426760 0.872610 0.048403 -0.655211
H22   H     H_    0.355925 0.869597 0.037821 0.247459
H23   H     H_    0.443821 0.860205 0.940177 0.222490
H24   H     H_    0.448857 0.789845 0.081938 0.267733
O12   O     O_3   0.421833 0.400430 0.823522 -0.582363
C32   C     C_3   0.431258 0.266411 0.802813 0.046201
H25   H     H_    0.428484 0.244286 0.903257 0.134122
H26   H     H_    0.492842 0.237715 0.767695 0.186030
C33   C     C_3   0.357823 0.180875 0.685469 -0.665138
H27   H     H_    0.356703 0.199777 0.581940 0.243435
H28   H     H_    0.365305 0.074910 0.664426 0.235290
H29   H     H_    0.295955 0.203956 0.722827 0.226339
O13   O     O_3   0.588276 0.657348 0.965600 -0.547798
C34   C     C_3   0.665151 0.671998 0.916481 0.201132
H30   H     H_    0.654515 0.715909 0.830291 0.166878
H31   H     H_    0.693173 0.575999 0.878635 0.153344
C35   C     C_3   0.730879 0.767030 0.041531 -0.865453
H32   H     H_    0.747623 0.725488 0.129183 0.262495
H33   H     H_    0.790146 0.782469 0.000514 0.219392
H34   H     H_    0.705207 0.863846 0.086911 0.249152
O14   O     O_3   0.097089 0.336946 0.630887 -0.556509
C36   C     C_3   0.101629 0.302032 0.757471 0.124673
H35   H     H_    0.050831 0.340891 0.822131 0.128780
H36   H     H_    0.165179 0.340915 0.829277 0.147415
C37   C     C_3   0.092606 0.152430 0.711278 -0.746153
H37   H     H_    0.143406 0.110063 0.648669 0.248284
H38   H     H_    0.098369 0.124037 0.809703 0.201663
H39   H     H_    0.029039 0.111187 0.641205 0.260526
C38   C     C_1   0.108874 0.750577 0.624336 0.342206
N6    N     N_1   0.152703 0.841064 0.708109 -0.284249
O15   O     O_3   0.947703 0.729430 0.673840 -0.557189
C39   C     C_3   0.912945 0.843928 0.661738 0.086826
H40   H     H_    0.845795 0.818914 0.600241 0.133115
H41   H     H_    0.952253 0.890690 0.605313 0.133950
C40   C     C_3   0.912347 0.943028 0.814055 -0.774274
H42   H     H_    0.978744 0.970052 0.877702 0.259952
H43   H     H_    0.885319 0.033519 0.805514 0.188580
H44   H     H_    0.872397 0.899886 0.872317 0.245282

loop_
_geom_bond_atom_site_label_1
_geom_bond_atom_site_label_2
_ccdc_geom_bond_type
C39   H40   S    
C2    C18   S    
C11   C13   D    
C19   C20   S    
C3    C6    S    
C40   H43   S    
C4    H1    S    
C18   C25   S    
C7    C8    T    
C23   H10   S    
C25   N3    T    
Cu1   O7    S    
C33   H28   S    
Cu1   O5    S    
C38   N6    T    
Cu2   O4    S    
C27   N5    T    
C9    O11   S    
C29   H18   S    
C17   O7    A    
C24   H14   S    
C5    C22   S    
C2    O9    S    
C5    H9    S    
Cu1   Cu2   S    
C31   H22   S    
C14   H3    S    
C11   O10   S    
C9    C10   D    
C1    O2    A    
C13   C27   S    
C10   H2    S    
C24   H13   S    
O11   C30   S    
H4    N1    S    
C28   H15   S    
C39   H41   S    
Cu2   O6    S    
C15   N2    D    
C40   H42   S    
N2    O13   S    
C23   H11   S    
C28   H16   S    
O12   C32   S    
C30   H20   S    
C18   O14   S    
C19   C22   S    
C1    C9    S    
C2    C26   S    
C36   H35   S    
C35   H32   S    
C37   H39   S    
O10   C28   S    
C6    C21   T    
C35   H34   S    
Cu2   N1    S    
C30   H21   S    
C32   H25   S    
C17   O8    A    
C29   H17   S    
C36   H36   S    
C11   C16   S    
C34   H30   S    
C8    C12   S    
C34   C35   S    
C31   H24   S    
Cu2   O2    S    
C3    C20   S    
C37   H38   S    
C32   H26   S    
C16   O5    A    
C24   H12   S    
C34   H31   S    
O13   C34   S    
C39   C40   S    
Cu1   N2    S    
C4    O15   S    
C3    C4    S    
C7    C22   S    
O9    C23   S    
C20   H8    S    
C23   C24   S    
C26   N4    T    
C28   C29   S    
C29   H19   S    
C18   C22   S    
C4    C5    S    
C10   C13   S    
C14   N1    D    
Cu1   O3    S    
C30   C31   S    
C12   O4    A    
C2    C3    S    
C36   C37   S    
C33   H27   S    
C33   H29   S    
O14   C36   S    
O15   C39   S    
C35   H33   S    
C12   O3    A    
C37   H37   S    
C32   C33   S    
C17   C21   S    
C15   O12   S    
C5    C38   S    
Cu1   O1    S    
Cu2   O8    S    
C14   C15   S    
C31   H23   S    
C19   H6    S    
C16   O6    A    
C40   H44   S    
C1    O1    A    
C20   H7    S    
C19   H5    S    
