data_mof_unit_9882.cif
_audit_creation_date              2012-12-11T14:27:38-0500
_audit_creation_method            fapswitch 2.2
_symmetry_space_group_name_H-M    P1
_symmetry_Int_Tables_number       1
_space_group_crystal_system       triclinic
_cell_length_a                    6.92795
_cell_length_b                    14.750125
_cell_length_c                    16.189991
_cell_angle_alpha                 91.09827
_cell_angle_beta                  89.253184
_cell_angle_gamma                 90.812127
_cell_volume                      1653.82000778

loop_
_atom_site_label
_atom_site_type_symbol
_atom_type_description
_atom_site_fract_x
_atom_site_fract_y
_atom_site_fract_z
_atom_type_partial_charge
O1    O     O_R   0.494510 0.415970 0.413200 -0.543210
O2    O     O_R   0.823800 0.407430 0.586200 -0.551542
O3    O     O_R   0.994130 0.584030 0.586800 -0.544414
C1    C     C_R   0.650550 0.383870 0.612576 0.716165
O4    O     O_R   0.824220 0.405090 0.413820 -0.540162
O5    O     O_R   0.994560 0.581670 0.413190 -0.495715
C2    C     C_R   0.653987 0.379126 0.388897 0.742470
O6    O     O_R   0.494090 0.418330 0.586810 -0.548291
O7    O     O_3   0.660810 0.557940 0.500000 -0.362837
V1    V     V_3+5 0.935650 0.489250 0.500000 1.445124
O8    O     O_R   0.324270 0.592570 0.413800 -0.542876
C3    C     C_R   0.156947 0.613332 0.384766 0.824776
O9    O     O_R   0.323850 0.594910 0.586180 -0.550618
C4    C     C_R   0.155106 0.617977 0.613986 0.663109
V2    V     V_3+5 0.435660 0.510750 0.500000 1.425135
O10   O     O_3   0.160630 0.442060 0.500000 -0.384293
C5    C     C_3   0.956304 0.729893 0.716035 -0.157359
C6    C     C_3   0.021076 0.711699 0.805033 0.132166
H1    H     H_    0.809479 0.716494 0.691523 0.115252
C7    C     C_3   0.121569 0.805350 0.809482 -0.066253
C8    C     C_3   0.058589 0.824436 0.720262 -0.175365
C9    C     C_3   0.246968 0.780724 0.687526 0.129449
C10   C     C_3   0.311337 0.762817 0.776682 -0.152103
C11   C     C_3   0.209750 0.668450 0.772185 -0.181549
C12   C     C_3   0.145664 0.687307 0.683325 -0.054374
H2    H     H_    0.997283 0.888890 0.698841 0.149435
H3    H     H_    0.457876 0.775852 0.801640 0.113792
H4    H     H_    0.273427 0.604497 0.793579 0.102875
C13   C     C_2   0.999596 0.684415 0.266157 0.588230
C14   C     C_2   0.149894 0.681633 0.318598 -0.422009
H5    H     H_    0.267237 0.730858 0.315292 0.081404
C15   C     C_2   0.969010 0.756660 0.203402 -0.003270
C16   C     C_2   0.118165 0.808084 0.172564 -0.415070
H6    H     H_    0.262484 0.796517 0.194716 0.124184
C17   C     C_2   0.743096 0.179088 0.753963 0.624381
C18   C     C_2   0.631751 0.182518 0.822718 -0.405794
H7    H     H_    0.554604 0.242852 0.840456 0.096674
C19   C     C_2   0.760346 0.255417 0.695244 -0.267734
C20   C     C_2   0.616453 0.311532 0.674254 -0.133242
H8    H     H_    0.899052 0.262191 0.663756 0.150336
C21   C     C_2   0.771374 0.207400 0.212435 -0.156758
C22   C     C_2   0.616532 0.188027 0.165871 -0.293834
H9    H     H_    0.903605 0.169713 0.202929 0.136673
H10   H     H_    0.490539 0.230582 0.170266 0.133195
C23   C     C_2   0.774167 0.283095 0.274243 -0.138064
C24   C     C_2   0.635956 0.298688 0.332841 -0.072287
H11   H     H_    0.901365 0.326996 0.272685 0.129782
O11   O     O_R   0.771000 0.074870 0.906030 -0.509401
O12   O     O_R   0.440710 0.088040 0.078970 -0.547559
O13   O     O_R   0.270540 0.911420 0.079570 -0.549725
C25   C     C_R   0.609798 0.112303 0.105366 0.728488
O14   O     O_R   0.441280 0.085700 0.906600 -0.547029
O15   O     O_R   0.271110 0.909060 0.905960 -0.542739
C26   C     C_R   0.612792 0.107309 0.879542 0.815263
O16   O     O_R   0.770430 0.077230 0.079640 -0.541882
O17   O     O_3   0.604340 0.935220 0.992820 -0.383893
V3    V     V_3+5 0.329430 0.003850 0.992770 1.409902
O18   O     O_R   0.941400 0.898110 0.906530 -0.539449
C27   C     C_R   0.110492 0.874752 0.878922 0.706682
O19   O     O_R   0.940830 0.900450 0.078910 -0.545290
C28   C     C_R   0.107725 0.877698 0.106776 0.752047
V4    V     V_3+5 0.829450 0.982250 0.992700 1.431964
O20   O     O_3   0.104410 0.051000 0.992740 -0.365261
C29   C     C_3   0.892515 0.667651 0.870660 -0.375212
C30   C     C_3   0.829952 0.571730 0.842631 -0.296067
C31   C     C_3   0.715430 0.522653 0.909733 -0.778255
H12   H     H_    0.786781 0.530693 0.970515 0.238123
H13   H     H_    0.566376 0.549040 0.913851 0.222604
H14   H     H_    0.707385 0.449166 0.894101 0.211122
H15   H     H_    0.740353 0.575065 0.786296 0.185782
H16   H     H_    0.959713 0.531350 0.826980 0.195776
H17   H     H_    0.976652 0.663996 0.928379 0.158039
H18   H     H_    0.763561 0.710211 0.882185 0.175541
F1    F     F_    0.852354 0.104670 0.738033 -0.707873
C32   C     C_3   0.406392 0.298501 0.703726 -0.302795
C33   C     C_3   0.350416 0.373874 0.766399 -0.312174
C34   C     C_3   0.160217 0.352879 0.810967 -0.779130
H19   H     H_    0.038254 0.361586 0.768435 0.227826
H20   H     H_    0.158213 0.282771 0.834874 0.246821
H21   H     H_    0.141726 0.400709 0.864154 0.214745
H22   H     H_    0.464596 0.383206 0.813163 0.190701
H23   H     H_    0.337343 0.439449 0.734403 0.190764
H24   H     H_    0.307425 0.300700 0.650327 0.178653
H25   H     H_    0.375916 0.230040 0.727709 0.180963
C35   C     C_3   0.463293 0.234901 0.347550 -0.330866
C36   C     C_3   0.523557 0.140871 0.376277 -0.297357
C37   C     C_3   0.347123 0.079126 0.388614 -0.785742
H26   H     H_    0.252504 0.106658 0.438739 0.232389
H27   H     H_    0.263733 0.072895 0.330564 0.225956
H28   H     H_    0.394035 0.010455 0.405638 0.213520
H29   H     H_    0.620905 0.107850 0.330304 0.210025
H30   H     H_    0.601947 0.147970 0.435605 0.187583
H31   H     H_    0.367135 0.263433 0.396686 0.172164
H32   H     H_    0.371234 0.229141 0.292452 0.173027
C38   C     C_3   0.381220 0.819025 0.620801 -0.386212
C39   C     C_3   0.467799 0.911024 0.647786 -0.286802
C40   C     C_3   0.615718 0.945046 0.584614 -0.736686
H33   H     H_    0.738623 0.897608 0.579373 0.220070
H34   H     H_    0.548242 0.950974 0.523253 0.219317
H35   H     H_    0.671670 0.012830 0.604435 0.255173
H36   H     H_    0.350865 0.961522 0.655053 0.204903
H37   H     H_    0.540735 0.905027 0.708162 0.202793
H38   H     H_    0.499071 0.769969 0.608802 0.180028
H39   H     H_    0.298482 0.826453 0.563037 0.162874
F2    F     F_    0.861846 0.617655 0.270738 -0.693865
C41   C     C_3   0.762972 0.762979 0.172607 -0.252298
C42   C     C_3   0.738690 0.709666 0.090974 -0.262901
C43   C     C_3   0.528780 0.706976 0.063971 -0.788427
H40   H     H_    0.436544 0.672417 0.110706 0.232531
H41   H     H_    0.477209 0.776606 0.055175 0.250703
H42   H     H_    0.515946 0.669733 0.004269 0.213674
H43   H     H_    0.828028 0.741243 0.041774 0.185723
H44   H     H_    0.787830 0.638901 0.098423 0.215507
H45   H     H_    0.660884 0.734046 0.219011 0.195747
H46   H     H_    0.716459 0.834249 0.167964 0.163789

loop_
_geom_bond_atom_site_label_1
_geom_bond_atom_site_label_2
_ccdc_geom_bond_type
O18   V4    S    
C31   H13   S    
C37   H26   S    
C17   F1    S    
C39   H37   S    
C21   C22   D    
C35   H31   S    
C38   C39   S    
C1    O6    A    
C6    C29   S    
C40   H33   S    
O15   C27   A    
C34   H19   S    
O17   V3    S    
O11   C26   A    
V4    O20   S    
C41   H45   S    
C6    C11   S    
C8    C9    S    
C18   H7    S    
C13   C15   S    
C36   H29   S    
O5    C3    A    
C19   C20   D    
C32   H25   S    
C31   H14   S    
C41   C42   S    
V2    O10   S    
O16   V4    S    
O12   V3    S    
C43   H40   S    
O19   V4    S    
C42   H43   S    
C42   H44   S    
O8    V2    S    
C17   C18   D    
O14   C26   A    
O12   C25   A    
C9    C12   S    
C29   H18   S    
C7    C10   S    
O1    V2    S    
C20   C32   S    
O7    V1    S    
C6    C7    S    
C22   C25   S    
C24   C35   S    
C34   H20   S    
C31   H12   S    
C15   C41   S    
C39   H36   S    
C21   H9    S    
C13   F2    S    
C22   H10   S    
C40   H34   S    
C8    H2    S    
C38   H38   S    
V3    O20   S    
C23   H11   S    
C2    C24   S    
C17   C19   S    
C11   C12   S    
C33   H23   S    
O4    C2    A    
O15   V3    S    
C36   C37   S    
O18   C27   A    
C35   C36   S    
C5    C8    S    
O19   C28   A    
O2    C1    A    
C32   C33   S    
C13   C14   D    
C35   H32   S    
O11   V4    S    
C1    C20   S    
C42   C43   S    
C39   C40   S    
C5    C6    S    
C33   C34   S    
C7    C27   S    
O3    C4    A    
O6    V2    S    
C10   H3    S    
C37   H27   S    
O17   V4    S    
O2    V1    S    
C40   H35   S    
C38   H39   S    
C34   H21   S    
C3    C14   S    
O1    C2    A    
O13   V3    S    
C11   H4    S    
C33   H22   S    
O5    V1    S    
O8    C3    A    
C43   H41   S    
C43   H42   S    
C41   H46   S    
C5    C12   S    
C15   C16   D    
O9    V2    S    
O7    V2    S    
O4    V1    S    
O3    V1    S    
C36   H30   S    
C29   C30   S    
C19   H8    S    
C32   H24   S    
C14   H5    S    
C5    H1    S    
C16   H6    S    
C25   O16   A    
C29   H17   S    
C4    C12   S    
C18   C26   S    
O14   V3    S    
C10   C11   S    
C9    C38   S    
C23   C24   D    
C30   H16   S    
C7    C8    S    
C16   C28   S    
C30   C31   S    
C37   H28   S    
O13   C28   A    
C21   C23   S    
C9    C10   S    
V1    O10   S    
O9    C4    A    
C30   H15   S    
