data_mof_unit_19847.cif
_audit_creation_date              2012-10-26T20:26:21-0400
_audit_creation_method            fapswitch 2.2
_symmetry_space_group_name_H-M    P1
_symmetry_Int_Tables_number       1
_space_group_crystal_system       triclinic
_cell_length_a                    19.403593
_cell_length_b                    15.887927
_cell_length_c                    14.622376
_cell_angle_alpha                 90.223868
_cell_angle_beta                  90.397003
_cell_angle_gamma                 90.104651
_cell_volume                      4507.67766146

loop_
_atom_site_label
_atom_site_type_symbol
_atom_type_description
_atom_site_fract_x
_atom_site_fract_y
_atom_site_fract_z
_atom_type_partial_charge
C1    C     C_R   0.499938 0.339509 0.499806 0.540242
C2    C     C_3   0.486572 0.972911 0.406904 0.217544
C3    C     C_3   0.497412 0.083226 0.495285 -0.010324
C4    C     C_3   0.491575 0.915765 0.492568 -0.067698
C5    C     C_1   0.498391 0.174707 0.497723 0.079068
C6    C     C_1   0.493551 0.824542 0.497375 0.024619
C7    C     C_3   0.468370 0.571371 0.968497 -0.179269
C8    C     C_3   0.533313 0.431243 0.032203 -0.177001
C9    C     C_3   0.436640 0.502073 0.029884 0.249612
C10   C     C_3   0.564855 0.500203 0.969994 0.260622
C11   C     C_3   0.533558 0.569665 0.030638 0.072679
C12   C     C_R   0.499211 0.660340 0.500114 0.563264
C13   C     C_3   0.467997 0.432390 0.969769 0.033811
C14   C     C_3   0.500981 0.501553 0.092197 -0.024650
C15   C     C_3   0.500410 0.500938 0.907879 -0.058139
C16   C     C_R   0.367002 0.496725 0.499663 0.572838
C17   C     C_R   0.632761 0.502828 0.500336 0.576088
C18   C     C_1   0.500272 0.500755 0.194371 0.218386
C19   C     C_1   0.500345 0.500470 0.805650 0.211086
C20   C     C_R   0.252788 0.470714 0.577371 -0.018042
C21   C     C_R   0.745860 0.550829 0.433248 -0.016912
C22   C     C_R   0.181344 0.481323 0.578303 -0.183265
C23   C     C_3   0.553098 0.969267 0.528070 0.204531
C24   C     C_R   0.817851 0.550427 0.436192 -0.182203
C25   C     C_R   0.145917 0.514941 0.503129 -0.029347
C26   C     C_R   0.853994 0.513745 0.509083 -0.029371
C27   C     C_R   0.183147 0.539832 0.425424 0.259945
C28   C     C_R   0.817144 0.475723 0.580698 0.261360
C29   C     C_R   0.254172 0.522063 0.419981 0.228786
C30   C     C_R   0.745086 0.468705 0.574389 0.229335
C31   C     C_R   0.290544 0.495040 0.498861 -0.049803
C32   C     C_R   0.708720 0.507951 0.502120 -0.048552
C33   C     C_R   0.930040 0.516145 0.508461 0.359311
C34   C     C_3   0.436336 0.030704 0.459013 0.248123
C35   C     C_R   0.069849 0.518924 0.505262 0.351830
C36   C     C_2   0.284510 0.428036 0.657366 0.609841
C37   C     C_2   0.712361 0.600291 0.359407 0.608121
C38   C     C_2   0.430344 0.354854 0.938769 0.556159
C39   C     C_2   0.571547 0.646900 0.061812 0.592080
C40   C     C_3   0.167074 0.663097 0.346295 0.024654
C41   C     C_3   0.120191 0.716410 0.407327 -0.268587
C42   C     C_3   0.135725 0.810059 0.396990 -0.487775
C43   C     C_3   0.847633 0.491864 0.730169 0.036280
C44   C     C_3   0.892002 0.455516 0.807072 -0.255911
C45   C     C_3   0.547942 0.025879 0.442536 0.030480
C46   C     C_3   0.891551 0.512376 0.891409 -0.477378
C47   C     C_3   0.270225 0.475910 0.272294 0.030143
C48   C     C_3   0.318028 0.399322 0.277575 -0.247082
C49   C     C_3   0.298745 0.333025 0.206043 -0.451468
C50   C     C_3   0.704359 0.340301 0.615462 0.023915
C51   C     C_3   0.657873 0.295170 0.683350 -0.258234
C52   C     C_3   0.651373 0.201878 0.660684 -0.482495
C53   C     C_2   0.606933 0.053441 0.384133 0.598137
C54   C     C_2   0.378602 0.946348 0.597943 0.543783
C55   C     C_3   0.660351 0.988735 0.595741 0.018080
C56   C     C_3   0.440369 0.973786 0.544620 0.003042
C57   C     C_3   0.726726 0.943494 0.622939 -0.250221
C58   C     C_3   0.779675 0.004539 0.663329 -0.487690
C59   C     C_3   0.326589 0.010157 0.396738 0.052777
C60   C     C_3   0.306523 0.024231 0.296734 -0.251964
C61   C     C_3   0.254175 0.958876 0.263753 -0.499821
C62   C     C_3   0.463051 0.869234 0.297732 0.019426
C63   C     C_3   0.446032 0.854603 0.196660 -0.258396
C64   C     C_3   0.420799 0.764715 0.179547 -0.459237
C65   C     C_3   0.507761 0.996036 0.735333 0.018054
C66   C     C_3   0.539456 0.028227 0.824864 -0.273098
C67   C     C_1   0.499161 0.250065 0.499131 0.037901
C68   C     C_3   0.534624 0.962310 0.900241 -0.461088
C69   C     C_3   0.319744 0.513070 0.995392 0.012762
C70   C     C_3   0.286537 0.599827 0.005518 -0.275793
C71   C     C_3   0.232675 0.614869 0.930859 -0.460996
C72   C     C_3   0.656932 0.428074 0.905248 0.010555
C73   C     C_3   0.706956 0.388884 0.974354 -0.262760
C74   C     C_3   0.736235 0.305905 0.939223 -0.487405
C75   C     C_1   0.496226 0.749440 0.499799 0.031029
C76   C     C_3   0.502159 0.025903 0.580428 0.201844
Cu1   Cu    Cu3+1 0.500010 0.500000 0.590220 1.074689
Cu2   Cu    Cu3+1 0.499990 0.500000 0.409780 1.059080
H1    H     H_    0.152816 0.460320 0.637493 0.184365
H2    H     H_    0.222224 0.676238 0.362991 0.153333
H3    H     H_    0.065429 0.704497 0.388512 0.198066
H4    H     H_    0.127972 0.698587 0.480062 0.163160
H5    H     H_    0.190053 0.823579 0.416684 0.151064
H6    H     H_    0.101256 0.847005 0.442163 0.162000
H7    H     H_    0.126839 0.830021 0.325158 0.148918
H8    H     H_    0.793578 0.496607 0.754631 0.170159
H9    H     H_    0.867036 0.556198 0.713841 0.138634
H10   H     H_    0.872121 0.392316 0.825824 0.167379
H11   H     H_    0.945924 0.448398 0.783067 0.202219
H12   H     H_    0.846079 0.582502 0.382877 0.185072
H13   H     H_    0.914525 0.574578 0.875101 0.161048
H14   H     H_    0.922351 0.482961 0.946966 0.159678
H15   H     H_    0.838045 0.521673 0.915832 0.162532
H16   H     H_    0.275959 0.505234 0.204063 0.182515
H17   H     H_    0.215446 0.455044 0.276464 0.154871
H18   H     H_    0.371993 0.419648 0.265986 0.214012
H19   H     H_    0.314752 0.370499 0.346526 0.166670
H20   H     H_    0.245432 0.309962 0.217457 0.140495
H21   H     H_    0.334683 0.278918 0.211342 0.181334
H22   H     H_    0.302390 0.359679 0.136188 0.203909
H23   H     H_    0.442208 0.628919 0.943312 0.115751
H24   H     H_    0.756110 0.310032 0.616303 0.167863
H25   H     H_    0.681021 0.333743 0.545817 0.125011
H26   H     H_    0.679708 0.301933 0.753223 0.154575
H27   H     H_    0.605887 0.324336 0.682452 0.204379
H28   H     H_    0.630268 0.192874 0.590589 0.170983
H29   H     H_    0.616154 0.171675 0.710217 0.184180
H30   H     H_    0.702572 0.171146 0.665544 0.133455
H31   H     H_    0.662831 0.149513 0.333776 0.339497
H32   H     H_    0.320576 0.850394 0.644195 0.337318
H33   H     H_    0.639405 0.020136 0.657359 0.157554
H34   H     H_    0.558893 0.373442 0.057696 0.121718
H35   H     H_    0.672948 0.036962 0.543565 0.149866
H36   H     H_    0.714895 0.894306 0.674411 0.181494
H37   H     H_    0.748982 0.912314 0.561718 0.196465
H38   H     H_    0.792788 0.053952 0.612766 0.155978
H39   H     H_    0.827382 0.969769 0.681555 0.160289
H40   H     H_    0.759139 0.034665 0.726156 0.145479
H41   H     H_    0.280459 0.020049 0.440047 0.169653
H42   H     H_    0.342587 0.943409 0.406037 0.119519
H43   H     H_    0.284127 0.088182 0.288949 0.173649
H44   H     H_    0.353227 0.020406 0.253480 0.207390
H45   H     H_    0.286604 0.413620 0.794391 0.343854
H46   H     H_    0.275883 0.894446 0.269846 0.142726
H47   H     H_    0.241085 0.970546 0.190872 0.156783
H48   H     H_    0.206321 0.963273 0.304698 0.152602
H49   H     H_    0.417821 0.849431 0.338852 0.118859
H50   H     H_    0.508768 0.830203 0.315381 0.175303
H51   H     H_    0.405234 0.899133 0.174333 0.168239
H52   H     H_    0.492828 0.866377 0.155135 0.191289
H53   H     H_    0.458996 0.718494 0.205390 0.205675
H54   H     H_    0.413207 0.754229 0.105021 0.148173
H55   H     H_    0.370903 0.754121 0.214538 0.147469
H56   H     H_    0.714742 0.637642 0.227690 0.360413
H57   H     H_    0.535801 0.938027 0.714214 0.162501
H58   H     H_    0.452948 0.980040 0.748005 0.182849
H59   H     H_    0.594543 0.044320 0.814006 0.151853
H60   H     H_    0.512064 0.086143 0.847035 0.197171
H61   H     H_    0.479879 0.946205 0.913581 0.156976
H62   H     H_    0.557963 0.987640 0.964229 0.167898
H63   H     H_    0.562860 0.904395 0.880247 0.175966
H64   H     H_    0.279230 0.464224 0.003452 0.152993
H65   H     H_    0.340295 0.505415 0.924723 0.146304
H66   H     H_    0.261503 0.604735 0.073447 0.166196
H67   H     H_    0.396017 0.283891 0.833268 0.358102
H68   H     H_    0.326736 0.649487 0.001502 0.161341
H69   H     H_    0.256986 0.612454 0.862330 0.183941
H70   H     H_    0.209182 0.677935 0.940432 0.147746
H71   H     H_    0.191356 0.566517 0.934312 0.165745
H72   H     H_    0.685199 0.440384 0.840872 0.181019
H73   H     H_    0.614809 0.382785 0.887439 0.120821
H74   H     H_    0.750092 0.433319 0.988052 0.184209
H75   H     H_    0.680134 0.377408 0.039936 0.174257
H76   H     H_    0.694008 0.260095 0.925766 0.150848
H77   H     H_    0.771628 0.279017 0.991402 0.162022
H78   H     H_    0.606995 0.716863 0.167418 0.343323
H79   H     H_    0.765649 0.316335 0.875399 0.149057
H80   H     H_    0.159300 0.682797 0.274147 0.152642
N1    N     N_R   0.032616 0.525328 0.426753 -0.159948
N2    N     N_R   0.967201 0.510000 0.587032 -0.190523
N3    N     N_R   0.964153 0.524339 0.428317 -0.237377
N4    N     N_R   0.035701 0.511229 0.585498 -0.252284
N5    N     N_1   0.499980 0.500000 0.274190 -0.181096
N6    N     N_1   0.500020 0.500000 0.725810 -0.168673
O1    O     O_R   0.500010 0.379080 0.576170 -0.481054
O2    O     O_R   0.262075 0.447672 0.745580 -0.720669
O3    O     O_2   0.661907 0.643746 0.375623 -0.481372
O4    O     O_R   0.740919 0.600290 0.271857 -0.688302
O5    O     O_2   0.406695 0.306734 0.995537 -0.516883
O6    O     O_R   0.422462 0.337911 0.845469 -0.692199
O7    O     O_2   0.593237 0.696547 0.005204 -0.497385
O8    O     O_R   0.581883 0.661929 0.155070 -0.707188
O9    O     O_3   0.149397 0.576691 0.351926 -0.551735
O10   O     O_3   0.851653 0.438313 0.652958 -0.546233
O11   O     O_3   0.288828 0.537204 0.338967 -0.555394
O12   O     O_R   0.499990 0.620920 0.423830 -0.472958
O13   O     O_3   0.710027 0.425617 0.641699 -0.564358
O14   O     O_2   0.642059 0.000607 0.345430 -0.473953
O15   O     O_R   0.621671 0.139021 0.374528 -0.726934
O16   O     O_2   0.341400 0.999278 0.632886 -0.489142
O17   O     O_R   0.363629 0.860781 0.606986 -0.727589
O18   O     O_3   0.612985 0.928933 0.561454 -0.548621
O19   O     O_3   0.377061 0.070135 0.422659 -0.535773
O20   O     O_3   0.478315 0.954998 0.312395 -0.542729
O21   O     O_3   0.511732 0.060145 0.668926 -0.572899
O22   O     O_3   0.369281 0.501402 0.065649 -0.578837
O23   O     O_R   0.500000 0.379080 0.423800 -0.509339
O24   O     O_3   0.633446 0.506308 0.939023 -0.536237
O25   O     O_R   0.500000 0.620920 0.576200 -0.497955
O26   O     O_R   0.400150 0.499990 0.576210 -0.471132
O27   O     O_R   0.599850 0.500010 0.423790 -0.471884
O28   O     O_R   0.400140 0.499990 0.423840 -0.472158
O29   O     O_R   0.599860 0.500010 0.576160 -0.463248
O30   O     O_2   0.327983 0.373364 0.646173 -0.470539

loop_
_geom_bond_atom_site_label_1
_geom_bond_atom_site_label_2
_ccdc_geom_bond_type
C66   C68   S    
C34   C56   S    
C59   H42   S    
C56   C76   S    
C27   C29   A    
C41   C42   S    
C14   C18   S    
C71   H69   S    
C23   C76   S    
C5    C67   T    
C53   O14   D    
C27   O9    S    
C6    C75   T    
C57   H37   S    
Cu1   Cu2   S    
C17   O27   A    
C16   C31   S    
C7    C11   S    
C48   H19   S    
C46   H15   S    
C62   C63   S    
C61   H46   S    
C23   C45   S    
Cu1   O26   S    
C40   H80   S    
C24   C26   A    
C22   H1    S    
C10   C15   S    
C8    H34   S    
C40   O9    S    
C11   C39   S    
C43   O10   S    
C46   H14   S    
C41   H4    S    
Cu1   O1    S    
C58   H40   S    
C74   H76   S    
C73   C74   S    
C63   H52   S    
C9    C13   S    
C72   O24   S    
C39   O7    D    
C16   O28   A    
C1    C67   S    
C49   H20   S    
H67   O6    S    
H45   O2    S    
C17   O29   A    
C55   O18   S    
C64   H54   S    
C52   H29   S    
C54   O16   D    
C22   C25   A    
C8    C14   S    
C40   H2    S    
C70   C71   S    
C70   H68   S    
C33   N2    A    
C12   O12   A    
C2    C34   S    
Cu1   N6    S    
C7    C15   S    
C71   H70   S    
C45   C53   S    
C50   H25   S    
C33   N3    A    
C4    C56   S    
Cu2   O12   S    
C60   H43   S    
C29   O11   S    
C53   O15   S    
C44   C46   S    
C38   O6    S    
C37   O4    S    
C54   C56   S    
C1    O23   A    
C2    C45   S    
C30   O13   S    
C21   C32   A    
C65   O21   S    
C35   N4    A    
C42   H5    S    
Cu2   N5    S    
C51   C52   S    
C65   H58   S    
C68   H63   S    
C50   O13   S    
C42   H6    S    
H32   O17   S    
C23   O18   S    
C37   O3    D    
C9    O22   S    
C4    C23   S    
C46   H13   S    
C55   H35   S    
C3    C34   S    
C69   H64   S    
C3    C45   S    
C58   H39   S    
C52   H28   S    
C60   C61   S    
N2    N4    A    
C15   C19   S    
C9    C14   S    
C39   O8    S    
C12   O25   A    
C49   H21   S    
C18   N5    T    
H31   O15   S    
C26   C33   S    
C10   O24   S    
C47   C48   S    
C66   H60   S    
C64   H53   S    
C1    O1    A    
C51   H27   S    
C72   H73   S    
C41   H3    S    
C36   O2    S    
C50   C51   S    
C54   O17   S    
Cu2   O28   S    
C34   O19   S    
C58   H38   S    
C42   H7    S    
C2    O20   S    
C60   H44   S    
C3    C76   S    
C13   C38   S    
C65   H57   S    
C16   O26   A    
C25   C35   S    
C4    C6    S    
C40   C41   S    
C20   C22   A    
C50   H24   S    
C72   H72   S    
C55   C57   S    
C43   C44   S    
H56   O4    S    
C68   H62   S    
C69   H65   S    
C21   C24   A    
C38   O5    D    
C7    C9    S    
C64   H55   S    
C48   C49   S    
C59   H41   S    
C48   H18   S    
C74   H79   S    
C55   H33   S    
Cu1   O29   S    
C43   H8    S    
C70   H66   S    
C8    C10   S    
Cu2   O27   S    
C72   C73   S    
C3    C5    S    
C24   H12   S    
C57   H36   S    
C62   H50   S    
C25   C27   A    
C26   C28   A    
Cu1   O25   S    
C13   C15   S    
N1    N3    A    
C51   H26   S    
C43   H9    S    
C73   H74   S    
C49   H22   S    
C30   C32   A    
C28   O10   S    
C57   C58   S    
C71   H71   S    
C66   H59   S    
C2    C4    S    
C28   C30   A    
C11   C14   S    
C47   H16   S    
H78   O8    S    
C74   H77   S    
C19   N6    T    
C63   H51   S    
C69   C70   S    
C36   O30   D    
C35   N1    A    
C10   C11   S    
C76   O21   S    
C62   O20   S    
C63   C64   S    
C20   C36   S    
C8    C13   S    
C62   H49   S    
C59   C60   S    
C61   H48   S    
C21   C37   S    
C52   H30   S    
C29   C31   A    
C65   C66   S    
C7    H23   S    
C12   C75   S    
C73   H75   S    
C17   C32   S    
C47   H17   S    
C59   O19   S    
C68   H61   S    
C61   H47   S    
Cu2   O23   S    
C44   H10   S    
C69   O22   S    
C47   O11   S    
C44   H11   S    
C20   C31   A    
