data_mof_unit_8334.cif
_audit_creation_date              2012-12-10T17:27:50-0500
_audit_creation_method            fapswitch 2.2
_symmetry_space_group_name_H-M    P1
_symmetry_Int_Tables_number       1
_space_group_crystal_system       triclinic
_cell_length_a                    10.623565
_cell_length_b                    12.023115
_cell_length_c                    12.843304
_cell_angle_alpha                 93.798033
_cell_angle_beta                  90.387021
_cell_angle_gamma                 86.594252
_cell_volume                      1633.95365526

loop_
_atom_site_label
_atom_site_type_symbol
_atom_type_description
_atom_site_fract_x
_atom_site_fract_y
_atom_site_fract_z
_atom_type_partial_charge
C1    C     C_R   0.497927 0.522343 0.700406 0.895643
C2    C     C_R   0.425068 0.629638 0.860325 -0.267557
C3    C     C_R   0.535078 0.447521 0.868436 -0.262408
C4    C     C_R   0.739382 0.500036 0.497075 0.869876
C5    C     C_R   0.516411 0.451167 0.974275 0.177393
C6    C     C_R   0.452467 0.546222 0.025387 0.092967
C7    C     C_R   0.445283 0.550986 0.133162 -0.223820
C8    C     C_R   0.552729 0.366766 0.136891 -0.210242
C9    C     C_R   0.562964 0.361047 0.029576 -0.193685
C10   C     C_R   0.371590 0.954756 0.413230 -0.318679
C11   C     C_R   0.385318 0.838707 0.419742 -0.022666
C12   C     C_R   0.937500 0.435889 0.409234 0.096799
C13   C     C_R   0.558590 0.857525 0.536587 0.295551
C14   C     C_R   0.550040 0.975596 0.530305 0.043728
C15   C     C_R   0.453672 0.024157 0.468961 0.059859
C16   C     C_R   0.500033 0.477571 0.299656 0.851175
C17   C     C_R   0.442100 0.141491 0.464765 -0.025248
C18   C     C_R   0.617820 0.162316 0.577467 0.031571
C19   C     C_R   0.633591 0.046540 0.583586 -0.316958
C20   C     C_R   0.260583 0.499209 0.497400 0.867914
C21   C     C_R   0.875537 0.375927 0.327448 -0.176821
C22   C     C_R   0.944597 0.315098 0.248686 -0.130562
C23   C     C_R   0.871522 0.500083 0.489511 -0.096877
C24   C     C_R   0.075685 0.313849 0.249366 -0.125003
C25   C     C_R   0.138160 0.373496 0.328759 -0.185016
C26   C     C_R   0.069519 0.434672 0.409895 0.095022
C27   C     C_3   0.622882 0.814287 0.711608 -0.716341
C28   C     C_2   0.327413 0.733605 0.014135 0.879205
C29   C     C_R   0.931839 0.565325 0.565628 -0.215688
C30   C     C_R   0.060502 0.564143 0.566280 -0.202227
C31   C     C_R   0.128321 0.497837 0.490754 -0.092765
C32   C     C_R   0.497422 0.463192 0.188203 -0.059022
C33   C     C_R   0.489397 0.535841 0.811793 -0.080994
C34   C     C_R   0.403954 0.635616 0.967485 -0.021044
H1    H     H_    0.879110 0.615041 0.626009 0.154439
H2    H     H_    0.773873 0.376823 0.322570 0.145799
H3    H     H_    0.896171 0.269707 0.186418 0.137256
H4    H     H_    0.129118 0.267432 0.187646 0.145057
H5    H     H_    0.239852 0.372374 0.324882 0.145125
H6    H     H_    0.107668 0.613364 0.626935 0.154559
H7    H     H_    0.404245 0.624735 0.175670 0.192090
H8    H     H_    0.592929 0.298558 0.179822 0.157886
H9    H     H_    0.742242 0.821516 0.584412 0.204013
H10   H     H_    0.656859 0.892790 0.749011 0.213715
H11   H     H_    0.671552 0.742993 0.749060 0.237185
H12   H     H_    0.610044 0.287750 0.990116 0.140155
H13   H     H_    0.519958 0.812894 0.725619 0.253817
H14   H     H_    0.187539 0.792192 0.112169 0.342963
H15   H     H_    0.385374 0.695258 0.813942 0.176364
H16   H     H_    0.584946 0.374988 0.829757 0.155395
H17   H     H_    0.369022 0.180093 0.417623 0.124775
H18   H     H_    0.682322 0.216167 0.618597 0.133392
H19   H     H_    0.297300 0.989907 0.364994 0.158996
H20   H     H_    0.711623 0.014096 0.629117 0.150365
H21   H     H_    0.321806 0.785523 0.376597 0.155904
N1    N     N_R   0.523130 0.207800 0.519340 -0.103135
N2    N     N_R   0.476870 0.792180 0.480660 -0.113344
N3    N     N_2   0.650584 0.805175 0.600976 -0.276460
O1    O     O_R   0.506170 0.421690 0.658830 -0.618961
O2    O     O_R   0.233638 0.719161 0.087120 -0.819947
O3    O     O_R   0.491330 0.609320 0.646410 -0.607116
O4    O     O_R   0.690660 0.406170 0.506210 -0.631909
O5    O     O_R   0.675810 0.593790 0.493790 -0.592828
O6    O     O_R   0.508670 0.390680 0.353590 -0.638223
O7    O     O_R   0.493830 0.578310 0.341170 -0.620149
O8    O     O_R   0.324190 0.406210 0.506210 -0.621880
O9    O     O_R   0.309340 0.593830 0.493790 -0.620626
O10   O     O_2   0.343000 0.826760 0.985345 -0.630588
Zn1   Zn    Zn3+2 0.509910 0.374720 0.508290 0.940133
Zn2   Zn    Zn3+2 0.490090 0.625280 0.491710 0.962703

loop_
_geom_bond_atom_site_label_1
_geom_bond_atom_site_label_2
_ccdc_geom_bond_type
O3    Zn2   S    
C14   C19   A    
C24   H4    S    
C5    C9    A    
C6    C7    A    
C13   N3    S    
C2    H15   S    
N2    Zn2   S    
C16   C32   S    
O6    Zn1   S    
C29   H1    S    
C20   O9    A    
N1    Zn1   S    
C4    O5    A    
O5    Zn2   S    
C18   N1    A    
C30   C31   A    
C27   H13   S    
O9    Zn2   S    
C6    C34   A    
C27   H11   S    
C1    O1    A    
C25   C26   A    
C18   H18   S    
C9    H12   S    
C21   H2    S    
C13   C14   A    
C25   H5    S    
O4    Zn1   S    
C12   C23   A    
C17   H17   S    
C29   C30   A    
O1    Zn1   S    
C27   H10   S    
C23   C29   A    
C2    C33   A    
C21   C22   A    
C28   O10   D    
C3    H16   S    
C8    H8    S    
H14   O2    S    
C17   N1    A    
C10   C15   A    
C28   O2    S    
C5    C6    A    
C7    C32   A    
C22   C24   A    
O8    Zn1   S    
C13   N2    A    
C10   C11   A    
C3    C33   A    
C28   C34   S    
O7    Zn2   S    
C8    C32   A    
C4    O4    A    
C26   C31   A    
C11   H21   S    
C24   C25   A    
C19   H20   S    
C18   C19   A    
C20   O8    A    
C15   C17   A    
C4    C23   S    
C30   H6    S    
C14   C15   A    
C10   H19   S    
C16   O7    A    
C16   O6    A    
H9    N3    S    
C2    C34   A    
C11   N2    A    
C22   H3    S    
C12   C21   A    
C20   C31   S    
C1    C33   S    
C7    H7    S    
C12   C26   A    
C8    C9    A    
C3    C5    A    
C27   N3    S    
C1    O3    A    
