data_mof_unit_67537.cif
_audit_creation_date              2012-12-10T16:47:29-0500
_audit_creation_method            fapswitch 2.2
_symmetry_space_group_name_H-M    P1
_symmetry_Int_Tables_number       1
_space_group_crystal_system       triclinic
_cell_length_a                    10.67428
_cell_length_b                    8.751805
_cell_length_c                    7.624137
_cell_angle_alpha                 103.537924
_cell_angle_beta                  95.691894
_cell_angle_gamma                 96.912102
_cell_volume                      681.408186241

loop_
_atom_site_label
_atom_site_type_symbol
_atom_type_description
_atom_site_fract_x
_atom_site_fract_y
_atom_site_fract_z
_atom_type_partial_charge
C1    C     C_R   0.493065 0.199904 0.453149 0.849339
C2    C     C_R   0.506935 0.800096 0.546851 0.849339
C3    C     C_R   0.260087 0.499285 0.499507 0.920512
C4    C     C_R   0.739912 0.500715 0.500494 0.920534
C5    C     C_3   0.031758 0.371922 0.543869 0.398831
C6    C     C_3   0.968238 0.628078 0.456132 0.398831
C7    C     C_3   0.937813 0.370547 0.378001 -0.114452
C8    C     C_3   0.062185 0.629455 0.621999 -0.114420
C9    C     C_3   0.876170 0.498646 0.500650 -0.127035
C10   C     C_3   0.123829 0.501353 0.499351 -0.127045
C11   C     C_3   0.969889 0.498505 0.669199 -0.293215
C12   C     C_3   0.030109 0.501497 0.330801 -0.293257
C13   C     C_2   0.476193 0.029555 0.431011 0.190375
C14   C     C_2   0.523806 0.970445 0.568989 0.190377
Cu1   Cu    Cu3+1 0.514140 0.517380 0.684380 1.072472
Cu2   Cu    Cu3+1 0.485860 0.482620 0.315620 1.072471
H1    H     H_    0.945346 0.494767 0.806470 0.193331
H2    H     H_    0.054653 0.505235 0.193529 0.193330
N1    N     N_2   0.464560 0.456420 0.038510 -0.217220
N2    N     N_2   0.535440 0.543580 0.961490 -0.217217
O1    O     O_R   0.509190 0.286130 0.619780 -0.522772
O2    O     O_R   0.490810 0.713870 0.380220 -0.522770
O3    O     O_R   0.485310 0.256770 0.308360 -0.570769
O4    O     O_R   0.514690 0.743230 0.691640 -0.570767
O5    O     O_R   0.328790 0.514640 0.655680 -0.532835
O6    O     O_R   0.671210 0.485360 0.344320 -0.532838
O7    O     O_R   0.304910 0.485280 0.344260 -0.576782
O8    O     O_R   0.695090 0.514720 0.655740 -0.576785
C15   C     C_2   0.874064 0.220342 0.244345 0.882015
O9    O     O_2   0.938527 0.134654 0.153235 -0.503783
O10   O     O_R   0.742303 0.177622 0.226246 -0.773136
H3    H     H_    0.711103 0.072779 0.133852 0.342356
C16   C     C_2   0.125935 0.779659 0.755660 0.882048
O11   O     O_2   0.061470 0.865348 0.846763 -0.503780
O12   O     O_R   0.257698 0.822372 0.773775 -0.773131
H4    H     H_    0.288894 0.927216 0.866168 0.342357
O13   O     O_3   0.065712 0.234607 0.586824 -0.702823
H5    H     H_    0.986912 0.179129 0.616100 0.348426
O14   O     O_3   0.934268 0.765389 0.413187 -0.702845
H6    H     H_    0.013037 0.820822 0.383776 0.348427
C17   C     C_2   0.363584 0.328713 0.951381 1.080452
O15   O     O_2   0.307111 0.258627 0.047727 -0.590201
O16   O     O_R   0.325095 0.278477 0.766220 -0.724697
H7    H     H_    0.264850 0.174232 0.730098 0.344836
C18   C     C_2   0.636415 0.671287 0.048618 1.080440
O17   O     O_2   0.692889 0.741373 0.952272 -0.590205
O18   O     O_R   0.674904 0.721525 0.233780 -0.724695
H8    H     H_    0.735144 0.825773 0.269900 0.344825
O19   O     O_3   0.404201 0.930297 0.275519 -0.728265
H9    H     H_    0.367513 0.994949 0.198617 0.355037
O20   O     O_3   0.595798 0.069703 0.724481 -0.728261
H10   H     H_    0.632485 0.005052 0.801385 0.355041

loop_
_geom_bond_atom_site_label_1
_geom_bond_atom_site_label_2
_ccdc_geom_bond_type
C2    O2    A    
C4    O6    A    
O16   H7    S    
C1    O1    A    
C15   O9    D    
C7    C15   S    
C5    O13   S    
C17   O16   S    
C17   O15   D    
N1    N2    D    
C8    C11   S    
Cu2   O7    S    
C3    O7    A    
C16   O11   D    
C5    C10   S    
C15   O10   S    
C3    C10   S    
C13   C14   D    
C6    C12   S    
C9    C11   S    
Cu1   O8    S    
O13   H5    S    
C10   C12   S    
O12   H4    S    
C6    C9    S    
Cu2   N1    S    
C13   O19   S    
Cu1   O4    S    
C16   O12   S    
C5    C11   S    
Cu2   O3    S    
C5    C7    S    
C8    C16   S    
C18   O18   S    
C2    O4    A    
C7    C12   S    
C2    C14   S    
Cu1   O5    S    
C1    C13   S    
Cu1   Cu2   S    
O18   H8    S    
N1    C17   S    
Cu1   O1    S    
C3    O5    A    
O20   H10   S    
C8    C10   S    
O19   H9    S    
N2    C18   S    
C12   H2    S    
O14   H6    S    
C7    C9    S    
C6    O14   S    
C11   H1    S    
C6    C8    S    
C1    O3    A    
C4    O8    A    
C4    C9    S    
C18   O17   D    
O10   H3    S    
C14   O20   S    
Cu2   O2    S    
Cu1   N2    S    
Cu2   O6    S    
