data_mof_unit_29934.cif
_audit_creation_date              2012-10-26T18:53:17-0400
_audit_creation_method            fapswitch 2.2
_symmetry_space_group_name_H-M    P1
_symmetry_Int_Tables_number       1
_space_group_crystal_system       triclinic
_cell_length_a                    14.709752
_cell_length_b                    14.722092
_cell_length_c                    15.873953
_cell_angle_alpha                 76.940044
_cell_angle_beta                  102.73292
_cell_angle_gamma                 114.822285
_cell_volume                      3008.54880749

loop_
_atom_site_label
_atom_site_type_symbol
_atom_type_description
_atom_site_fract_x
_atom_site_fract_y
_atom_site_fract_z
_atom_type_partial_charge
C1    C     C_R   0.880345 0.312321 0.513916 0.546883
C2    C     C_R   0.187694 0.795084 0.472116 -0.004645
C3    C     C_R   0.785401 0.028976 0.529018 -0.099441
C4    C     C_R   0.999690 0.500027 0.659663 0.552408
C5    C     C_R   0.851282 0.129649 0.530531 -0.161730
C6    C     C_R   0.708383 0.178342 0.502302 -0.134726
C7    C     C_R   0.640105 0.078061 0.496086 -0.013836
C8    C     C_R   0.679924 0.001975 0.512081 0.092796
C9    C     C_R   0.533699 0.051713 0.476119 0.018249
C10   C     C_R   0.467622 0.947922 0.481628 -0.002102
C11   C     C_R   0.509790 0.874253 0.495957 -0.128439
C12   C     C_3   0.041482 0.422053 0.073222 -0.213287
C13   C     C_R   0.614536 0.900324 0.510984 0.247827
C14   C     C_R   0.491217 0.125869 0.448724 -0.128824
C15   C     C_R   0.387335 0.099095 0.432530 -0.131214
C16   C     C_R   0.119733 0.687676 0.484942 0.544548
C17   C     C_R   0.321763 0.997888 0.444417 0.053397
C18   C     C_R   0.361078 0.921266 0.470501 0.034686
C19   C     C_R   0.216905 0.972486 0.430590 -0.134370
C20   C     C_R   0.150160 0.871557 0.443512 -0.137559
C21   C     C_R   0.292274 0.820551 0.486831 -0.136701
C22   C     C_R   0.717466 0.670012 0.356144 -0.114886
C23   C     C_3   0.000530 0.499933 0.082894 0.067765
C24   C     C_R   0.798302 0.639611 0.379164 0.020459
C25   C     C_R   0.713947 0.508945 0.487042 0.037774
C26   C     C_R   0.628315 0.535636 0.466540 -0.040181
C27   C     C_R   0.631980 0.618933 0.399632 0.091573
C28   C     C_R   0.000318 0.499985 0.340337 0.552211
C29   C     C_R   0.540731 0.483668 0.510380 0.008662
C30   C     C_R   0.458504 0.516774 0.487155 -0.015294
C31   C     C_R   0.466349 0.600538 0.420784 -0.150626
C32   C     C_R   0.551346 0.651176 0.377153 0.250111
C33   C     C_R   0.532535 0.399533 0.576664 -0.131090
C34   C     C_3   0.068059 0.606171 0.040424 -0.214837
C35   C     C_R   0.448246 0.350501 0.619793 -0.125627
C36   C     C_R   0.368016 0.382179 0.598358 0.043229
C37   C     C_R   0.371067 0.465018 0.531484 0.007205
C38   C     C_R   0.283990 0.330739 0.643107 -0.158937
C39   C     C_R   0.202740 0.360631 0.621081 0.041740
C40   C     C_3   0.040888 0.422160 0.975446 -0.214442
C41   C     C_R   0.285244 0.491221 0.511980 0.036357
C42   C     C_3   0.890868 0.471813 0.935264 -0.214105
C43   C     C_3   0.891453 0.471696 0.033039 -0.213018
C44   C     C_1   0.000939 0.499846 0.250775 -0.034424
C45   C     C_3   0.067465 0.606287 0.942646 -0.212927
C46   C     C_3   0.999537 0.500125 0.917117 0.068009
C47   C     C_1   0.000970 0.499843 0.175191 -0.076106
C48   C     C_1   0.999084 0.500209 0.824817 -0.075903
C49   C     C_1   0.999093 0.500189 0.749230 -0.034235
C50   C     C_R   0.812962 0.204873 0.517000 -0.003829
Cu1   Cu    Cu3+1 0.081750 0.475690 0.522550 0.932312
Cu2   Cu    Cu3+1 0.918250 0.524310 0.477450 0.937988
H1    H     H_    0.994087 0.344911 0.103165 0.117890
H2    H     H_    0.681983 0.237512 0.497516 0.121725
H3    H     H_    0.993211 0.345064 0.958489 0.115223
H4    H     H_    0.463098 0.795607 0.492661 0.084948
H5    H     H_    0.536058 0.205792 0.436178 0.107225
H6    H     H_    0.186545 0.030815 0.409695 0.107481
H7    H     H_    0.279392 0.551394 0.461092 0.119470
H8    H     H_    0.137352 0.320415 0.654921 0.124201
H9    H     H_    0.445725 0.286554 0.670441 0.107317
H10   H     H_    0.722626 0.733744 0.304767 0.160738
H11   H     H_    0.864274 0.679664 0.346043 0.124384
H12   H     H_    0.119106 0.440927 0.963718 0.118018
H13   H     H_    0.718899 0.448455 0.537956 0.121046
H14   H     H_    0.859436 0.526885 0.894198 0.120419
H15   H     H_    0.407510 0.629363 0.401498 0.074600
H16   H     H_    0.590094 0.368951 0.597096 0.091981
H17   H     H_    0.280861 0.267305 0.694435 0.090569
H18   H     H_    0.840485 0.395621 0.917563 0.115612
H19   H     H_    0.841337 0.395446 0.062239 0.118872
H20   H     H_    0.860282 0.526706 0.038875 0.118404
H21   H     H_    0.146164 0.628395 0.930318 0.118904
H22   H     H_    0.039211 0.663784 0.901724 0.118435
H23   H     H_    0.119981 0.440792 0.108392 0.118658
H24   H     H_    0.147037 0.628210 0.075001 0.118115
H25   H     H_    0.598847 0.759302 0.527176 0.329724
H26   H     H_    0.495802 0.747730 0.305312 0.322972
H27   H     H_    0.040096 0.663619 0.046404 0.115858
H28   H     H_    0.318408 0.760353 0.513343 0.122901
H29   H     H_    0.069510 0.853520 0.431625 0.130236
H30   H     H_    0.358162 0.158339 0.411450 0.110288
H31   H     H_    0.817610 0.972494 0.540572 0.172469
H32   H     H_    0.932078 0.148505 0.542077 0.129405
N1    N     N_R   0.795410 0.560790 0.443550 -0.231642
N2    N     N_R   0.204590 0.439170 0.556520 -0.232867
O1    O     O_R   0.977910 0.338120 0.529720 -0.506010
O2    O     O_3   0.557556 0.733596 0.312652 -0.708027
O3    O     O_R   0.839850 0.379180 0.491640 -0.512418
O4    O     O_R   0.069060 0.479460 0.639610 -0.495709
O5    O     O_R   0.931000 0.520530 0.601530 -0.494001
O6    O     O_R   0.160150 0.620820 0.508360 -0.512820
O7    O     O_R   0.022090 0.661880 0.470280 -0.503842
O8    O     O_R   0.069000 0.479470 0.398470 -0.497556
O9    O     O_R   0.930940 0.520540 0.360390 -0.495349
O10   O     O_3   0.654515 0.827268 0.525562 -0.706689

loop_
_geom_bond_atom_site_label_1
_geom_bond_atom_site_label_2
_ccdc_geom_bond_type
C1    O1    A    
C43   H20   S    
C18   C21   A    
C19   C20   A    
C7    C8    A    
C45   C46   S    
C40   C46   S    
C41   N2    A    
C12   C23   S    
C16   O7    A    
C8    C13   A    
C28   O9    A    
C45   H21   S    
C36   C37   A    
Cu1   O4    S    
C30   C31   A    
C34   H27   S    
C32   O2    S    
C29   C33   A    
C42   H18   S    
C23   C43   S    
Cu2   O9    S    
C28   O8    A    
C42   C46   S    
C17   C19   A    
C35   C36   A    
C1    O3    A    
C2    C16   S    
C1    C50   S    
C12   H1    S    
C44   C47   T    
C4    O5    A    
C40   H3    S    
C38   H17   S    
C20   H29   S    
Cu2   O3    S    
C6    H2    S    
Cu1   N2    S    
C15   H30   S    
C4    O4    A    
C19   H6    S    
C46   C48   S    
C23   C47   S    
C13   O10   S    
C2    C20   A    
Cu1   Cu2   S    
C25   H13   S    
C41   H7    S    
C3    C8    A    
Cu1   O1    S    
C5    H32   S    
C24   N1    A    
C25   C26   A    
C28   C44   S    
C30   C37   A    
C45   H22   S    
C12   C40   S    
C31   H15   S    
C9    C14   A    
C29   C30   A    
Cu1   O6    S    
C22   H10   S    
C31   C32   A    
C23   C34   S    
C2    C21   A    
C25   N1    A    
C17   C18   A    
C26   C27   A    
Cu2   O7    S    
C35   H9    S    
C34   C45   S    
C6    C50   A    
C48   C49   T    
C16   O6    A    
C24   H11   S    
C22   C27   A    
C3    H31   S    
C22   C24   A    
C5    C50   A    
C42   C43   S    
C9    C10   A    
H26   O2    S    
C15   C17   A    
C14   H5    S    
Cu2   N1    S    
C43   H19   S    
C27   C32   A    
C3    C5    A    
C6    C7    A    
H25   O10   S    
C40   H12   S    
C4    C49   S    
C36   C38   A    
C11   C13   A    
C38   C39   A    
C10   C18   A    
C39   H8    S    
C21   H28   S    
C33   C35   A    
C37   C41   A    
C10   C11   A    
Cu1   O8    S    
C7    C9    A    
C26   C29   A    
C12   H23   S    
C42   H14   S    
C14   C15   A    
Cu2   O5    S    
C39   N2    A    
C11   H4    S    
C33   H16   S    
C34   H24   S    
