data_mof_unit_42719.cif
_audit_creation_date              2012-12-10T17:27:00-0500
_audit_creation_method            fapswitch 2.2
_symmetry_space_group_name_H-M    P1
_symmetry_Int_Tables_number       1
_space_group_crystal_system       triclinic
_cell_length_a                    18.262504
_cell_length_b                    17.984179
_cell_length_c                    12.001681
_cell_angle_alpha                 89.999947
_cell_angle_beta                  84.076412
_cell_angle_gamma                 90.000028
_cell_volume                      3920.73828936

loop_
_atom_site_label
_atom_site_type_symbol
_atom_type_description
_atom_site_fract_x
_atom_site_fract_y
_atom_site_fract_z
_atom_type_partial_charge
C1    C     C_R   0.401592 0.101759 0.522566 0.886818
C2    C     C_R   0.535497 1.000000 0.018551 -0.040959
C3    C     C_R   0.964503 0.500000 0.981449 -0.040959
C4    C     C_R   0.035497 0.500000 0.018551 -0.040959
C5    C     C_R   0.587969 1.000000 0.824333 -0.047856
C6    C     C_R   0.412031 0.000000 0.175667 -0.047856
C7    C     C_R   0.087969 0.500000 0.824333 -0.047856
C8    C     C_R   0.912031 0.500000 0.175667 -0.047856
C9    C     C_R   0.598029 1.000000 0.939256 0.383658
C10   C     C_R   0.401971 0.000000 0.060744 0.383658
C11   C     C_R   0.098029 0.500000 0.939256 0.383658
C12   C     C_R   0.598408 0.898240 0.477434 0.886818
C13   C     C_R   0.901971 0.500000 0.060744 0.383658
C14   C     C_R   0.458124 0.000000 0.865381 0.011229
C15   C     C_R   0.541875 1.000000 0.134619 0.011229
C16   C     C_R   0.958125 0.500000 0.865381 0.011229
C17   C     C_R   0.041875 0.500000 0.134619 0.011229
C18   C     C_R   0.653419 0.158303 0.461037 -0.234699
C19   C     C_R   0.346581 0.841697 0.538963 -0.234701
C20   C     C_R   0.346581 0.158303 0.538963 -0.234699
C21   C     C_R   0.653419 0.841697 0.461037 -0.234701
C22   C     C_R   0.153419 0.658303 0.461037 -0.234701
C23   C     C_R   0.598408 0.101759 0.477434 0.886817
C24   C     C_R   0.846581 0.341697 0.538963 -0.234698
C25   C     C_R   0.846581 0.658303 0.538963 -0.234701
C26   C     C_R   0.153419 0.341697 0.461037 -0.234699
C27   C     C_R   0.227888 0.807282 0.630508 0.542292
C28   C     C_R   0.772114 0.192715 0.369495 0.542293
C29   C     C_R   0.772112 0.807282 0.369491 0.542292
C30   C     C_R   0.227887 0.192716 0.630507 0.542292
C31   C     C_R   0.727886 0.307285 0.630504 0.542292
C32   C     C_R   0.272112 0.692717 0.369492 0.542292
C33   C     C_R   0.272113 0.307284 0.369493 0.542293
C34   C     C_R   0.401592 0.898240 0.522566 0.886818
C35   C     C_R   0.727889 0.692718 0.630509 0.542292
C36   C     C_R   0.290994 0.850692 0.625941 -0.383259
C37   C     C_R   0.709008 0.149306 0.374061 -0.383259
C38   C     C_R   0.709006 0.850692 0.374058 -0.383258
C39   C     C_R   0.290993 0.149307 0.625940 -0.383258
C40   C     C_R   0.790992 0.350695 0.625939 -0.383259
C41   C     C_R   0.209007 0.649308 0.374059 -0.383259
C42   C     C_R   0.209007 0.350693 0.374060 -0.383258
C43   C     C_R   0.790994 0.649308 0.625942 -0.383258
C44   C     C_R   0.344471 0.785190 0.459151 0.455937
C45   C     C_R   0.901592 0.601759 0.522566 0.886817
C46   C     C_R   0.655528 0.214811 0.540847 0.455937
C47   C     C_R   0.655529 0.785190 0.540850 0.455937
C48   C     C_R   0.344471 0.214810 0.459151 0.455937
C49   C     C_R   0.844472 0.285189 0.459153 0.455938
C50   C     C_R   0.155529 0.714810 0.540849 0.455937
C51   C     C_R   0.155528 0.285190 0.540849 0.455937
C52   C     C_R   0.844471 0.714810 0.459150 0.455937
C53   C     C_R   0.279533 0.744334 0.456705 -0.096040
C54   C     C_R   0.720466 0.255666 0.543293 -0.096040
C55   C     C_R   0.720467 0.744335 0.543295 -0.096039
C56   C     C_R   0.098408 0.398241 0.477434 0.886818
C57   C     C_R   0.279533 0.255666 0.456706 -0.096040
C58   C     C_R   0.779534 0.244334 0.456706 -0.096040
C59   C     C_R   0.220467 0.755665 0.543295 -0.096039
C60   C     C_R   0.220467 0.244334 0.543294 -0.096040
C61   C     C_R   0.779533 0.755665 0.456705 -0.096040
C62   C     C_R   0.098408 0.601759 0.477434 0.886818
C63   C     C_R   0.901592 0.398241 0.522566 0.886818
C64   C     C_R   0.464503 0.000000 0.981449 -0.040959
H1    H     H_    0.364963 0.000000 0.238321 0.143956
H2    H     H_    0.295281 0.894197 0.687535 0.180021
H3    H     H_    0.295280 0.105802 0.687534 0.180020
H4    H     H_    0.704719 0.894196 0.312464 0.180021
H5    H     H_    0.204719 0.605803 0.312465 0.180021
H6    H     H_    0.795278 0.394200 0.687531 0.180019
H7    H     H_    0.795281 0.605804 0.687536 0.180021
H8    H     H_    0.204720 0.394198 0.312466 0.180020
H9    H     H_    0.549665 0.214148 0.585979 0.318640
H10   H     H_    0.450334 0.785852 0.414017 0.318641
H11   H     H_    0.450334 0.214148 0.414017 0.318640
H12   H     H_    0.635037 1.000000 0.761679 0.143956
H13   H     H_    0.549666 0.785853 0.585985 0.318641
H14   H     H_    0.049666 0.714148 0.585983 0.318640
H15   H     H_    0.950335 0.285851 0.414021 0.318640
H16   H     H_    0.950334 0.714148 0.414015 0.318641
H17   H     H_    0.049666 0.285852 0.585982 0.318640
H18   H     H_    0.687873 0.353729 0.771165 0.337068
H19   H     H_    0.312123 0.646277 0.228828 0.337068
H20   H     H_    0.312125 0.353726 0.228830 0.337068
H21   H     H_    0.687878 0.646278 0.771174 0.337068
H22   H     H_    0.187877 0.853723 0.771172 0.337068
H23   H     H_    0.864963 0.500000 0.238321 0.143956
H24   H     H_    0.812127 0.146272 0.228834 0.337068
H25   H     H_    0.812122 0.853722 0.228826 0.337068
H26   H     H_    0.187875 0.146274 0.771170 0.337068
H27   H     H_    0.704689 0.999999 0.908689 0.342988
H28   H     H_    0.295311 0.000000 0.091311 0.342988
H29   H     H_    0.204689 0.499999 0.908689 0.342988
H30   H     H_    0.795311 0.500000 0.091311 0.342988
H31   H     H_    0.135037 0.500000 0.761679 0.143956
H32   H     H_    0.595383 1.000000 0.165919 0.181737
H33   H     H_    0.404617 0.000000 0.834081 0.181737
H34   H     H_    0.095382 0.500000 0.165919 0.181737
H35   H     H_    0.904617 0.500000 0.834081 0.181737
H36   H     H_    0.704722 0.105800 0.312469 0.180020
N1    N     N_R   0.480750 0.000000 0.209750 -0.131978
N2    N     N_R   0.519250 0.000000 0.790250 -0.131978
N3    N     N_R   0.980750 0.500000 0.209750 -0.131978
N4    N     N_R   0.019250 0.500000 0.790250 -0.131978
O1    O     O_R   0.418020 0.076820 0.422210 -0.596705
O2    O     O_R   0.569630 0.923170 0.391410 -0.616825
O3    O     O_R   0.569630 0.076830 0.391410 -0.616824
O4    O     O_R   0.430370 0.923170 0.608590 -0.616825
O5    O     O_R   0.930370 0.576830 0.608590 -0.616825
O6    O     O_R   0.069630 0.423170 0.391410 -0.616824
O7    O     O_R   0.069630 0.576830 0.391410 -0.616825
O8    O     O_R   0.930370 0.423170 0.608590 -0.616824
O9    O     O_3   0.595328 0.229768 0.617487 -0.659308
O10   O     O_3   0.404671 0.770234 0.382509 -0.659307
O11   O     O_3   0.404671 0.229767 0.382510 -0.659307
O12   O     O_R   0.581980 0.923180 0.577790 -0.596705
O13   O     O_3   0.595330 0.770234 0.617493 -0.659307
O14   O     O_3   0.095329 0.729766 0.617491 -0.659307
O15   O     O_3   0.904672 0.270232 0.382513 -0.659308
O16   O     O_3   0.904670 0.729766 0.382507 -0.659308
O17   O     O_3   0.095329 0.270233 0.617490 -0.659307
O18   O     O_3   0.672924 0.315798 0.717933 -0.662577
O19   O     O_3   0.327073 0.684206 0.282061 -0.662577
O20   O     O_3   0.327074 0.315796 0.282062 -0.662577
O21   O     O_3   0.672929 0.684207 0.717942 -0.662577
O22   O     O_3   0.172928 0.815793 0.717940 -0.662577
O23   O     O_R   0.581980 0.076820 0.577790 -0.596704
O24   O     O_3   0.827075 0.184202 0.282066 -0.662577
O25   O     O_3   0.827071 0.815793 0.282059 -0.662577
O26   O     O_3   0.172926 0.184204 0.717938 -0.662577
O27   O     O_3   0.667530 0.999999 0.975066 -0.768324
O28   O     O_3   0.332470 0.000000 0.024934 -0.768324
O29   O     O_3   0.167530 0.500000 0.975066 -0.768324
O30   O     O_3   0.832470 0.500000 0.024934 -0.768324
O31   O     O_R   0.418020 0.923180 0.422210 -0.596704
O32   O     O_R   0.918020 0.576820 0.422210 -0.596705
O33   O     O_R   0.081980 0.423180 0.577790 -0.596705
O34   O     O_R   0.081980 0.576820 0.577790 -0.596704
O35   O     O_R   0.918020 0.423180 0.422210 -0.596705
O36   O     O_R   0.430370 0.076830 0.608590 -0.616824
Zn1   Zn    Zn3+2 0.491750 0.000000 0.375560 0.982820
Zn2   Zn    Zn3+2 0.508250 0.000000 0.624440 0.982820
Zn3   Zn    Zn3+2 0.991750 0.500000 0.375560 0.982820
Zn4   Zn    Zn3+2 0.008250 0.500000 0.624440 0.982821

loop_
_geom_bond_atom_site_label_1
_geom_bond_atom_site_label_2
_ccdc_geom_bond_type
H16   O16   S    
C8    C13   A    
H22   O22   S    
C13   O30   S    
H21   O21   S    
N3    Zn3   S    
C25   C43   A    
O4    Zn2   S    
C53   C59   A    
H25   O25   S    
C48   C57   A    
C7    C11   A    
C40   H6    S    
C14   H33   S    
C50   C59   A    
C34   O31   A    
C47   C55   A    
H14   O14   S    
C18   C37   A    
O36   Zn2   S    
O32   Zn3   S    
H13   O13   S    
C52   C61   A    
C11   O29   S    
O1    Zn1   S    
C27   O22   S    
C45   O5    A    
C14   N2    A    
C22   C41   A    
H27   O27   S    
H10   O10   S    
H9    O9    S    
C31   C40   A    
C6    N1    A    
C63   O8    A    
C35   O21   S    
H30   O30   S    
N1    Zn1   S    
C44   C53   A    
C16   N4    A    
C6    H1    S    
C29   O25   S    
C21   C38   A    
C45   O32   A    
H15   O15   S    
C29   C38   A    
C33   O20   S    
C33   C57   A    
C32   C41   A    
N4    Zn4   S    
O3    Zn1   S    
C35   C43   A    
C17   H34   S    
C3    C13   A    
O7    Zn3   S    
C22   C50   A    
C14   C64   A    
C21   C47   A    
C32   O19   S    
O35   Zn3   S    
C18   C46   A    
C56   O6    A    
C2    C64   A    
C9    O27   S    
C29   C61   A    
C62   O7    A    
C35   C55   A    
C18   C23   S    
C15   H32   S    
C20   C39   A    
C57   C60   A    
C30   O26   S    
C12   C21   S    
C62   O34   A    
C49   C58   A    
C30   C60   A    
O23   Zn2   S    
C5    C9    A    
C22   C62   S    
C47   O13   S    
C23   O3    A    
C46   C54   A    
C42   H8    S    
C15   N1    A    
C4    C11   A    
C2    C15   A    
C20   C48   A    
C1    O36   A    
C48   O11   S    
O12   Zn2   S    
C4    C17   A    
C52   O16   S    
O33   Zn4   S    
C38   H4    S    
C24   C63   S    
C28   C58   A    
C7    N4    A    
C51   O17   S    
H11   O11   S    
C33   C42   A    
C3    C4    A    
C25   C45   S    
C32   C53   A    
C19   C44   A    
C26   C42   A    
O2    Zn1   S    
C41   H5    S    
C54   C58   A    
C24   C49   A    
C5    N2    A    
C1    C20   S    
C43   H7    S    
C46   O9    S    
H28   O28   S    
C50   O14   S    
C39   H3    S    
C10   C64   A    
C31   O18   S    
C19   C34   S    
C26   C56   S    
C6    C10   A    
C16   H35   S    
C63   O35   A    
C27   C36   A    
H20   O20   S    
C7    H31   S    
C23   O23   A    
H29   O29   S    
C19   C36   A    
C8    H23   S    
C34   O4    A    
O8    Zn4   S    
C5    H12   S    
C17   N3    A    
C25   C52   A    
H24   O24   S    
O34   Zn4   S    
C26   C51   A    
C12   O2    A    
C56   O33   A    
C49   O15   S    
C28   C37   A    
C55   C61   A    
C24   C40   A    
C30   C39   A    
O5    Zn4   S    
C36   H2    S    
C31   C54   A    
O6    Zn3   S    
C8    N3    A    
C10   O28   S    
C44   O10   S    
H26   O26   S    
O31   Zn1   S    
H17   O17   S    
C27   C59   A    
C51   C60   A    
N2    Zn2   S    
H19   O19   S    
C2    C9    A    
H18   O18   S    
C37   H36   S    
C3    C16   A    
C28   O24   S    
C1    O1    A    
C12   O12   A    
