data_mof_unit_54658.cif
_audit_creation_date              2012-12-10T17:46:59-0500
_audit_creation_method            fapswitch 2.2
_symmetry_space_group_name_H-M    P1
_symmetry_Int_Tables_number       1
_space_group_crystal_system       triclinic
_cell_length_a                    9.942074
_cell_length_b                    10.666633
_cell_length_c                    13.614221
_cell_angle_alpha                 90.637671
_cell_angle_beta                  83.244633
_cell_angle_gamma                 89.451932
_cell_volume                      1433.56889555

loop_
_atom_site_label
_atom_site_type_symbol
_atom_type_description
_atom_site_fract_x
_atom_site_fract_y
_atom_site_fract_z
_atom_type_partial_charge
C1    C     C_R   0.499822 0.739130 0.494242 1.084655
C2    C     C_R   0.496809 0.932770 0.583569 0.391121
C3    C     C_R   0.502066 0.063053 0.586811 0.041078
C4    C     C_R   0.475915 0.502480 0.685458 0.947943
C5    C     C_R   0.502610 0.128510 0.498287 -0.165376
C6    C     C_R   0.839553 0.661976 0.630328 -0.221282
C7    C     C_R   0.898062 0.738908 0.696800 0.059440
C8    C     C_R   0.039438 0.738924 0.696081 0.414002
C9    C     C_R   0.118186 0.660080 0.629903 -0.182799
C10   C     C_R   0.061394 0.579269 0.563994 0.074623
C11   C     C_R   0.917318 0.579747 0.563949 0.133757
C12   C     C_1   0.457869 0.509323 0.789127 -0.095572
C13   C     C_R   0.939224 0.423937 0.438816 -0.082271
C14   C     C_R   0.082146 0.424030 0.438801 -0.059789
C15   C     C_R   0.500265 0.260907 0.503138 0.920520
C16   C     C_R   0.524217 0.495330 0.314583 0.929615
C17   C     C_1   0.542094 0.488346 0.210836 -0.158052
C18   C     C_2   0.552164 0.482538 0.019347 -0.192312
C19   C     C_2   0.440723 0.518355 0.981444 0.480251
C20   C     C_1   0.445696 0.514754 0.876864 -0.094873
C21   C     C_1   0.551995 0.483999 0.123114 0.081837
C22   C     C_R   0.474158 0.878585 0.309712 0.457811
C23   C     C_R   0.478244 0.950643 0.223374 -0.199452
C24   C     C_R   0.493830 0.079314 0.227500 -0.175703
C25   C     C_R   0.502468 0.138344 0.317705 -0.144968
C26   C     C_R   0.498622 0.068878 0.405990 -0.000266
C27   C     C_R   0.490190 0.937753 0.402200 -0.028384
C28   C     C_R   0.496202 0.872167 0.491886 -0.187836
H1    H     H_    0.732577 0.669489 0.633467 0.251017
H2    H     H_    0.040428 0.868468 0.798459 0.368261
H3    H     H_    0.459662 0.912023 0.726748 0.386729
H4    H     H_    0.429230 0.729740 0.237014 0.344174
H5    H     H_    0.224376 0.664676 0.632672 0.238724
H6    H     H_    0.144318 0.361762 0.388761 0.147475
H7    H     H_    0.643205 0.451966 0.972700 0.132368
H8    H     H_    0.467985 0.906859 0.152508 0.159271
H9    H     H_    0.496886 0.133951 0.160714 0.170481
H10   H     H_    0.512515 0.238950 0.317389 0.119614
H11   H     H_    0.894426 0.361639 0.388814 0.144707
H12   H     H_    0.255283 0.579498 0.998371 0.348793
I1    I     I_    0.764483 0.848600 0.797615 -0.312557
I2    I     I_    0.515793 0.162165 0.723394 -0.315084
N1    N     N_R   0.857120 0.501200 0.500900 -0.107336
N2    N     N_R   0.142720 0.501280 0.500940 -0.107486
O1    O     O_R   0.385310 0.683220 0.500000 -0.608017
O2    O     O_3   0.106012 0.813359 0.758091 -0.738880
O3    O     O_3   0.491133 0.860397 0.667755 -0.761895
O4    O     O_3   0.448523 0.752416 0.304776 -0.788091
O5    O     O_R   0.614640 0.683250 0.500010 -0.636637
O6    O     O_R   0.368830 0.499960 0.640340 -0.634235
O7    O     O_R   0.598160 0.499980 0.640350 -0.623036
O8    O     O_R   0.385360 0.316750 0.499990 -0.617032
O9    O     O_R   0.614690 0.316780 0.500000 -0.608383
O10   O     O_R   0.401840 0.500020 0.359650 -0.579651
O11   O     O_R   0.631170 0.500040 0.359660 -0.618897
O12   O     O_3   0.325532 0.557201 0.041475 -0.746248
Zn1   Zn    Zn3+2 0.346870 0.499980 0.499990 0.988104
Zn2   Zn    Zn3+2 0.653130 0.500020 0.500010 0.976028

loop_
_geom_bond_atom_site_label_1
_geom_bond_atom_site_label_2
_ccdc_geom_bond_type
C19   O12   S    
C14   H6    S    
C1    C28   S    
C22   O4    S    
C23   C24   A    
C3    I2    S    
C11   N1    A    
C6    C7    A    
C25   H10   S    
C4    C12   S    
C18   C21   S    
C9    C10   A    
C19   C20   S    
N2    Zn1   S    
O9    Zn2   S    
O1    Zn1   S    
C12   C20   T    
C24   H9    S    
C16   O11   A    
C7    C8    A    
O7    Zn2   S    
H3    O3    S    
C15   O8    A    
C9    H5    S    
H4    O4    S    
C6    C11   A    
C1    O1    A    
C26   C27   A    
C15   O9    A    
C18   H7    S    
C2    C3    A    
C16   O10   A    
C22   C27   A    
C7    I1    S    
C2    O3    S    
C8    O2    S    
C13   H11   S    
C5    C15   S    
O8    Zn1   S    
C4    O7    A    
C10   N2    A    
C5    C26   A    
C23   H8    S    
C13   N1    A    
C6    H1    S    
C24   C25   A    
C14   N2    A    
C18   C19   D    
C10   C11   A    
O11   Zn2   S    
C27   C28   A    
C22   C23   A    
C16   C17   S    
C2    C28   A    
N1    Zn2   S    
C3    C5    A    
C25   C26   A    
C13   C14   A    
O6    Zn1   S    
C1    O5    A    
H2    O2    S    
C17   C21   T    
O5    Zn2   S    
C4    O6    A    
C8    C9    A    
H12   O12   S    
O10   Zn1   S    
