data_mof_unit_35403.cif
_audit_creation_date              2012-12-11T14:35:53-0500
_audit_creation_method            fapswitch 2.2
_symmetry_space_group_name_H-M    P1
_symmetry_Int_Tables_number       1
_space_group_crystal_system       triclinic
_cell_length_a                    14.501115
_cell_length_b                    16.262303
_cell_length_c                    7.036436
_cell_angle_alpha                 89.994916
_cell_angle_beta                  80.025747
_cell_angle_gamma                 90.002139
_cell_volume                      1634.2632336

loop_
_atom_site_label
_atom_site_type_symbol
_atom_type_description
_atom_site_fract_x
_atom_site_fract_y
_atom_site_fract_z
_atom_type_partial_charge
O1    O     O_R   0.337460 0.413110 0.524760 -0.550405
O2    O     O_R   0.662540 0.913110 0.475240 -0.551317
O3    O     O_R   0.348690 0.587910 0.191230 -0.512320
O4    O     O_R   0.651310 0.087910 0.808770 -0.512390
O5    O     O_R   0.166530 0.586890 0.082470 -0.468695
O6    O     O_R   0.833470 0.086890 0.917530 -0.469261
C1    C     C_R   0.372961 0.614314 0.352978 0.819513
C2    C     C_R   0.627051 0.114320 0.647012 0.824409
O7    O     O_R   0.348700 0.413830 0.191250 -0.562141
O8    O     O_R   0.651300 0.913830 0.808750 -0.561218
O9    O     O_R   0.166530 0.411570 0.082490 -0.535367
O10   O     O_R   0.833470 0.911570 0.917510 -0.536965
C3    C     C_R   0.369439 0.384287 0.352981 0.645695
C4    C     C_R   0.630623 0.884240 0.647015 0.647220
O11   O     O_R   0.337460 0.588430 0.524740 -0.552128
O12   O     O_R   0.662540 0.088430 0.475260 -0.551728
O13   O     O_3   0.192230 0.499460 0.407330 -0.375427
O14   O     O_3   0.807770 0.999460 0.592670 -0.376137
V1    V     V_3+5 0.263080 0.500100 0.108540 1.596996
V2    V     V_3+5 0.736920 0.000100 0.891460 1.601316
O15   O     O_R   0.155290 0.412090 0.756570 -0.565300
O16   O     O_R   0.844710 0.912090 0.243430 -0.564425
C5    C     C_R   0.133598 0.383940 0.933630 0.741177
C6    C     C_R   0.866386 0.883930 0.066385 0.743501
O17   O     O_R   0.155290 0.586170 0.756550 -0.561584
O18   O     O_R   0.844710 0.086170 0.243450 -0.560909
C7    C     C_R   0.133779 0.616517 0.934727 0.874025
C8    C     C_R   0.866276 0.116468 0.065232 0.876332
V3    V     V_3+5 0.240910 0.499900 0.616030 1.490012
V4    V     V_3+5 0.759090 0.999900 0.383970 1.493943
O19   O     O_3   0.311760 0.500540 0.867100 -0.385902
O20   O     O_3   0.688240 0.000540 0.132900 -0.385122
C9    C     C_3   0.107106 0.770483 0.068808 0.635664
C10   C     C_3   0.892933 0.270377 0.931114 0.657012
C11   C     C_3   0.023267 0.831497 0.137323 -0.267342
C12   C     C_3   0.976593 0.331643 0.863028 -0.290039
H1    H     H_    0.996649 0.818720 0.292641 0.127333
H2    H     H_    0.003219 0.319260 0.707548 0.123215
H3    H     H_    0.868242 0.745994 0.274603 0.161120
H4    H     H_    0.131446 0.246119 0.725055 0.162084
C13   C     C_3   0.961770 0.661129 0.086283 0.335827
C14   C     C_3   0.038268 0.161125 0.913670 0.336496
C15   C     C_3   0.040571 0.723121 0.784782 -0.389345
C16   C     C_3   0.959446 0.223046 0.215167 -0.389193
C17   C     C_3   0.064221 0.690261 0.977791 -0.317302
C18   C     C_3   0.935834 0.190197 0.022147 -0.321105
H5    H     H_    0.009179 0.672872 0.714127 0.250701
H6    H     H_    0.990828 0.172801 0.285853 0.251030
H7    H     H_    0.104367 0.739584 0.685933 0.290494
H8    H     H_    0.895593 0.239451 0.313899 0.290410
C19   C     C_3   0.937474 0.814410 0.031372 -0.117761
C20   C     C_3   0.062471 0.314446 0.968668 -0.121256
C21   C     C_3   0.890179 0.734097 0.117890 -0.302366
C22   C     C_3   0.109737 0.234168 0.881806 -0.294291
C23   C     C_3   0.973226 0.798186 0.813087 -0.239982
C24   C     C_3   0.026782 0.298128 0.186942 -0.238887
H9    H     H_    0.007454 0.853915 0.743773 0.239289
H10   H     H_    0.992526 0.353826 0.256370 0.238182
H11   H     H_    0.914043 0.786361 0.735603 0.197880
H12   H     H_    0.085997 0.286277 0.264319 0.199309
H13   H     H_    0.937904 0.618682 0.981412 0.163318
H14   H     H_    0.062211 0.118736 0.018598 0.160401
H15   H     H_    0.553408 0.815584 0.364877 0.129063
H16   H     H_    0.446388 0.315439 0.635339 0.130436
H17   H     H_    0.434518 0.689600 0.644383 0.213735
H18   H     H_    0.565584 0.189704 0.355613 0.213190
C25   C     C_2   0.442426 0.681984 0.344186 -0.227614
C26   C     C_2   0.557597 0.181986 0.655796 -0.227279
C27   C     C_2   0.467106 0.713830 0.505553 -0.013336
C28   C     C_2   0.532969 0.213894 0.494445 -0.020477
C29   C     C_2   0.568782 0.810382 0.658974 -0.141283
C30   C     C_2   0.431436 0.310543 0.340983 -0.155841
C31   C     C_2   0.534467 0.783303 0.501277 -0.108502
C32   C     C_2   0.465566 0.283332 0.498782 -0.118620
H19   H     H_    0.472703 0.706554 0.204951 0.161564
H20   H     H_    0.527277 0.206508 0.795019 0.159607
S1    S     S_3+6 0.163291 0.748796 0.271610 0.023899
O21   O     O_2   0.265056 0.731843 0.201356 -0.311515
O22   O     O_2   0.156835 0.822186 0.402147 -0.319830
O23   O     O_3   0.115927 0.667661 0.394605 -0.496608
H21   H     H_    0.168871 0.644468 0.447246 0.372287
S2    S     S_3+6 0.836907 0.248757 0.728004 0.023988
O24   O     O_2   0.735027 0.232090 0.797765 -0.322063
O25   O     O_2   0.843770 0.322101 0.597242 -0.316839
O26   O     O_3   0.884109 0.167494 0.605354 -0.496541
H22   H     H_    0.831129 0.144383 0.552706 0.372215
C33   C     C_2   0.798860 0.714536 0.048503 0.456127
H23   H     H_    0.732900 0.731872 0.137501 0.035154
O27   O     O_2   0.797758 0.681892 0.892602 -0.484198
C34   C     C_2   0.201195 0.214620 0.950637 0.443845
H24   H     H_    0.267076 0.231757 0.861052 0.041043
O28   O     O_2   0.202500 0.182183 0.106703 -0.489180
C35   C     C_2   0.553451 0.764947 0.844755 0.454317
H25   H     H_    0.550249 0.798608 0.978788 0.032413
O29   O     O_2   0.551213 0.689903 0.849338 -0.517925
C36   C     C_2   0.447220 0.265363 0.154922 0.436166
H26   H     H_    0.451050 0.299235 0.021003 0.026136
O30   O     O_2   0.449149 0.190318 0.149931 -0.513599
S3    S     S_3+6 0.202421 0.821024 0.898008 0.091344
O31   O     O_2   0.264045 0.756860 0.786751 -0.328962
O32   O     O_2   0.166495 0.876483 0.756969 -0.281248
O33   O     O_3   0.269881 0.878974 0.018264 -0.431856
H27   H     H_    0.250986 0.936708 0.001863 0.379511
S4    S     S_3+6 0.797560 0.320790 0.101728 0.077195
O34   O     O_2   0.735434 0.256387 0.211057 -0.358175
O35   O     O_2   0.833316 0.376167 0.242921 -0.268373
O36   O     O_3   0.731977 0.379858 0.980221 -0.435959
H28   H     H_    0.675642 0.394056 0.075624 0.374511
C37   C     C_2   0.053423 0.920651 0.140809 0.458247
H29   H     H_    0.092635 0.941927 0.249084 0.122235
O37   O     O_2   0.034546 0.969686 0.023188 -0.504667
C38   C     C_2   0.945960 0.420759 0.860868 0.530875
H30   H     H_    0.904996 0.441808 0.755388 0.136658
O38   O     O_2   0.966287 0.469981 0.976604 -0.505122
S5    S     S_3+6 0.940308 0.596525 0.298763 0.082589
O39   O     O_2   0.926247 0.648486 0.476703 -0.338493
O40   O     O_2   0.849906 0.551825 0.294944 -0.253722
O41   O     O_3   0.023127 0.525841 0.310386 -0.452252
H31   H     H_    0.999006 0.492909 0.426826 0.346750
S6    S     S_3+6 0.059726 0.096438 0.701389 0.076118
O42   O     O_2   0.073692 0.148301 0.523277 -0.338190
O43   O     O_2   0.150177 0.051822 0.705202 -0.266246
O44   O     O_3   0.976912 0.025696 0.690215 -0.451348
H32   H     H_    0.000974 0.992715 0.573857 0.348350

loop_
_geom_bond_atom_site_label_1
_geom_bond_atom_site_label_2
_ccdc_geom_bond_type
C33   H23   S    
C35   H25   S    
C23   H11   S    
C9    C17   S    
C4    C29   S    
C13   H13   S    
O4    C2    A    
V1    O19   S    
S4    O35   D    
C5    C20   S    
O44   H32   S    
H3    C21   S    
S1    O21   D    
C25   C27   D    
C8    C18   S    
C11   H1    S    
O5    V1    S    
C22   C34   S    
O3    C1    A    
C37   O37   D    
O12   V4    S    
S5    O39   D    
O13   V3    S    
C14   C18   S    
O7    C3    A    
O41   H31   S    
S4    O34   D    
O13   V1    S    
O5    C7    A    
O7    V1    S    
O6    C8    A    
C16   C18   S    
S5    O40   D    
C36   O30   D    
C12   C38   S    
O36   H28   S    
C27   C31   S    
O14   V4    S    
C14   H14   S    
C19   C23   S    
C12   C20   S    
S6    O44   S    
C26   C28   D    
C7    C17   S    
C6    C19   S    
C1    O11   A    
C2    O12   A    
C13   S5    S    
C38   O38   D    
C38   H30   S    
C20   C22   S    
O11   V3    S    
S1    O22   D    
O17   V3    S    
C30   C32   D    
O8    C4    A    
O8    V2    S    
C29   C31   D    
C15   H7    S    
H15   C31   S    
O26   H22   S    
O15   V3    S    
C10   S4    S    
C24   H12   S    
C9    S3    S    
C30   C36   S    
C28   C32   S    
C16   C24   S    
C34   O28   D    
S3    O31   D    
S5    O41   S    
O9    V1    S    
C36   H26   S    
O10   V2    S    
O1    V3    S    
C21   C33   S    
C26   H20   S    
O3    V1    S    
C15   C17   S    
C13   C21   S    
C10   C18   S    
C15   C23   S    
S3    O32   D    
C2    C26   S    
H4    C22   S    
C23   H9    S    
C11   C19   S    
O16   C6    A    
C25   H19   S    
C12   H2    S    
S6    O42   D    
S6    O43   D    
V2    O20   S    
S1    O23   S    
C16   H8    S    
H16   C32   S    
O16   V4    S    
O18   C8    A    
O23   H21   S    
C11   C37   S    
O18   V4    S    
C29   C35   S    
C3    C30   S    
O17   C7    A    
S2    O26   S    
O6    V2    S    
O10   C6    A    
S2    O25   D    
O2    V4    S    
O15   C5    A    
V3    O19   S    
C37   H29   S    
C14   C22   S    
V4    O20   S    
C9    S1    S    
C34   H24   S    
H18   C28   S    
H17   C27   S    
O9    C5    A    
C9    C11   S    
C10   C12   S    
C24   H10   S    
O14   V2    S    
O33   H27   S    
O2    C4    A    
C1    C25   S    
O4    V2    S    
C16   H6    S    
S3    O33   S    
O1    C3    A    
C35   O29   D    
S2    O24   D    
C14   S6    S    
C33   O27   D    
C13   C17   S    
C10   S2    S    
C19   C21   S    
C15   H5    S    
S4    O36   S    
C20   C24   S    
