data_mof_unit_41073.cif
_audit_creation_date              2012-12-11T14:40:13-0500
_audit_creation_method            fapswitch 2.2
_symmetry_space_group_name_H-M    P1
_symmetry_Int_Tables_number       1
_space_group_crystal_system       triclinic
_cell_length_a                    19.493945
_cell_length_b                    11.035761
_cell_length_c                    19.483221
_cell_angle_alpha                 89.956472
_cell_angle_beta                  97.8601
_cell_angle_gamma                 89.994894
_cell_volume                      4152.05535088

loop_
_atom_site_label
_atom_site_type_symbol
_atom_type_description
_atom_site_fract_x
_atom_site_fract_y
_atom_site_fract_z
_atom_type_partial_charge
C1    C     C_R   0.725866 0.952256 0.360506 0.574370
C2    C     C_R   0.274637 0.954180 0.639170 0.574577
C3    C     C_R   0.227452 0.445638 0.357729 0.586107
C4    C     C_R   0.772429 0.446394 0.642186 0.584141
C5    C     C_3   0.721019 0.259475 0.498804 -0.191523
C6    C     C_3   0.267115 0.275986 0.511697 -0.171155
C7    C     C_3   0.187666 0.808286 0.495468 -0.187586
C8    C     C_3   0.818596 0.812218 0.505880 -0.179929
C9    C     C_3   0.736069 0.347731 0.440765 -0.011754
C10   C     C_3   0.255667 0.379494 0.562782 0.001686
C11   C     C_3   0.235380 0.843544 0.440892 -0.025803
C12   C     C_3   0.766710 0.832716 0.558441 -0.023411
C13   C     C_3   0.698199 0.451571 0.472414 -0.084778
C14   C     C_3   0.299279 0.467299 0.525877 -0.092956
C15   C     C_3   0.236143 0.976654 0.463377 -0.083250
C16   C     C_3   0.756749 0.965774 0.536442 -0.094542
C17   C     C_3   0.768228 0.488011 0.514958 -0.136766
C18   C     C_3   0.231338 0.506520 0.480510 -0.151829
C19   C     C_3   0.301268 0.949335 0.515618 -0.161317
C20   C     C_3   0.695743 0.927016 0.481998 -0.158649
C21   C     C_3   0.805972 0.384540 0.482983 0.056879
C22   C     C_3   0.188771 0.417060 0.517800 0.042926
C23   C     C_3   0.301055 0.816552 0.493091 0.040378
C24   C     C_3   0.705379 0.793936 0.503598 0.040453
C25   C     C_3   0.791156 0.298321 0.541038 0.019394
C26   C     C_3   0.199800 0.316989 0.465974 0.023514
C27   C     C_3   0.254014 0.782777 0.547896 0.013636
C28   C     C_3   0.756513 0.775854 0.450574 0.005490
C29   C     C_3   0.753539 0.401814 0.572796 0.051555
C30   C     C_3   0.242834 0.406277 0.428532 0.048481
C31   C     C_3   0.254412 0.914550 0.569704 0.032214
C32   C     C_3   0.746934 0.907861 0.429556 0.036338
C33   C     C_3   0.528009 0.268392 0.977721 0.105215
C34   C     C_3   0.470024 0.268636 0.022639 0.106275
C35   C     C_3   0.028012 0.768374 0.977718 0.105237
C36   C     C_3   0.970029 0.768645 0.022640 0.106282
C37   C     C_3   0.567845 0.169795 0.022886 -0.120251
C38   C     C_3   0.429939 0.170323 0.977394 -0.120404
C39   C     C_3   0.067836 0.669765 0.022883 -0.120286
C40   C     C_3   0.929930 0.670345 0.977398 -0.120878
C41   C     C_3   0.507949 0.170572 0.068518 0.036285
C42   C     C_3   0.489957 0.170583 0.931954 0.036217
C43   C     C_3   0.007944 0.670570 0.068519 0.036412
C44   C     C_3   0.989947 0.670578 0.931955 0.035864
C45   C     C_R   0.536042 0.179852 0.338342 0.540941
C46   C     C_R   0.464151 0.179845 0.661801 0.541979
C47   C     C_R   0.035086 0.680560 0.337712 0.535190
C48   C     C_R   0.964476 0.680597 0.661965 0.530367
C49   C     C_3   0.469962 0.071956 0.023161 0.094203
C50   C     C_3   0.527611 0.071717 0.977313 0.097161
C51   C     C_3   0.969942 0.571965 0.023165 0.094347
C52   C     C_3   0.027589 0.571699 0.977313 0.097219
C53   C     C_1   0.772510 0.448509 0.910117 0.015196
C54   C     C_1   0.218821 0.473355 0.085406 0.004879
C55   C     C_1   0.272386 0.948168 0.910056 0.014657
C56   C     C_1   0.718838 0.973308 0.085421 0.004052
C57   C     C_1   0.742711 0.386296 0.031278 -0.042035
C58   C     C_1   0.242453 0.436251 0.958370 -0.040417
C59   C     C_1   0.242596 0.885927 0.031213 -0.041804
C60   C     C_1   0.742481 0.936171 0.958398 -0.040434
C61   C     C_1   0.757762 0.419308 0.965538 -0.027220
C62   C     C_1   0.230070 0.457473 0.026870 -0.023463
C63   C     C_1   0.257628 0.918914 0.965464 -0.027448
C64   C     C_1   0.730095 0.957404 0.026892 -0.023541
C65   C     C_1   0.732289 0.356386 0.088096 -0.006293
C66   C     C_1   0.252313 0.409658 0.900648 -0.005530
C67   C     C_1   0.232207 0.856106 0.088057 -0.006511
C68   C     C_1   0.752336 0.909585 0.900675 -0.007467
C69   C     C_R   0.725708 0.312471 0.368115 0.574025
C70   C     C_R   0.261631 0.357393 0.636230 0.615931
C71   C     C_R   0.225177 0.810252 0.367837 0.550624
C72   C     C_R   0.775740 0.806469 0.632807 0.561693
C73   C     C_R   0.704908 0.996248 0.154472 0.536079
C74   C     C_R   0.291521 0.986910 0.845606 0.545621
C75   C     C_R   0.204902 0.496264 0.154470 0.534108
C76   C     C_R   0.791596 0.487104 0.845619 0.543671
C77   C     C_R   0.529150 0.178741 0.141769 0.533501
C78   C     C_R   0.470274 0.178724 0.858547 0.536335
C79   C     C_R   0.029148 0.678741 0.141769 0.533611
C80   C     C_R   0.970272 0.678722 0.858547 0.538187
C81   C     C_R   0.723330 0.316129 0.155715 0.529159
C82   C     C_R   0.263417 0.361966 0.834826 0.549383
C83   C     C_R   0.223296 0.816011 0.155720 0.527409
C84   C     C_R   0.763431 0.861921 0.834846 0.549172
C85   C     C_1   0.485554 0.169674 0.594791 -0.002063
C86   C     C_1   0.515326 0.169828 0.405663 0.015811
C87   C     C_1   0.985652 0.675524 0.594648 0.020374
C88   C     C_1   0.012474 0.675593 0.404388 0.033354
C89   C     C_1   0.505281 0.163228 0.465085 -0.051502
C90   C     C_1   0.496100 0.163020 0.535522 -0.064376
C91   C     C_1   0.002072 0.676094 0.463843 0.026747
C92   C     C_1   0.995076 0.675744 0.534887 0.020179
C93   C     C_3   0.685423 0.365700 0.531046 0.079961
C94   C     C_3   0.308454 0.367363 0.473722 0.068585
C95   C     C_3   0.190463 0.940947 0.518397 0.091719
C96   C     C_3   0.806955 0.944697 0.483461 0.087106
Cr1   Cr    Cr6+3 0.765830 0.160660 0.268180 1.063896
Cr2   Cr    Cr6+3 0.234170 0.160660 0.731820 1.072313
Cr3   Cr    Cr6+3 0.265830 0.660660 0.268180 1.072829
Cr4   Cr    Cr6+3 0.734170 0.660660 0.731820 1.081800
Cr5   Cr    Cr6+3 0.612110 0.009150 0.248770 1.061424
Cr6   Cr    Cr6+3 0.387890 0.009150 0.751230 1.061105
Cr7   Cr    Cr6+3 0.112110 0.509150 0.248770 1.060691
Cr8   Cr    Cr6+3 0.887890 0.509150 0.751230 1.061922
Cr9   Cr    Cr6+3 0.615930 0.324050 0.248450 1.058242
Cr10  Cr    Cr6+3 0.384070 0.324050 0.751550 1.051296
Cr11  Cr    Cr6+3 0.115930 0.824050 0.248450 1.069634
Cr12  Cr    Cr6+3 0.884070 0.824050 0.751550 1.066461
H1    H     H_    0.696591 0.170368 0.487791 0.098276
H2    H     H_    0.283898 0.184893 0.529956 0.112603
H3    H     H_    0.140255 0.752086 0.486267 0.120652
H4    H     H_    0.868638 0.764765 0.516304 0.125081
H5    H     H_    0.658475 0.508890 0.442090 0.200956
H6    H     H_    0.342674 0.517281 0.554839 0.219836
H7    H     H_    0.234407 0.053077 0.426889 0.181067
H8    H     H_    0.750863 0.039035 0.573406 0.176874
H9    H     H_    0.348293 0.007032 0.525752 0.128631
H10   H     H_    0.645075 0.974324 0.471174 0.135959
H11   H     H_    0.789953 0.579025 0.526741 0.110629
H12   H     H_    0.214950 0.596855 0.461641 0.098301
H13   H     H_    0.624187 0.170262 0.041659 0.085650
H14   H     H_    0.373587 0.170790 0.958238 0.102697
H15   H     H_    0.124178 0.670207 0.041652 0.085383
H16   H     H_    0.873578 0.670838 0.958244 0.102259
O1    O     O_R   0.783230 0.287800 0.346510 -0.431744
O2    O     O_R   0.216770 0.287800 0.653490 -0.458052
O3    O     O_R   0.283230 0.787800 0.346510 -0.453356
O4    O     O_R   0.716770 0.787800 0.653490 -0.456576
O5    O     O_R   0.554500 0.081650 0.170370 -0.524529
O6    O     O_R   0.445500 0.081650 0.829630 -0.522379
O7    O     O_R   0.054500 0.581650 0.170370 -0.524775
O8    O     O_R   0.945500 0.581650 0.829630 -0.521388
O9    O     O_R   0.545430 0.285140 0.163100 -0.485627
O10   O     O_R   0.454570 0.285140 0.836900 -0.480130
O11   O     O_R   0.045430 0.785140 0.163100 -0.486744
O12   O     O_R   0.954570 0.785140 0.836900 -0.480064
O13   O     O_R   0.677850 0.374730 0.185500 -0.478156
O14   O     O_R   0.322150 0.374730 0.814500 -0.496341
O15   O     O_R   0.177850 0.874730 0.185500 -0.468732
O16   O     O_R   0.822150 0.874730 0.814500 -0.483613
O17   O     O_3   0.664630 0.164620 0.255130 -0.339367
O18   O     O_3   0.335370 0.164620 0.744870 -0.299172
O19   O     O_3   0.164630 0.664620 0.255130 -0.341723
O20   O     O_3   0.835370 0.664620 0.744870 -0.322475
O21   O     O_R   0.760130 0.037060 0.338610 -0.515724
O22   O     O_R   0.239870 0.037060 0.661390 -0.498570
O23   O     O_R   0.260130 0.537060 0.338610 -0.502723
O24   O     O_R   0.739870 0.537060 0.661390 -0.470950
O25   O     O_R   0.666620 0.921370 0.332440 -0.457334
O26   O     O_R   0.333380 0.921370 0.667560 -0.464473
O27   O     O_R   0.166620 0.421370 0.332440 -0.475125
O28   O     O_R   0.833380 0.421370 0.667560 -0.481294
O29   O     O_R   0.557170 0.082420 0.312350 -0.491307
O30   O     O_R   0.442830 0.082420 0.687650 -0.493481
O31   O     O_R   0.057170 0.582420 0.312350 -0.484335
O32   O     O_R   0.942830 0.582420 0.687650 -0.484677
O33   O     O_R   0.548310 0.285980 0.316250 -0.501686
O34   O     O_R   0.451690 0.285980 0.683750 -0.497994
O35   O     O_R   0.048310 0.785980 0.316250 -0.517863
O36   O     O_R   0.951690 0.785980 0.683750 -0.520189
O37   O     O_R   0.680520 0.375500 0.327470 -0.492404
O38   O     O_R   0.319480 0.375500 0.672530 -0.516350
O39   O     O_R   0.180520 0.875500 0.327470 -0.462268
O40   O     O_R   0.819480 0.875500 0.672530 -0.467786
O41   O     O_R   0.780350 0.286970 0.193350 -0.485480
O42   O     O_R   0.219650 0.286970 0.806650 -0.502489
O43   O     O_R   0.280350 0.786970 0.193350 -0.488990
O44   O     O_R   0.719650 0.786970 0.806650 -0.506780
O45   O     O_R   0.757460 0.036290 0.196640 -0.503704
O46   O     O_R   0.242540 0.036290 0.803360 -0.495704
O47   O     O_R   0.257460 0.536290 0.196640 -0.502258
O48   O     O_R   0.742540 0.536290 0.803360 -0.495043
O49   O     O_R   0.663740 0.920540 0.179290 -0.475586
O50   O     O_R   0.336260 0.920540 0.820710 -0.488440
O51   O     O_R   0.163740 0.420540 0.179290 -0.476158
O52   O     O_R   0.836260 0.420540 0.820710 -0.486540
N1    N     N_3   0.621450 0.360003 0.561289 -0.594913
H17   H     H_    0.580822 0.358522 0.520459 0.242019
H18   H     H_    0.621455 0.277852 0.587934 0.237644
N2    N     N_3   0.372439 0.343427 0.445849 -0.585392
H19   H     H_    0.412452 0.348421 0.487173 0.248096
H20   H     H_    0.369926 0.254359 0.427554 0.236403
N3    N     N_3   0.130561 0.007419 0.535261 -0.550099
H21   H     H_    0.090197 0.990880 0.495296 0.240224
H22   H     H_    0.115577 0.967643 0.579584 0.239362
N4    N     N_3   0.862691 0.024914 0.469664 -0.559898
H23   H     H_    0.904483 0.007826 0.508013 0.249402
H24   H     H_    0.878897 0.996723 0.423280 0.240962
C97   C     C_2   0.877552 0.408573 0.464963 0.681289
O53   O     O_2   0.923358 0.436805 0.511317 -0.463556
O54   O     O_R   0.891914 0.402512 0.396815 -0.611785
H25   H     H_    0.942111 0.421332 0.392769 0.357330
C98   C     C_2   0.120039 0.443121 0.540795 0.658511
O55   O     O_2   0.069542 0.455402 0.497067 -0.476757
O56   O     O_R   0.112988 0.448143 0.611107 -0.630449
H26   H     H_    0.063184 0.459371 0.619340 0.353195
C99   C     C_2   0.369996 0.766125 0.480505 0.619213
O57   O     O_2   0.398726 0.688543 0.518669 -0.501747
O58   O     O_R   0.404060 0.816750 0.428728 -0.653140
H27   H     H_    0.450845 0.778092 0.426325 0.368573
C100  C     C_2   0.641872 0.718552 0.507711 0.578364
O59   O     O_2   0.596270 0.715968 0.457979 -0.496755
O60   O     O_R   0.634230 0.652667 0.567306 -0.645419
H28   H     H_    0.588454 0.607907 0.563311 0.359169
C101  C     C_2   0.844193 0.220439 0.584523 0.610561
O61   O     O_2   0.829507 0.172073 0.637063 -0.518054
O62   O     O_R   0.911525 0.211474 0.568122 -0.636145
H29   H     H_    0.942800 0.160861 0.602853 0.339705
C102  C     C_2   0.142976 0.237217 0.429941 0.608414
O63   O     O_2   0.149527 0.190203 0.374435 -0.514070
O64   O     O_R   0.081582 0.221331 0.458339 -0.626568
H30   H     H_    0.046276 0.170922 0.427677 0.340638
C103  C     C_2   0.261255 0.691421 0.605472 0.555355
O65   O     O_2   0.209738 0.641733 0.621322 -0.514359
O66   O     O_R   0.325863 0.671982 0.644673 -0.652329
H31   H     H_    0.323360 0.614828 0.684971 0.345651
C104  C     C_2   0.758013 0.682899 0.394747 0.553823
O67   O     O_2   0.812299 0.632145 0.387826 -0.506933
O68   O     O_R   0.698270 0.660618 0.348235 -0.649179
H32   H     H_    0.706930 0.602987 0.309895 0.362827
N5    N     N_3   0.559296 0.376410 0.952303 -0.573102
H33   H     H_    0.582927 0.423988 0.995533 0.251057
H34   H     H_    0.598857 0.347677 0.924947 0.226688
N6    N     N_3   0.438845 0.376871 0.047878 -0.571299
H35   H     H_    0.414916 0.424049 0.004573 0.249831
H36   H     H_    0.399438 0.348369 0.075524 0.229143
N7    N     N_3   0.059313 0.876369 0.952293 -0.573155
H37   H     H_    0.082871 0.924026 0.995522 0.251273
H38   H     H_    0.098929 0.847612 0.925015 0.227014
N8    N     N_3   0.938864 0.876891 0.047883 -0.571736
H39   H     H_    0.914947 0.924087 0.004580 0.250199
H40   H     H_    0.899450 0.848403 0.075523 0.229013
N9    N     N_3   0.438319 0.964208 0.048423 -0.595091
H41   H     H_    0.477302 0.915969 0.079015 0.265261
H42   H     H_    0.403373 0.993135 0.081165 0.232468
N10   N     N_3   0.558706 0.963704 0.951820 -0.593582
H43   H     H_    0.518961 0.913726 0.923547 0.264480
H44   H     H_    0.591420 0.992225 0.916744 0.226065
N11   N     N_3   0.938288 0.464238 0.048437 -0.594719
H45   H     H_    0.977269 0.415980 0.079019 0.265349
H46   H     H_    0.903359 0.493190 0.081191 0.233248
N12   N     N_3   0.058669 0.463677 0.951812 -0.593137
H47   H     H_    0.018915 0.413709 0.923546 0.264769
H48   H     H_    0.091377 0.492188 0.916728 0.227675

loop_
_geom_bond_atom_site_label_1
_geom_bond_atom_site_label_2
_ccdc_geom_bond_type
C58   C62   S    
C29   C93   S    
O60   H28   S    
Cr1   O21   S    
C67   C83   S    
C28   C104  S    
C80   O8    A    
Cr4   O48   S    
C17   C29   S    
C100  O59   D    
C14   C18   S    
Cr5   O49   S    
C35   C36   S    
C8    C96   S    
Cr12  O20   S    
O66   H31   S    
C44   C80   S    
C19   C31   S    
N6    H35   S    
C20   H10   S    
C7    C27   S    
Cr8   O52   S    
C38   C49   S    
C47   O35   A    
C101  O61   D    
C10   C22   S    
C81   O13   A    
Cr12  O40   S    
C71   O39   A    
C2    O26   A    
C72   O4    A    
C35   N7    S    
C33   C42   S    
Cr3   O19   S    
C16   C20   S    
N11   H45   S    
C9    C69   S    
Cr12  O12   S    
C52   N12   S    
N3    H22   S    
C15   C95   S    
C35   C39   S    
C11   C71   S    
Cr10  O14   S    
Cr3   O47   S    
C43   C79   S    
C46   O34   A    
C16   H8    S    
C69   O37   A    
C39   H15   S    
N10   H43   S    
C97   O54   S    
C12   C24   S    
Cr5   O25   S    
C57   C61   S    
C76   O48   A    
C9    C13   S    
Cr11  O11   S    
C38   H14   S    
C59   C67   T    
C43   C51   S    
C55   C74   S    
C11   C15   S    
C58   C66   T    
Cr9   O33   S    
C12   C16   S    
N2    H20   S    
C6    C94   S    
C55   C63   T    
C49   N9    S    
C56   C64   T    
C22   C98   S    
C1    O25   A    
C18   C30   S    
C23   C27   S    
C18   C22   S    
N9    H41   S    
Cr6   O30   S    
C4    C29   S    
C98   O55   D    
Cr7   O27   S    
C46   C85   S    
C70   O2    A    
C103  O66   S    
C39   C52   S    
C12   C72   S    
C69   O1    A    
O58   H27   S    
N5    H34   S    
C34   C38   S    
C87   C92   T    
Cr2   O18   S    
N4    H24   S    
C73   O49   A    
C100  O60   S    
C71   O3    A    
C97   O53   D    
C34   C41   S    
C53   C61   T    
C79   O11   A    
C20   C32   S    
C25   C101  S    
C70   O38   A    
C28   C32   S    
C41   C49   S    
C34   N6    S    
C60   C64   S    
C7    C11   S    
Cr3   O43   S    
C101  O62   S    
C25   C29   S    
C4    O28   A    
C102  O63   D    
Cr7   O19   S    
C24   C100  S    
C16   C96   S    
C74   O46   A    
C27   C31   S    
O62   H29   S    
C68   C84   S    
C20   C24   S    
N12   H48   S    
C36   C40   S    
C76   O52   A    
C45   O33   A    
Cr1   O1    S    
C21   C25   S    
Cr4   O20   S    
C89   C90   S    
C91   C92   S    
Cr12  O16   S    
C93   N1    S    
C19   C23   S    
C50   N10   S    
Cr3   O3    S    
Cr2   O22   S    
C98   O56   S    
C104  O67   D    
C103  O65   D    
C83   O43   A    
C1    C32   S    
C33   C37   S    
O54   H25   S    
C13   C93   S    
C2    C31   S    
Cr2   O46   S    
C6    H2    S    
C3    C30   S    
C15   C19   S    
N3    H21   S    
O64   H30   S    
C5    C9    S    
N5    H33   S    
C84   O44   A    
C96   N4    S    
C33   N5    S    
C66   C82   S    
C48   O36   A    
Cr10  O10   S    
C21   C97   S    
N7    H37   S    
C88   C91   T    
Cr5   O29   S    
C77   O9    A    
C8    C12   S    
C79   O7    A    
Cr11  O35   S    
Cr7   O51   S    
C33   C34   S    
C72   O40   A    
C48   C87   S    
N11   H46   S    
C77   O5    A    
Cr8   O32   S    
C40   H16   S    
N8    H40   S    
C35   C44   S    
N9    H42   S    
Cr1   O17   S    
Cr2   O42   S    
C22   C26   S    
C42   C50   S    
C37   H13   S    
C10   C70   S    
C46   O30   A    
Cr7   O31   S    
C32   C96   S    
Cr6   O26   S    
C49   C50   S    
C10   C14   S    
C83   O15   A    
C8    C28   S    
Cr9   O37   S    
C53   C76   S    
C104  O68   S    
C1    O21   A    
Cr11  O19   S    
C9    C21   S    
C18   H12   S    
O68   H32   S    
C19   H9    S    
C7    C95   S    
N2    H19   S    
C42   C78   S    
Cr9   O9    S    
C82   O42   A    
Cr2   O2    S    
N8    H39   S    
C75   O51   A    
Cr3   O23   S    
Cr10  O18   S    
C56   C73   S    
N7    H38   S    
Cr4   O4    S    
Cr5   O17   S    
Cr7   O7    S    
C24   C28   S    
C57   C65   T    
C3    O27   A    
C36   C43   S    
C86   C89   T    
N6    H36   S    
C44   C52   S    
C6    C10   S    
C5    C93   S    
C85   C90   T    
C74   O50   A    
Cr6   O50   S    
Cr12  O36   S    
C14   H6    S    
C2    O22   A    
C40   C51   S    
C54   C62   T    
C23   C99   S    
C75   O47   A    
C59   C63   S    
C80   O12   A    
C13   C17   S    
Cr4   O44   S    
C60   C68   T    
C47   C88   S    
Cr8   O28   S    
C99   O58   S    
C45   C86   S    
C78   O6    A    
Cr1   O45   S    
C51   C52   S    
C30   C94   S    
Cr10  O34   S    
C3    O23   A    
C82   O14   A    
C41   C77   S    
C37   C50   S    
C95   N3    S    
C6    C26   S    
C5    H1    S    
N1    H18   S    
Cr4   O24   S    
C26   C30   S    
C31   C95   S    
N12   H47   S    
C11   C23   S    
C102  O64   S    
C8    H4    S    
N10   H44   S    
C26   C102  S    
C15   H7    S    
Cr10  O38   S    
C37   C41   S    
C99   O57   D    
C48   O32   A    
Cr9   O17   S    
C17   C21   S    
C94   N2    S    
Cr8   O20   S    
C17   H11   S    
Cr9   O13   S    
O56   H26   S    
C78   O10   A    
C38   C42   S    
C40   C44   S    
C45   O29   A    
C84   O16   A    
C36   N8    S    
N1    H17   S    
Cr8   O8    S    
C39   C43   S    
Cr1   O41   S    
C27   C103  S    
C81   O41   A    
C65   C81   S    
Cr6   O6    S    
C51   N11   S    
Cr11  O39   S    
Cr6   O18   S    
N4    H23   S    
C73   O45   A    
C7    H3    S    
C14   C94   S    
Cr11  O15   S    
C13   H5    S    
Cr5   O5    S    
C54   C75   S    
C47   O31   A    
C5    C25   S    
C4    O24   A    
