data_mof_unit_27011.cif
_audit_creation_date              2012-12-11T14:36:16-0500
_audit_creation_method            fapswitch 2.2
_symmetry_space_group_name_H-M    P1
_symmetry_Int_Tables_number       1
_space_group_crystal_system       triclinic
_cell_length_a                    13.553868
_cell_length_b                    13.531718
_cell_length_c                    27.447996
_cell_angle_alpha                 90.689788
_cell_angle_beta                  90.172064
_cell_angle_gamma                 60.030047
_cell_volume                      4360.68563957

loop_
_atom_site_label
_atom_site_type_symbol
_atom_type_description
_atom_site_fract_x
_atom_site_fract_y
_atom_site_fract_z
_atom_type_partial_charge
C1    C     C_R   0.619799 0.101413 0.570303 0.550084
C2    C     C_1   0.628468 0.733785 0.616751 0.025292
C3    C     C_3   0.681945 0.572504 0.770927 -0.138424
C4    C     C_3   0.670464 0.665269 0.807410 0.001531
C5    C     C_3   0.575304 0.662928 0.743531 -0.087022
C6    C     C_3   0.653723 0.687866 0.711576 0.040894
C7    C     C_3   0.563219 0.755285 0.781065 -0.097331
C8    C     C_3   0.641350 0.778532 0.748573 0.102521
C9    C     C_1   0.682247 0.642576 0.859633 0.012806
C10   C     C_1   0.643152 0.707724 0.659029 0.007364
C11   C     C_3   0.099089 0.202573 0.739198 -0.124360
C12   C     C_R   0.599168 0.779987 0.568809 0.546720
C13   C     C_3   0.128381 0.100873 0.772955 0.062106
C14   C     C_1   0.107082 0.194758 0.904070 0.055115
C15   C     C_1   0.248275 0.129806 0.620438 0.030558
C16   C     C_3   0.148464 0.249987 0.777622 0.063994
C17   C     C_3   0.176602 0.149241 0.811374 -0.003792
C18   C     C_3   0.267720 0.183078 0.754287 -0.125967
C19   C     C_3   0.218326 0.134324 0.716495 -0.003291
C20   C     C_3   0.296682 0.080603 0.788395 -0.196725
C21   C     C_3   0.247277 0.032746 0.749577 0.001847
C22   C     C_1   0.144175 0.168941 0.863142 0.033676
C23   C     C_R   0.281245 0.120366 0.570469 0.551751
C24   C     C_1   0.233113 0.132251 0.663675 0.004273
C25   C     C_3   0.606988 0.288702 0.741164 -0.105141
C26   C     C_3   0.541099 0.259135 0.779131 -0.129444
C27   C     C_1   0.687219 0.207994 0.903886 0.036527
C28   C     C_1   0.633103 0.135375 0.618542 0.011701
C29   C     C_3   0.715955 0.222782 0.771877 0.088713
C30   C     C_3   0.650895 0.193388 0.809165 0.009868
C31   C     C_3   0.749529 0.111631 0.743483 -0.081002
C32   C     C_3   0.640051 0.176805 0.713539 0.035776
C33   C     C_3   0.683478 0.082220 0.781117 -0.122410
C34   C     C_R   0.623386 0.100220 0.431488 0.550185
C35   C     C_3   0.573549 0.147497 0.750416 -0.103387
C36   C     C_1   0.665838 0.199769 0.861874 -0.005881
C37   C     C_1   0.637340 0.158137 0.660863 -0.017755
C38   C     C_R   0.734186 0.699704 0.359247 -0.099027
C39   C     C_R   0.749507 0.679675 0.308648 -0.005241
C40   C     C_R   0.765717 0.659264 0.206440 -0.024401
C41   C     C_R   0.861001 0.638143 0.234205 -0.126453
C42   C     C_R   0.854811 0.646851 0.285186 0.061551
C43   C     C_R   0.776603 0.636673 0.156585 -0.148245
C44   C     C_R   0.683878 0.646677 0.129705 0.046090
C45   C     C_R   0.600677 0.777549 0.429920 0.542743
C46   C     C_R   0.541546 0.732630 0.352751 -0.123892
C47   C     C_R   0.550224 0.725807 0.302691 0.006910
C48   C     C_R   0.653756 0.699541 0.280191 0.042761
C49   C     C_R   0.454268 0.750515 0.275030 -0.135964
C50   C     C_R   0.459590 0.749114 0.224697 -0.125813
C51   C     C_R   0.563361 0.716842 0.201171 0.027885
C52   C     C_R   0.660808 0.692789 0.229247 0.038479
C53   C     C_R   0.574314 0.699856 0.150516 0.100548
C54   C     C_R   0.629912 0.727909 0.380989 -0.010593
C55   C     C_R   0.204775 0.062483 0.358836 -0.106731
C56   C     C_R   0.278621 0.120644 0.430772 0.548418
C57   C     C_R   0.175489 0.075219 0.309057 -0.006239
C58   C     C_R   0.148579 0.091210 0.206604 0.006476
C59   C     C_R   0.144768 0.003628 0.232075 -0.131308
C60   C     C_R   0.155593 0.995717 0.282926 0.033375
C61   C     C_R   0.135291 0.100478 0.155459 0.095214
C62   C     C_R   0.115302 0.203067 0.133227 0.008278
C63   C     C_R   0.203973 0.242135 0.358996 -0.101879
C64   C     C_R   0.185869 0.251300 0.309298 0.024205
C65   C     C_R   0.172975 0.167299 0.283832 0.039504
C66   C     C_R   0.186560 0.340666 0.284530 -0.098260
C67   C     C_3   0.760633 0.597525 0.738271 -0.102888
C68   C     C_R   0.172408 0.348865 0.234469 -0.124613
C69   C     C_R   0.158564 0.266962 0.208644 0.005008
C70   C     C_R   0.159868 0.175015 0.233020 0.035098
C71   C     C_R   0.136583 0.280039 0.159178 -0.154244
C72   C     C_R   0.221652 0.144287 0.383373 -0.009554
C73   C     C_R   0.562532 0.233441 0.361768 -0.148320
C74   C     C_R   0.568798 0.250559 0.312019 -0.006831
C75   C     C_R   0.571421 0.277628 0.209844 0.073182
C76   C     C_R   0.486138 0.365313 0.239766 0.108589
C77   C     C_R   0.484049 0.348973 0.289950 -0.127391
C78   C     C_3   0.747510 0.690534 0.775374 0.125710
C79   C     C_R   0.575799 0.287591 0.158381 0.093432
C80   C     C_R   0.671444 0.203242 0.132156 -0.023767
C81   C     C_R   0.748214 0.060288 0.357745 0.044323
C82   C     C_R   0.748148 0.069731 0.306651 -0.005761
C83   C     C_R   0.658310 0.166083 0.283757 0.041000
C84   C     C_R   0.833605 0.983501 0.277718 -0.108823
C85   C     C_R   0.827519 0.989118 0.227547 -0.113074
C86   C     C_R   0.741870 0.086180 0.204232 -0.023235
C87   C     C_R   0.657833 0.177442 0.232571 -0.007907
C88   C     C_R   0.740901 0.095581 0.153409 0.035580
C89   C     C_1   0.694148 0.613128 0.901405 0.036908
C90   C     C_R   0.648398 0.135806 0.384427 -0.018995
C91   C     C_R   0.050282 0.235525 0.950173 0.552520
C92   C     C_R   0.711074 0.563800 0.948600 0.554529
C93   C     C_R   0.721535 0.225327 0.951220 0.557898
C94   C     C_R   0.050747 0.243331 0.087625 0.539229
C95   C     C_R   0.707042 0.577453 0.085355 0.570731
C96   C     C_R   0.716132 0.231701 0.088119 0.549264
Cr1   Cr    Cr6+3 0.417550 0.169090 0.500530 1.043062
Cr2   Cr    Cr6+3 0.669180 0.913420 0.499920 1.081573
Cr3   Cr    Cr6+3 0.413260 0.917540 0.499520 1.062401
Cr4   Cr    Cr6+3 0.909170 0.177380 0.020380 1.095061
Cr5   Cr    Cr6+3 0.912710 0.429210 0.018220 1.047700
Cr6   Cr    Cr6+3 0.657170 0.432570 0.019030 1.060471
H1    H     H_    0.377529 0.030881 0.808634 0.108994
H2    H     H_    0.321154 0.221355 0.745771 0.143541
H3    H     H_    0.455252 0.318842 0.794151 0.151488
H4    H     H_    0.576897 0.373303 0.724426 0.132386
H5    H     H_    0.512943 0.119153 0.739660 0.114397
H6    H     H_    0.715959 0.998034 0.798413 0.170676
H7    H     H_    0.833537 0.050625 0.727555 0.192442
H8    H     H_    0.860227 0.600015 0.139898 0.136320
H9    H     H_    0.841126 0.532551 0.720631 0.152055
H10   H     H_    0.799624 0.700201 0.381654 0.197115
H11   H     H_    0.941962 0.609940 0.216094 0.144364
H12   H     H_    0.382968 0.769091 0.204785 0.129554
H13   H     H_    0.374653 0.772061 0.292550 0.150662
H14   H     H_    0.460355 0.754115 0.369104 0.142369
H15   H     H_    0.222430 0.986101 0.377983 0.170722
H16   H     H_    0.127819 0.943565 0.212685 0.186639
H17   H     H_    0.127306 0.355755 0.141759 0.135470
H18   H     H_    0.171508 0.419654 0.215991 0.119169
H19   H     H_    0.199735 0.403276 0.303886 0.128204
H20   H     H_    0.215086 0.306986 0.377686 0.154011
H21   H     H_    0.487887 0.293687 0.382365 0.133261
H22   H     H_    0.416433 0.415204 0.311924 0.106151
H23   H     H_    0.485617 0.821347 0.799929 0.127863
H24   H     H_    0.893715 0.917349 0.207741 0.181034
H25   H     H_    0.904375 0.908301 0.293013 0.203730
H26   H     H_    0.506113 0.648919 0.729794 0.189064
H27   H     H_    0.690327 0.491438 0.783051 0.171448
H28   H     H_    0.025783 0.249882 0.714695 0.155595
O1    O     O_R   0.301710 0.195650 0.554160 -0.504549
O2    O     O_R   0.658900 0.818120 0.449760 -0.492359
O3    O     O_R   0.503220 0.801620 0.445520 -0.521331
O4    O     O_R   0.319370 0.022040 0.450020 -0.500505
O5    O     O_3   0.499990 0.000010 0.499990 -0.268827
O6    O     O_R   0.818720 0.150820 0.967160 -0.488176
O7    O     O_R   0.006410 0.181720 0.970200 -0.487421
O8    O     O_R   0.027890 0.334070 0.964920 -0.498002
O9    O     O_R   0.809600 0.521790 0.967960 -0.481736
O10   O     O_R   0.635520 0.542770 0.964420 -0.506242
O11   O     O_R   0.665950 0.325030 0.970100 -0.501075
O12   O     O_R   0.522390 0.158990 0.550460 -0.497829
O13   O     O_R   0.816620 0.158530 0.074540 -0.467191
O14   O     O_R   0.004460 0.188870 0.069750 -0.474789
O15   O     O_R   0.025800 0.341780 0.072300 -0.529026
O16   O     O_R   0.807650 0.528950 0.067500 -0.519100
O17   O     O_R   0.633420 0.550490 0.071810 -0.466340
O18   O     O_R   0.664000 0.332180 0.069640 -0.496258
O19   O     O_3   0.826350 0.346390 0.019210 -0.264338
O20   O     O_R   0.694390 0.003530 0.554040 -0.489609
O21   O     O_R   0.657700 0.819660 0.549320 -0.493956
O22   O     O_R   0.501930 0.803280 0.552920 -0.487831
O23   O     O_R   0.318170 0.023580 0.549580 -0.478718
O24   O     O_R   0.303010 0.193990 0.446760 -0.516802
O25   O     O_R   0.523600 0.157450 0.450900 -0.507907
O26   O     O_R   0.695690 0.001860 0.446640 -0.476705
C97   C     C_2   0.839470 0.712717 0.792671 0.617711
O27   O     O_2   0.930268 0.670025 0.770898 -0.492604
O28   O     O_R   0.819984 0.783903 0.833087 -0.717759
H29   H     H_    0.887892 0.793436 0.841008 0.339631
C98   C     C_2   0.095172 0.371699 0.794373 0.588141
O29   O     O_2   0.998364 0.420271 0.810863 -0.510538
O30   O     O_R   0.158057 0.427719 0.792284 -0.686092
H30   H     H_    0.116277 0.506969 0.807354 0.375004
C99   C     C_2   0.793050 0.269162 0.782440 0.569115
O31   O     O_2   0.817789 0.278927 0.824392 -0.494354
O32   O     O_R   0.831735 0.306710 0.743883 -0.724299
H31   H     H_    0.870371 0.349747 0.756050 0.337183
C100  C     C_2   0.961834 0.614064 0.312042 0.581942
O33   O     O_2   0.982397 0.561857 0.350243 -0.527776
O34   O     O_R   0.042463 0.637599 0.292083 -0.714975
H32   H     H_    0.113168 0.607993 0.312991 0.323822
N1    N     N_3   0.477072 0.728871 0.120228 -0.601320
H33   H     H_    0.418306 0.815617 0.125072 0.216519
H34   H     H_    0.439828 0.680805 0.130663 0.254848
N2    N     N_3   0.139024 0.008401 0.126870 -0.555979
H35   H     H_    0.166849 0.010758 0.091667 0.232528
H36   H     H_    0.206213 0.931635 0.139602 0.203347
N3    N     N_3   0.617379 0.892253 0.736302 -0.616166
H37   H     H_    0.590692 0.938894 0.768855 0.217777
H38   H     H_    0.546462 0.927226 0.713383 0.238924
C101  C     C_2   0.141125 0.905719 0.306806 0.533823
O35   O     O_2   0.100043 0.920945 0.347648 -0.506031
O36   O     O_R   0.170411 0.804522 0.281435 -0.729229
H39   H     H_    0.160065 0.748735 0.301937 0.355425
N4    N     N_3   0.480800 0.377629 0.132857 -0.551632
H40   H     H_    0.408702 0.372546 0.142159 0.234831
H41   H     H_    0.487384 0.360581 0.095483 0.231599
N5    N     N_3   0.403514 0.473301 0.220303 -0.595806
H42   H     H_    0.412784 0.537139 0.237924 0.248888
H43   H     H_    0.322347 0.486850 0.228515 0.227564
C102  C     C_2   0.808492 0.993589 0.121561 0.592938
O37   O     O_2   0.912537 0.940495 0.123624 -0.503342
O38   O     O_R   0.751928 0.963288 0.087070 -0.697681
H44   H     H_    0.806126 0.894127 0.066807 0.340322
C103  C     C_2   0.851535 0.973224 0.383474 0.628929
O39   O     O_2   0.887369 0.871447 0.376379 -0.508683
O40   O     O_R   0.902861 0.008963 0.418313 -0.648887
H45   H     H_    0.970334 0.942660 0.434571 0.358953
C104  C     C_2   0.054148 0.050178 0.782003 0.599338
O41   O     O_2   0.028645 0.008706 0.747898 -0.504244
O42   O     O_R   0.017235 0.047447 0.829167 -0.672214
H46   H     H_    0.967456 0.011188 0.830300 0.340167
C105  C     C_2   0.299486 0.910166 0.733291 0.594255
O43   O     O_2   0.336065 0.882564 0.691831 -0.469126
O44   O     O_R   0.304755 0.827323 0.764779 -0.668723
H47   H     H_    0.275116 0.858685 0.798612 0.304208

loop_
_geom_bond_atom_site_label_1
_geom_bond_atom_site_label_2
_ccdc_geom_bond_type
C66   C68   A    
O34   H32   S    
C4    C9    S    
C41   C42   A    
C99   O31   D    
C13   C104  S    
C3    H27   S    
C73   C74   A    
C12   O22   A    
C83   C87   A    
O30   H30   S    
C12   O21   A    
C74   C83   A    
C43   C44   A    
C93   O6    A    
C2    C12   S    
C98   O29   D    
Cr5   O9    S    
C53   N1    S    
C7    C8    S    
C47   C49   A    
C20   H1    S    
C34   O25   A    
C67   C78   S    
C11   C19   S    
C97   O27   D    
C43   H8    S    
C19   C21   S    
C73   C90   A    
C15   C24   T    
Cr2   O20   S    
C5    C6    S    
C86   C88   A    
C65   C70   A    
C17   C20   S    
O36   H39   S    
Cr3   O3    S    
C25   C29   S    
N5    H43   S    
C18   C19   S    
C100  O33   D    
C29   C99   S    
C46   H14   S    
C69   C71   A    
C23   O23   A    
C101  O35   D    
C76   N5    S    
Cr6   O18   S    
C91   O7    A    
C44   C53   A    
C40   C43   A    
O28   H29   S    
C104  O41   D    
C56   C72   S    
C74   C77   A    
C30   C36   S    
C1    C28   S    
C31   C33   S    
O40   H45   S    
C1    O12   A    
Cr6   O11   S    
C80   C96   S    
C94   O15   A    
C55   C72   A    
C58   C61   A    
C15   C23   S    
O38   H44   S    
C59   C60   A    
C97   O28   S    
N1    H33   S    
C8    C78   S    
C100  O34   S    
C21   C105  S    
C85   H24   S    
C69   C70   A    
C95   O16   A    
C4    C7    S    
C26   H3    S    
C98   O30   S    
C25   H4    S    
C81   C82   A    
C39   C42   A    
Cr2   O21   S    
N1    H34   S    
C60   C101  S    
C96   O18   A    
Cr2   O26   S    
Cr5   O16   S    
O42   H46   S    
C23   O1    A    
C51   C52   A    
C32   C35   S    
C95   O17   A    
C84   C85   A    
Cr1   O1    S    
C56   O24   A    
Cr4   O14   S    
C9    C89   T    
O32   H31   S    
C5    C7    S    
O44   H47   S    
C16   C17   S    
C57   C60   A    
C6    C8    S    
Cr6   O19   S    
C73   H21   S    
C58   C59   A    
C85   C86   A    
Cr2   O5    S    
C7    H23   S    
C63   C64   A    
Cr3   O4    S    
Cr1   O12   S    
C51   C53   A    
C102  O38   S    
C75   C76   A    
C34   C90   S    
C4    C78   S    
C29   C30   S    
C42   C100  S    
Cr6   O17   S    
C91   O8    A    
C11   C16   S    
C78   C97   S    
C47   C48   A    
C38   C54   A    
C29   C31   S    
Cr5   O15   S    
C46   C54   A    
C50   C51   A    
C31   H7    S    
C66   H19   S    
Cr3   O5    S    
C1    O20   A    
C16   C18   S    
Cr6   O10   S    
C32   C37   S    
C76   C77   A    
C89   C92   S    
N3    H37   S    
C33   H6    S    
C81   C90   A    
C75   C87   A    
N2    H35   S    
C49   H13   S    
C105  O44   S    
C45   C54   S    
C26   C30   S    
C59   H16   S    
C82   C84   A    
C71   H17   S    
C55   C57   A    
C16   C98   S    
C49   C50   A    
C27   C93   S    
C75   C79   A    
Cr1   O5    S    
N4    H41   S    
C3    C4    S    
C92   O10   A    
C11   H28   S    
C6    C67   S    
C63   H20   S    
C93   O11   A    
C55   H15   S    
C67   H9    S    
N5    H42   S    
C88   C102  S    
C46   C47   A    
C40   C41   A    
C30   C33   S    
C20   C21   S    
C86   C87   A    
C68   C69   A    
C31   C32   S    
C58   C70   A    
C18   H2    S    
C57   C65   A    
C103  O39   D    
C3    C5    S    
Cr4   O13   S    
Cr1   O24   S    
C6    C10   S    
C56   O4    A    
Cr5   O8    S    
C61   N2    S    
C34   O26   A    
Cr4   O19   S    
Cr3   O22   S    
C45   O3    A    
C17   C22   S    
C13   C17   S    
C27   C36   T    
C94   O14   A    
C102  O37   D    
C14   C22   T    
C62   C94   S    
C19   C24   S    
C25   C26   S    
C41   H11   S    
C80   C88   A    
C44   C95   S    
C40   C52   A    
C13   C21   S    
C96   O13   A    
C11   C13   S    
C8    N3    S    
C38   C39   A    
C3    C67   S    
C28   C37   T    
C84   H25   S    
Cr3   O23   S    
C5    H26   S    
Cr5   O19   S    
C63   C72   A    
C33   C35   S    
C62   C71   A    
C18   C20   S    
Cr1   O25   S    
C61   C62   A    
C101  O36   S    
C14   C91   S    
C103  O40   S    
C35   H5    S    
Cr4   O7    S    
C64   C65   A    
C79   N4    S    
C79   C80   A    
C26   C35   S    
C48   C52   A    
C105  O43   D    
C45   O2    A    
C99   O32   S    
C82   C83   A    
Cr2   O2    S    
C77   H22   S    
C39   C48   A    
N3    H38   S    
C50   H12   S    
N4    H40   S    
C92   O9    A    
C38   H10   S    
C104  O42   S    
C68   H18   S    
Cr4   O6    S    
C64   C66   A    
N2    H36   S    
C81   C103  S    
C25   C32   S    
C2    C10   T    
