data_mof_unit_68332.cif
_audit_creation_date              2012-12-10T19:48:33-0500
_audit_creation_method            fapswitch 2.2
_symmetry_space_group_name_H-M    P1
_symmetry_Int_Tables_number       1
_space_group_crystal_system       triclinic
_cell_length_a                    11.254693
_cell_length_b                    10.689487
_cell_length_c                    10.045402
_cell_angle_alpha                 90.347955
_cell_angle_beta                  88.447853
_cell_angle_gamma                 92.021171
_cell_volume                      1207.32025507

loop_
_atom_site_label
_atom_site_type_symbol
_atom_type_description
_atom_site_fract_x
_atom_site_fract_y
_atom_site_fract_z
_atom_type_partial_charge
C1    C     C_R   0.500069 0.261224 0.499755 0.781207
C2    C     C_3   0.408834 0.037252 0.430124 -0.113559
C3    C     C_3   0.502668 0.877350 0.498841 -0.007808
C4    C     C_3   0.500818 0.122758 0.499463 -0.011234
C5    C     C_3   0.400359 0.954014 0.555646 -0.136828
C6    C     C_3   0.603311 0.046173 0.442070 -0.159521
C7    C     C_3   0.503777 0.609498 0.052701 -0.140160
C8    C     C_3   0.493709 0.390387 0.951207 -0.107404
C9    C     C_3   0.408796 0.559306 0.952934 -0.100095
C10   C     C_3   0.589453 0.448045 0.045390 -0.089602
C11   C     C_3   0.593286 0.561108 0.944498 0.404413
C12   C     C_R   0.501231 0.738799 0.499980 0.788980
C13   C     C_3   0.401580 0.448578 0.054437 0.389806
C14   C     C_R   0.262101 0.484602 0.501011 0.771630
C15   C     C_R   0.735457 0.494239 0.498851 0.764104
C16   C     C_R   0.163859 0.522950 0.050653 -0.096732
C17   C     C_R   0.886156 0.573783 0.955882 -0.106767
C18   C     C_R   0.154600 0.505801 0.219455 0.084490
C19   C     C_R   0.875304 0.525255 0.828593 -0.112201
C20   C     C_R   0.116103 0.358320 0.291117 0.204010
C21   C     C_R   0.913755 0.595407 0.718142 0.109436
C22   C     C_R   0.090379 0.221379 0.188102 0.183480
C23   C     C_R   0.867805 0.474489 0.498669 -0.047161
C24   C     C_R   0.968025 0.715833 0.737261 -0.008474
C25   C     C_R   0.099642 0.238170 0.007929 0.184095
C26   C     C_R   0.994979 0.757134 0.868657 -0.079969
C27   C     C_R   0.141507 0.391856 0.942630 0.149698
C28   C     C_R   0.945966 0.688250 0.979052 0.000195
C29   C     C_R   0.926762 0.393478 0.406535 -0.174220
C30   C     C_R   0.049393 0.470317 0.610203 -0.166152
C31   C     C_2   0.180443 0.421933 0.819594 0.797081
C32   C     C_2   0.939469 0.738927 0.117823 0.940159
C33   C     C_2   0.351189 0.681157 0.919266 0.939123
C34   C     C_R   0.123254 0.449889 0.503664 -0.064095
C35   C     C_2   0.679323 0.355830 0.084886 0.830823
C36   C     C_2   0.051727 0.104628 0.253135 0.853080
C37   C     C_2   0.991210 0.799382 0.620741 0.891292
C38   C     C_2   0.038984 0.148083 0.919999 0.810284
C39   C     C_2   0.089990 0.855956 0.889263 0.882031
C40   C     C_R   0.942359 0.524698 0.597647 0.002073
C41   C     C_R   0.055372 0.382854 0.409554 -0.030234
C42   C     C_3   0.492291 0.041300 0.625253 -0.114854
C43   C     C_3   0.511216 0.958640 0.372815 -0.103274
C44   C     C_3   0.594889 0.962835 0.567813 -0.137632
Cu1   Cu    Cu3+1 0.500030 0.499990 0.643150 1.087891
Cu2   Cu    Cu3+1 0.499970 0.500010 0.356850 1.069223
H1    H     H_    0.509504 0.702488 0.103816 0.224992
H2    H     H_    0.332139 0.069400 0.374033 0.212012
H3    H     H_    0.483873 0.076554 0.729158 0.169273
H4    H     H_    0.519065 0.923328 0.268867 0.188091
H5    H     H_    0.316886 0.912142 0.598903 0.211297
H6    H     H_    0.686660 0.086053 0.395270 0.199118
H7    H     H_    0.183175 0.604781 0.714594 0.370932
H8    H     H_    0.891994 0.881526 0.236997 0.353964
H9    H     H_    0.322940 0.855082 0.989349 0.374325
H10   H     H_    0.803925 0.236590 0.025976 0.370544
H11   H     H_    0.588447 0.905230 0.869012 0.369048
H12   H     H_    0.495503 0.293606 0.910477 0.197007
H13   H     H_    0.971206 0.447475 0.161762 0.352093
H14   H     H_    0.094752 0.929618 0.302464 0.356136
H15   H     H_    0.982846 0.973611 0.546586 0.365774
H16   H     H_    0.902964 0.022016 0.900329 0.371327
H17   H     H_    0.223030 0.966200 0.810760 0.348237
H18   H     H_    0.162634 0.616797 0.016217 0.169124
H19   H     H_    0.842510 0.524595 0.037161 0.150461
H20   H     H_    0.151262 0.590799 0.278508 0.166703
H21   H     H_    0.837375 0.432060 0.814549 0.187980
H22   H     H_    0.876211 0.346277 0.330146 0.204143
H23   H     H_    0.026513 0.382959 0.661556 0.188686
H24   H     H_    0.671919 0.930990 0.623628 0.202654
N1    N     N_3   0.500090 0.499970 0.858290 -0.226502
N2    N     N_3   0.499910 0.500030 0.141710 -0.222299
O1    O     O_R   0.500060 0.316850 0.620870 -0.585532
O2    O     O_R   0.174347 0.552168 0.797315 -0.821581
O3    O     O_2   0.945146 0.669073 0.212993 -0.647578
O4    O     O_R   0.911506 0.863660 0.139815 -0.641782
O5    O     O_2   0.345118 0.714514 0.804087 -0.512845
O6    O     O_R   0.322748 0.765589 0.021715 -0.777751
O7    O     O_2   0.686048 0.324179 0.200579 -0.553076
O8    O     O_R   0.747951 0.297568 0.986787 -0.804013
O9    O     O_2   0.726123 0.773055 0.996931 -0.337892
O10   O     O_2   0.715582 0.714051 0.759766 -0.306355
O11   O     O_3   0.545545 0.822712 0.871167 -0.532314
O12   O     O_R   0.499940 0.683150 0.379130 -0.598717
O13   O     O_2   0.310314 0.226475 0.033300 -0.383828
O14   O     O_2   0.319114 0.296545 0.250149 -0.325519
O15   O     O_3   0.027076 0.391313 0.112256 -0.795235
O16   O     O_2   0.961815 0.101375 0.324015 -0.637205
O17   O     O_R   0.124191 0.001534 0.243650 -0.689628
O18   O     O_2   0.034081 0.759135 0.516545 -0.613483
O19   O     O_R   0.961987 0.925170 0.630835 -0.716424
O20   O     O_2   0.061032 0.149131 0.800347 -0.549494
O21   O     O_R   0.946797 0.070779 0.971885 -0.719106
O22   O     O_2   0.112329 0.892875 0.001123 -0.535206
O23   O     O_R   0.500000 0.316860 0.379090 -0.479593
O24   O     O_R   0.160349 0.901659 0.782448 -0.738478
O25   O     O_R   0.500000 0.683140 0.620910 -0.463558
O26   O     O_R   0.319670 0.500010 0.620890 -0.517823
O27   O     O_R   0.680330 0.499990 0.379110 -0.539068
O28   O     O_R   0.319620 0.500010 0.379110 -0.563712
O29   O     O_R   0.680380 0.499990 0.620890 -0.560216
O30   O     O_2   0.218535 0.341877 0.744056 -0.546614
S1    S     S_3+6 0.650472 0.717196 0.890791 -0.015238
S2    S     S_3+6 0.275534 0.338324 0.117942 -0.156884

loop_
_geom_bond_atom_site_label_1
_geom_bond_atom_site_label_2
_ccdc_geom_bond_type
C36   O17   S    
Cu2   O27   S    
C8    C13   S    
Cu1   N1    S    
H7    O2    S    
C5    C42   S    
O14   S2    D    
C32   O3    D    
C20   C41   S    
H14   O17   S    
C36   O16   D    
C7    C11   S    
C3    C43   S    
O11   S1    S    
C37   O18   D    
C23   C29   A    
C19   C21   A    
C24   C26   A    
Cu1   O26   S    
C11   N1    S    
C26   C39   S    
C23   C40   A    
C38   O20   D    
C35   O8    S    
C12   O12   A    
Cu1   O1    S    
C9    C13   S    
C3    C12   S    
C8    H12   S    
Cu2   O23   S    
C22   C25   A    
O10   S1    D    
H11   O11   S    
C44   H24   S    
C10   C35   S    
Cu2   N2    S    
C16   C27   A    
C15   C23   S    
C6    C44   S    
C9    C33   S    
C34   C41   A    
C42   C44   S    
C14   O26   A    
C3    C44   S    
C30   C34   A    
C27   C31   S    
C31   O30   D    
C28   C32   S    
C4    C6    S    
C7    N2    S    
H9    O6    S    
C37   O19   S    
C31   O2    S    
C2    H2    S    
Cu1   Cu2   S    
H17   O24   S    
C7    H1    S    
C2    C4    S    
C39   O22   D    
C14   C34   S    
C25   C38   S    
C29   H22   S    
C2    C43   S    
C1    O23   A    
C24   C37   S    
C30   C40   A    
C15   O29   A    
C13   S2    S    
C19   H21   S    
C12   O25   A    
O13   S2    D    
Cu1   O29   S    
Cu2   O12   S    
C16   C18   A    
C20   C22   A    
C6    C43   S    
H8    O4    S    
C21   C24   A    
C2    C5    S    
C18   H20   S    
C30   H23   S    
O9    S1    D    
C7    C9    S    
Cu2   O28   S    
C8    N1    S    
C29   C41   A    
C17   C28   A    
C17   H19   S    
C9    N1    S    
C15   O27   A    
C3    C5    S    
C32   O4    S    
C43   H4    S    
C14   O28   A    
C13   N2    S    
C25   C27   A    
C22   C36   S    
C26   C28   A    
H10   O8    S    
C1    C4    S    
C1    O1    A    
Cu1   O25   S    
C33   O5    D    
C21   C40   S    
C4    C42   S    
C38   O21   S    
C35   O7    D    
C17   C19   A    
C18   C20   A    
C33   O6    S    
H13   O15   S    
C39   O24   S    
C10   C11   S    
C42   H3    S    
O15   S2    S    
C8    C10   S    
H16   O21   S    
C5    H5    S    
C11   S1    S    
C16   H18   S    
C6    H6    S    
H15   O19   S    
C10   N2    S    
