data_mof_unit_15217.cif
_audit_creation_date              2012-12-10T16:49:24-0500
_audit_creation_method            fapswitch 2.2
_symmetry_space_group_name_H-M    P1
_symmetry_Int_Tables_number       1
_space_group_crystal_system       triclinic
_cell_length_a                    19.433062
_cell_length_b                    8.916844
_cell_length_c                    7.443655
_cell_angle_alpha                 101.792901
_cell_angle_beta                  94.672433
_cell_angle_gamma                 93.890713
_cell_volume                      1253.69806517

loop_
_atom_site_label
_atom_site_type_symbol
_atom_type_description
_atom_site_fract_x
_atom_site_fract_y
_atom_site_fract_z
_atom_type_partial_charge
C1    C     C_R   0.492699 0.200232 0.455489 0.861735
C2    C     C_R   0.496679 0.797940 0.545676 0.834644
C3    C     C_2   0.476846 0.033596 0.432841 -0.134224
C4    C     C_2   0.491687 0.963509 0.576323 -0.143926
C5    C     C_R   0.366694 0.493118 0.500373 0.786079
C6    C     C_R   0.632724 0.511086 0.500059 0.813616
C7    C     C_R   0.262812 0.574315 0.664651 0.475244
C8    C     C_R   0.740813 0.444860 0.351045 0.463258
C9    C     C_R   0.192238 0.599808 0.664598 -0.259702
C10   C     C_R   0.812768 0.441660 0.360404 -0.248553
C11   C     C_R   0.146447 0.543295 0.506936 -0.047944
C12   C     C_R   0.855087 0.524701 0.514325 -0.051726
C13   C     C_R   0.172017 0.462092 0.349538 -0.183064
C14   C     C_R   0.824638 0.611412 0.659914 -0.180584
C15   C     C_R   0.241032 0.427246 0.350165 0.026110
C16   C     C_R   0.752881 0.623836 0.649491 0.034345
C17   C     C_R   0.289547 0.496160 0.503766 -0.165764
C18   C     C_R   0.709423 0.527725 0.500698 -0.182577
C19   C     C_R   0.931080 0.531976 0.514911 0.445640
C20   C     C_R   0.070812 0.549335 0.509509 0.444577
Cu1   Cu    Cu3+1 0.507710 0.517380 0.684380 0.930062
Cu2   Cu    Cu3+1 0.492290 0.482620 0.315620 0.916496
H1    H     H_    0.173441 0.662011 0.789175 0.166929
H2    H     H_    0.835273 0.375206 0.244563 0.169546
H3    H     H_    0.136476 0.410242 0.229635 0.176736
H4    H     H_    0.857453 0.679382 0.776463 0.178229
H5    H     H_    0.443071 0.385210 0.950225 0.206352
H6    H     H_    0.555758 0.617752 0.050505 0.213617
N1    N     N_R   0.028216 0.487015 0.354736 -0.245733
N2    N     N_R   0.973471 0.596329 0.669904 -0.241897
N3    N     N_R   0.959889 0.478761 0.357136 -0.243225
N4    N     N_R   0.042103 0.604138 0.667589 -0.241639
N5    N     N_2   0.480680 0.456420 0.038530 -0.224845
N6    N     N_2   0.519320 0.543580 0.961470 -0.217647
O1    O     O_R   0.505010 0.286130 0.619770 -0.602890
O2    O     O_R   0.494990 0.713870 0.380230 -0.608868
O3    O     O_R   0.491990 0.256780 0.308370 -0.601860
O4    O     O_R   0.508010 0.743220 0.691630 -0.585326
O5    O     O_R   0.406650 0.514660 0.655750 -0.532499
O6    O     O_R   0.593350 0.485340 0.344250 -0.540588
O7    O     O_R   0.393640 0.485310 0.344340 -0.619087
O8    O     O_R   0.606360 0.514690 0.655660 -0.609574
O9    O     O_3   0.306655 0.631243 0.821606 -0.594263
C21   C     C_3   0.296652 0.538216 0.949924 -0.331358
H7    H     H_    0.335328 0.580180 0.070520 0.222867
H8    H     H_    0.305295 0.416467 0.891250 0.148996
H9    H     H_    0.244490 0.547990 0.000189 0.158954
O10   O     O_3   0.701289 0.366616 0.193401 -0.593307
C22   C     C_3   0.703574 0.458600 0.060443 -0.284906
H10   H     H_    0.685792 0.574105 0.113250 0.143335
H11   H     H_    0.667851 0.403687 0.938267 0.204367
H12   H     H_    0.756336 0.469335 0.014037 0.155864
C23   C     C_3   0.253194 0.288956 0.205642 -0.417222
C24   C     C_3   0.218167 0.140264 0.249963 -0.333350
C25   C     C_3   0.166297 0.052113 0.091991 -0.817331
H13   H     H_    0.122970 0.123075 0.068514 0.257220
H14   H     H_    0.191655 0.021456 0.962835 0.249315
H15   H     H_    0.144726 0.944534 0.127579 0.246710
H16   H     H_    0.257084 0.062614 0.282118 0.207624
H17   H     H_    0.189963 0.166360 0.375400 0.228516
H18   H     H_    0.230434 0.303714 0.069419 0.196619
H19   H     H_    0.308542 0.281476 0.190734 0.189334
C26   C     C_3   0.726961 0.752176 0.788542 -0.390096
C27   C     C_3   0.765804 0.911103 0.792348 -0.355730
C28   C     C_3   0.809706 0.976278 0.975381 -0.807609
H20   H     H_    0.776972 0.987117 0.092048 0.246888
H21   H     H_    0.851235 0.900937 0.998315 0.250805
H22   H     H_    0.834160 0.092094 0.973397 0.247742
H23   H     H_    0.799525 0.905799 0.677878 0.228986
H24   H     H_    0.728332 0.995282 0.770892 0.205180
H25   H     H_    0.671041 0.762070 0.757255 0.188131
H26   H     H_    0.733311 0.723748 0.926598 0.196687
C29   C     C_3   0.440525 0.942683 0.246290 -0.363046
C30   C     C_3   0.392941 0.037066 0.147063 -0.433631
C31   C     C_3   0.341669 0.940803 0.998026 -0.794295
H27   H     H_    0.370826 0.872969 0.892552 0.300912
H28   H     H_    0.306064 0.867063 0.059117 0.290785
H29   H     H_    0.310832 0.017274 0.929647 0.229298
H30   H     H_    0.365645 0.106002 0.253910 0.218583
H31   H     H_    0.422217 0.113301 0.075378 0.244726
H32   H     H_    0.479641 0.895085 0.154940 0.212602
H33   H     H_    0.405825 0.846423 0.271655 0.229115
C32   C     C_3   0.509474 0.045824 0.778614 -0.347896
C33   C     C_3   0.588140 0.074225 0.824420 -0.322812
C34   C     C_3   0.609882 0.071717 0.025143 -0.768786
H34   H     H_    0.587750 0.165744 0.117779 0.305573
H35   H     H_    0.592576 0.959369 0.056356 0.220170
H36   H     H_    0.667060 0.087268 0.050552 0.272055
H37   H     H_    0.613625 0.983030 0.736405 0.191659
H38   H     H_    0.606582 0.185223 0.792991 0.231841
H39   H     H_    0.481755 0.148319 0.823910 0.195097
H40   H     H_    0.488249 0.973127 0.868343 0.209609

loop_
_geom_bond_atom_site_label_1
_geom_bond_atom_site_label_2
_ccdc_geom_bond_type
C25   H13   S    
C29   C30   S    
C31   H27   S    
C19   N3    A    
C22   H11   S    
C24   H17   S    
C23   C24   S    
H5    N5    S    
C32   H40   S    
C15   C23   S    
Cu2   O7    S    
C5    C17   S    
C7    C9    A    
Cu2   N5    S    
C23   H18   S    
Cu1   O4    S    
C28   H21   S    
C16   C26   S    
C7    O9    S    
C21   H9    S    
C1    O3    A    
C20   N1    A    
C28   H22   S    
H6    N6    S    
C30   H31   S    
Cu1   Cu2   S    
C13   H3    S    
C33   H38   S    
C29   H32   S    
C21   H8    S    
C24   H16   S    
C34   H35   S    
C6    C18   S    
C11   C20   S    
C30   C31   S    
C33   C34   S    
C9    H1    S    
Cu1   N6    S    
C10   H2    S    
C34   H34   S    
Cu2   O3    S    
C8    C18   A    
Cu1   O8    S    
C1    C3    S    
C2    C4    S    
O9    C21   S    
C8    O10   S    
C9    C11   A    
C23   H19   S    
C2    O4    A    
C32   C33   S    
Cu1   O5    S    
C22   H12   S    
Cu2   O6    S    
N5    N6    D    
C27   H23   S    
C14   H4    S    
C31   H28   S    
C10   C12   A    
C8    C10   A    
O10   C22   S    
C26   H25   S    
C28   H20   S    
C27   H24   S    
C30   H30   S    
C13   C15   A    
C6    O6    A    
C33   H37   S    
C3    C4    D    
C29   H33   S    
C32   H39   S    
C21   H7    S    
C1    O1    A    
C20   N4    A    
C34   H36   S    
C2    O2    A    
C15   C17   A    
C5    O5    A    
C5    O7    A    
C24   C25   S    
C12   C14   A    
C7    C17   A    
Cu1   O1    S    
Cu2   O2    S    
C27   C28   S    
C25   H14   S    
N1    N3    A    
N2    N4    A    
C11   C13   A    
C4    C32   S    
C12   C19   S    
C14   C16   A    
C3    C29   S    
C31   H29   S    
C26   C27   S    
C26   H26   S    
C16   C18   A    
C22   H10   S    
C6    O8    A    
C25   H15   S    
C19   N2    A    
