data_mof_unit_44692.cif
_audit_creation_date              2012-12-10T20:31:06-0500
_audit_creation_method            fapswitch 2.2
_symmetry_space_group_name_H-M    P1
_symmetry_Int_Tables_number       1
_space_group_crystal_system       triclinic
_cell_length_a                    14.914302
_cell_length_b                    10.726007
_cell_length_c                    9.890252
_cell_angle_alpha                 89.376246
_cell_angle_beta                  89.19223
_cell_angle_gamma                 90.256908
_cell_volume                      1581.8845964

loop_
_atom_site_label
_atom_site_type_symbol
_atom_type_description
_atom_site_fract_x
_atom_site_fract_y
_atom_site_fract_z
_atom_type_partial_charge
Br1   Br    Br    0.420527 0.867547 0.218315 -0.384237
Br2   Br    Br    0.378937 0.122236 0.788091 -0.431997
Br3   Br    Br    0.647629 0.672715 0.151805 -0.462996
Br4   Br    Br    0.306329 0.625159 0.883425 -0.453624
Br5   Br    Br    0.097540 0.246035 0.169760 -0.406657
Br6   Br    Br    0.253254 0.249154 0.389823 -0.430906
C1    C     C_R   0.498368 0.260450 0.500575 0.931646
C2    C     C_R   0.187295 0.400138 0.428300 0.234761
C3    C     C_R   0.231554 0.493118 0.500758 -0.134080
C4    C     C_R   0.327072 0.497822 0.500704 0.952364
C5    C     C_R   0.185649 0.585067 0.570164 -0.237123
C6    C     C_R   0.528620 0.061648 0.610346 0.014610
C7    C     C_R   0.498122 0.128744 0.499493 -0.098051
C8    C     C_R   0.473424 0.067644 0.381381 -0.187281
C9    C     C_R   0.471106 0.939279 0.378483 0.288212
C10   C     C_R   0.497664 0.871855 0.494961 -0.143367
C11   C     C_R   0.530504 0.934534 0.606877 -0.012285
C12   C     C_R   0.907120 0.583454 0.577558 0.130308
C13   C     C_3   0.504909 0.921746 0.753261 -0.387886
C14   C     C_3   0.500698 0.063013 0.756575 0.134989
C15   C     C_R   0.439446 0.428620 0.073701 0.098676
C16   C     C_R   0.496984 0.739688 0.498838 0.917749
C17   C     C_R   0.562619 0.565424 0.068319 0.334087
C18   C     C_R   0.563363 0.563110 0.925077 -0.134489
C19   C     C_R   0.437280 0.433120 0.931221 0.167271
C20   C     C_3   0.338149 0.454918 0.933382 0.085903
C21   C     C_3   0.340191 0.440000 0.085631 -0.435129
C22   C     C_R   0.673029 0.500339 0.499077 0.885868
C23   C     C_R   0.952235 0.340605 0.319179 -0.241604
C24   C     C_R   0.814286 0.581262 0.581191 -0.234858
C25   C     C_R   0.768535 0.500835 0.496520 -0.044023
C26   C     C_R   0.813563 0.421902 0.407986 -0.202143
C27   C     C_R   0.906399 0.419815 0.406561 0.061456
C28   C     C_R   0.953649 0.500480 0.491610 0.083555
C29   C     C_R   0.045448 0.336022 0.318475 0.323398
C30   C     C_R   0.094138 0.409666 0.411054 -0.024755
C31   C     C_R   0.047117 0.498090 0.491286 -0.020798
C32   C     C_R   0.093350 0.584191 0.572379 0.134365
C33   C     C_R   0.046887 0.668978 0.653650 -0.139122
C34   C     C_R   0.953910 0.667300 0.657840 -0.195595
H1    H     H_    0.552266 0.105604 0.821942 0.131973
H2    H     H_    0.560434 0.882776 0.814267 0.188803
H3    H     H_    0.776119 0.360641 0.342572 0.153542
H4    H     H_    0.308563 0.351608 0.121603 0.241254
H5    H     H_    0.915362 0.283817 0.248731 0.184648
H6    H     H_    0.918636 0.731883 0.722955 0.164085
H7    H     H_    0.613113 0.616499 0.868347 0.164800
H8    H     H_    0.299568 0.380591 0.882359 0.193506
H9    H     H_    0.318462 0.524079 0.141710 0.260685
H10   H     H_    0.222132 0.656256 0.623895 0.198058
H11   H     H_    0.082535 0.735009 0.715619 0.183948
H12   H     H_    0.451014 0.119355 0.293434 0.212405
H13   H     H_    0.777462 0.643403 0.647484 0.149117
H14   H     H_    0.439135 0.874195 0.769395 0.265952
N1    N     N_R   0.499390 0.499140 0.142800 -0.120389
N2    N     N_R   0.499390 0.499180 0.857150 -0.114645
O1    O     O_R   0.500010 0.316790 0.614690 -0.603038
O2    O     O_R   0.500000 0.316760 0.385350 -0.629756
O3    O     O_R   0.367850 0.499990 0.614680 -0.585393
O4    O     O_R   0.367840 0.499950 0.385340 -0.611936
O5    O     O_R   0.500000 0.683240 0.614650 -0.618257
O6    O     O_R   0.499990 0.683210 0.385310 -0.553306
O7    O     O_R   0.632160 0.500050 0.614660 -0.638230
O8    O     O_R   0.632150 0.500010 0.385320 -0.585490
Zn1   Zn    Zn3+2 0.500010 0.500020 0.653130 0.999631
Zn2   Zn    Zn3+2 0.499990 0.499980 0.346870 1.031820

loop_
_geom_bond_atom_site_label_1
_geom_bond_atom_site_label_2
_ccdc_geom_bond_type
C6    C11   A    
C5    C32   A    
Br4   C20   S    
C17   C18   A    
O7    Zn1   S    
C17   N1    A    
C31   C32   A    
C12   C24   A    
C23   C27   A    
C16   O6    A    
C28   C31   A    
C3    C5    A    
C3    C4    S    
C23   C29   A    
C1    O2    A    
Br3   C17   S    
C29   C30   A    
C13   H2    S    
C20   H8    S    
C26   C27   A    
C6    C14   S    
Br6   C2    S    
C14   H1    S    
C15   C21   S    
O4    Zn2   S    
C5    H10   S    
C25   C26   A    
C7    C8    A    
O3    Zn1   S    
C16   O5    A    
C34   H6    S    
C12   C28   A    
C20   C21   S    
C24   C25   A    
Br1   C9    S    
C33   H11   S    
C22   O8    A    
C13   H14   S    
C30   C31   A    
C11   C13   S    
C26   H3    S    
O2    Zn2   S    
C27   C28   A    
C2    C30   A    
C32   C33   A    
C24   H13   S    
C21   H4    S    
C18   N2    A    
C9    C10   A    
O6    Zn2   S    
C21   H9    S    
N2    Zn1   S    
C22   O7    A    
O5    Zn1   S    
C1    C7    S    
N1    Zn2   S    
C12   C34   A    
C6    C7    A    
C19   N2    A    
O1    Zn1   S    
C33   C34   A    
C15   N1    A    
Br2   C14   S    
C15   C19   A    
C4    O4    A    
C10   C11   A    
C10   C16   S    
C19   C20   S    
C8    C9    A    
C18   H7    S    
C4    O3    A    
Br5   C29   S    
C1    O1    A    
C22   C25   S    
C8    H12   S    
C13   C14   S    
C23   H5    S    
C2    C3    A    
O8    Zn2   S    
