data_mof_unit_25884.cif
_audit_creation_date              2013-03-05T15:54:12-0500
_audit_creation_method            fapswitch 2.2
_symmetry_space_group_name_H-M    P1
_symmetry_Int_Tables_number       1
_space_group_crystal_system       triclinic
_cell_length_a                    8.444059
_cell_length_b                    15.136931
_cell_length_c                    16.466016
_cell_angle_alpha                 98.071128
_cell_angle_beta                  93.978489
_cell_angle_gamma                 98.142292
_cell_volume                      2054.21216791

loop_
_atom_site_label
_atom_site_type_symbol
_atom_site_description
_atom_site_fract_x
_atom_site_fract_y
_atom_site_fract_z
_atom_type_partial_charge
P1    P     P_3+3 0.987060 0.708150 0.571770 0.594361
O1    O     O_2   0.162570 0.722330 0.548140 -0.321613
O2    O     O_3   0.890730 0.608900 0.545420 -0.348055
O3    O     O_3   0.394120 0.666550 0.400060 -0.253803
O4    O     O_2   0.305108 0.819818 0.464128 -0.346284
O5    O     O_3   0.004207 0.738835 0.679266 -0.588479
O6    O     O_3   0.388173 0.820698 0.317751 -0.598261
C1    C     C_3   0.500547 0.880654 0.201302 -0.856101
H1    H     H_    0.490682 0.948471 0.234251 0.240463
P2    P     P_3+3 0.349540 0.428350 0.313090 0.512871
P3    P     P_3+3 0.941346 0.619341 0.250201 0.528179
O7    O     O_2   0.182040 0.455740 0.301680 -0.347694
O8    O     O_3   0.971530 0.620720 0.357690 -0.416710
O9    O     O_2   0.071274 0.569078 0.210845 -0.291323
O10   O     O_3   0.338647 0.310870 0.291740 -0.612589
O11   O     O_3   0.986063 0.730523 0.229116 -0.462042
C2    C     C_3   0.989118 0.791354 0.302588 0.378230
H2    H     H_    0.098976 0.791134 0.342868 0.133931
H3    H     H_    0.885914 0.771687 0.337637 0.123789
C3    C     C_3   0.978558 0.887067 0.284040 -0.673157
H4    H     H_    0.891291 0.883770 0.229581 0.265131
C4    C     C_3   0.733451 0.320029 0.273221 0.288010
H5    H     H_    0.684653 0.372469 0.313812 0.008585
C5    C     C_3   0.862389 0.364754 0.222694 -0.726663
H6    H     H_    0.894649 0.435597 0.250924 0.192189
H7    H     H_    0.971930 0.334806 0.228650 0.253284
Ba1   Ba    Ba6+2 0.163630 0.544320 0.462600 1.688420
C6    C     C_3   0.087129 0.683409 0.721740 0.050232
H8    H     H_    0.175582 0.652856 0.684647 0.085232
C7    C     C_3   0.176702 0.742549 0.799298 0.516301
H9    H     H_    0.267638 0.794840 0.781393 0.059642
H10   H     H_    0.091765 0.777745 0.835711 0.139925
C8    C     C_3   0.196912 0.258095 0.305556 0.208540
H11   H     H_    0.106074 0.298604 0.328208 0.086038
C9    C     C_3   0.141267 0.195148 0.222997 -0.553970
H12   H     H_    0.137814 0.236617 0.172399 0.242351
H13   H     H_    0.232005 0.150052 0.208971 0.248004
P4    P     P_3+3 0.823240 0.291840 0.428170 0.462172
O12   O     O_2   0.647720 0.277620 0.451840 -0.370520
O13   O     O_3   0.919570 0.391090 0.454510 -0.371329
O14   O     O_3   0.416180 0.333440 0.599870 -0.381325
O15   O     O_3   0.806061 0.262583 0.319523 -0.613695
P5    P     P_3+3 0.865707 0.376727 0.747756 0.533827
O16   O     O_3   0.378690 0.546410 0.598100 -0.298812
O17   O     O_3   0.838770 0.379270 0.642240 -0.364118
O18   O     O_2   0.736188 0.426890 0.787697 -0.336705
O19   O     O_3   0.817001 0.264116 0.763256 -0.525050
Ba2   Ba    Ba6+2 0.646550 0.455670 0.537340 1.681950
P6    P     P_3+3 0.435721 0.785293 0.413322 0.590257
C10   C     C_3   0.511305 0.814540 0.264298 0.994065
H14   H     H_    0.614655 0.887626 0.171308 0.188713
O20   O     O_3   0.431610 0.453580 0.401830 -0.403638
C11   C     C_3   0.561763 0.733697 0.680531 0.212420
H15   H     H_    0.672497 0.706213 0.664220 0.140354
H16   H     H_    0.475598 0.729446 0.625471 0.072346
C12   C     C_3   0.611366 0.832905 0.716666 0.464682
H17   H     H_    0.672115 0.869616 0.670809 -0.037917
H18   H     H_    0.504354 0.864294 0.732589 0.053371
P7    P     P_3+3 0.455505 0.571049 0.702167 0.569436
O21   O     O_2   0.628250 0.544210 0.698290 -0.367492
O22   O     O_3   0.487003 0.687257 0.738639 -0.528157
H19   H     H_    0.934804 0.926596 0.337641 0.182245
C13   C     C_3   0.788164 0.208046 0.686369 0.498681
H20   H     H_    0.688642 0.227224 0.649539 0.164180
H21   H     H_    0.894331 0.214216 0.651216 0.021634
C14   C     C_3   0.746540 0.109423 0.697450 -0.856010
H22   H     H_    0.699787 0.067935 0.637330 0.223791
H23   H     H_    0.854365 0.083696 0.721353 0.293392
H24   H     H_    0.653374 0.101461 0.740856 0.242406
P8    P     P_3+3 0.363956 0.217473 0.600127 0.491622
C15   C     C_3   0.363774 0.241426 0.763611 0.245271
O23   O     O_2   0.472536 0.171301 0.540758 -0.377008
O24   O     O_3   0.418295 0.186678 0.697229 -0.540950
H25   H     H_    0.419544 0.312919 0.765539 0.075981
H26   H     H_    0.342718 0.245363 0.895563 0.210724
C16   C     C_3   0.411224 0.211562 0.847964 -0.596738
C17   C     C_R   0.633439 0.834084 0.472832 0.134327
H27   H     H_    0.500183 0.964737 0.416960 0.166532
C18   C     C_R   0.882017 0.795122 0.529493 -0.050054
C19   C     C_R   0.066671 0.234352 0.521889 -0.541134
C20   C     C_R   0.152994 0.176637 0.559043 0.064277
C21   C     C_R   0.082657 0.088494 0.563277 0.739693
C22   C     C_R   0.935138 0.049579 0.516755 -0.069101
C23   C     C_R   0.850073 0.108369 0.473645 -0.174721
C24   C     C_R   0.868262 0.954523 0.511498 -0.159640
C25   C     C_R   0.705792 0.925631 0.478141 -0.184681
C26   C     C_R   0.621916 0.986429 0.444347 0.041007
C27   C     C_R   0.699057 0.069823 0.431121 -0.053581
C28   C     C_R   0.957124 0.885392 0.532664 0.620621
C29   C     C_R   0.718019 0.773817 0.507242 0.340089
C30   C     C_R   0.916678 0.203425 0.478510 0.208714
H28   H     H_    0.121355 0.303739 0.523341 0.219116
C31   C     C_R   0.626527 0.532414 0.265522 -0.585546
C32   C     C_R   0.475121 0.482083 0.238980 0.094994
C33   C     C_R   0.424408 0.466547 0.154293 0.673317
C34   C     C_R   0.524323 0.503313 0.097240 0.038025
C35   C     C_R   0.679999 0.548606 0.125817 -0.398513
C36   C     C_R   0.733212 0.562166 0.209741 0.161143
C37   C     C_R   0.386782 0.508261 0.851397 -0.224857
C38   C     C_R   0.335335 0.504861 0.768289 0.143656
C39   C     C_R   0.282542 0.469645 0.905121 0.179213
N1    N     N_2   0.475689 0.497274 0.011399 -0.019460
N2    N     N_2   0.329168 0.471994 0.990711 0.025938
C40   C     C_R   0.181655 0.461035 0.737534 0.294998
H29   H     H_    0.505804 0.543281 0.874087 0.204840
H30   H     H_    0.759058 0.574376 0.082653 0.214420
C41   C     C_R   0.072674 0.427860 0.790628 0.096534
C42   C     C_R   0.124051 0.431530 0.874179 -0.274655
H31   H     H_    0.041338 0.404091 0.914984 0.212516
C43   C     C_2   0.502272 0.720757 0.219380 0.587905
H32   H     H_    0.594297 0.706356 0.179187 -0.035455
O25   O     O_2   0.389193 0.662587 0.224255 -0.524748
C44   C     C_2   0.827229 0.358598 0.130642 0.586270
H33   H     H_    0.844975 0.418871 0.102104 0.074881
O26   O     O_2   0.794336 0.285501 0.086349 -0.496177
C45   C     C_2   0.966410 0.610398 0.743471 0.576718
H34   H     H_    0.917799 0.554875 0.695707 0.100224
O27   O     O_2   0.920349 0.612905 0.812397 -0.530917
F1    F     F_    0.252346 0.691218 0.848496 -0.667548
C46   C     C_2   0.241451 0.206690 0.372701 0.545935
H35   H     H_    0.324919 0.241645 0.423773 0.102484
O28   O     O_2   0.186020 0.127624 0.372114 -0.646428
C47   C     C_2   0.365742 0.854439 0.133171 0.703276
H36   H     H_    0.364659 0.892961 0.082377 0.086728
O29   O     O_2   0.256983 0.792259 0.134067 -0.491913
C48   C     C_2   0.981268 0.137257 0.221140 0.716273
H37   H     H_    0.958458 0.093780 0.267179 0.019667
O30   O     O_2   0.877325 0.135578 0.165443 -0.492023
F2    F     F_    0.659223 0.839571 0.307383 -0.814491
F3    F     F_    0.716256 0.841007 0.786594 -0.608210
C49   C     C_2   0.184360 0.237442 0.753081 0.538395
H38   H     H_    0.134882 0.273708 0.708149 -0.060154
O31   O     O_2   0.094945 0.195581 0.794382 -0.531215
C50   C     C_2   0.584542 0.241674 0.878389 0.685374
H39   H     H_    0.669818 0.194277 0.873948 0.068600
O32   O     O_2   0.630834 0.319780 0.910085 -0.538033
C51   C     C_2   0.369673 0.110800 0.845501 0.738104
H40   H     H_    0.418739 0.064427 0.801306 0.022584
O33   O     O_2   0.279781 0.080371 0.893209 -0.511672
F4    F     F_    0.640284 0.691426 0.516051 -0.672850
F5    F     F_    0.117543 0.902013 0.551397 -0.597798
F6    F     F_    0.150574 0.047436 0.621707 -0.631604
C52   C     C_2   0.635132 0.099156 0.356553 0.621980
H41   H     H_    0.713153 0.109532 0.308936 0.065389
O34   O     O_2   0.492320 0.101759 0.343771 -0.558901
F7    F     F_    0.278915 0.416030 0.128456 -0.686251
C53   C     C_2   0.666173 0.566917 0.351699 0.839671
H42   H     H_    0.696239 0.524142 0.395840 0.043028
O35   O     O_2   0.682490 0.647923 0.371620 -0.598958
F8    F     F_    0.135612 0.454430 0.656094 -0.688139
C54   C     C_2   0.136591 0.937701 0.270012 0.741031
H43   H     H_    0.234800 0.950684 0.318141 0.085655
O36   O     O_2   0.153224 0.968796 0.206167 -0.585605
C55   C     C_2   0.596019 0.265601 0.215563 0.795512
H44   H     H_    0.521850 0.300148 0.178173 -0.076335
O37   O     O_2   0.569646 0.183424 0.206859 -0.529306

loop_
_geom_bond_atom_site_label_1
_geom_bond_atom_site_label_2
_geom_bond_distance
_ccdc_geom_bond_type
Ba1   Ba2   4.610973 S    
P2    Ba1   3.421973 S    
C14   H23   1.108728 S    
C26   C27   1.388938 A    
C13   H21   1.100413 S    
C31   C32   1.399642 A    
C34   N1    1.430877 S    
O12   Ba2   2.861793 S    
C33   C34   1.424042 A    
C38   C40   1.396832 A    
C21   F6    1.353920 S    
P2    O20   1.545643 S    
C20   C21   1.394686 A    
C47   H36   1.084908 S    
C4    O15   1.409115 S    
C11   H15   1.110483 S    
C12   H17   1.110359 S    
C51   O33   1.220956 D    
C48   H37   1.081358 S    
P3    C36   1.877873 S    
C6    H8    1.107525 S    
C9    H13   1.111210 S    
C5    H7    1.090581 S    
P4    O15   1.772276 S    
P2    O10   1.751574 S    
P6    C17   1.874441 S    
O19   C13   1.406918 S    
C15   C16   1.563498 S    
P3    O9    1.548917 D    
C47   O29   1.220838 D    
C14   H24   1.104356 S    
C7    F1    1.383284 S    
P2    C32   1.867915 S    
O16   P7    1.758960 S    
C52   H41   1.072572 S    
C35   C36   1.400617 A    
O2    Ba2   2.858213 S    
C10   C43   1.494906 S    
C2    C3    1.535351 S    
C42   H31   1.083089 S    
C52   O34   1.216811 D    
P1    O1    1.551514 D    
C40   F8    1.355885 S    
P8    C20   1.848370 S    
C43   H32   1.080831 S    
C18   C29   1.387752 A    
C6    C45   1.493671 S    
C8    C9    1.548388 S    
C11   O22   1.398256 S    
Ba1   O16   2.771003 S    
C24   C28   1.438065 A    
O5    C6    1.395167 S    
C53   H42   1.079387 S    
C45   O27   1.222347 D    
O11   C2    1.410065 S    
C41   C42   1.404608 A    
O1    Ba1   2.861342 S    
C23   C30   1.457804 A    
C27   C52   1.457772 S    
P4    Ba2   3.431561 S    
C11   C12   1.523453 S    
C39   C42   1.409830 A    
C14   H22   1.109596 S    
C13   C14   1.523874 S    
C5    C44   1.511409 S    
C39   N2    1.430879 S    
P4    O13   1.590188 S    
P7    C38   1.841316 S    
O4    P6    1.535548 D    
C32   C33   1.407022 A    
C33   F7    1.358334 S    
C46   O28   1.220247 D    
Ba2   O21   2.821661 S    
C11   H16   1.110980 S    
C37   H29   1.082612 S    
C17   C29   1.391706 A    
P7    O22   1.753368 S    
O7    Ba1   2.821616 S    
P1    O5    1.756206 S    
C8    H11   1.100986 S    
C5    H6    1.095405 S    
O6    P6    1.770586 S    
C15   O24   1.420216 S    
C16   C50   1.498590 S    
C25   C26   1.389948 A    
C1    H1    1.108683 S    
C50   O32   1.220866 D    
C16   C51   1.510006 S    
P4    C30   1.902777 S    
P1    O2    1.590208 S    
C9    H12   1.112505 S    
C19   H28   1.082106 S    
C9    C48   1.498511 S    
H26   C16   1.115728 S    
C10   F2    1.369099 S    
P3    O11   1.760023 S    
C37   C38   1.398379 A    
Ba2   O20   2.770523 S    
Ba1   O13   2.857584 S    
C54   H43   1.083175 S    
C34   C35   1.409884 A    
P8    O24   1.775468 S    
C2    H2    1.102980 S    
P5    C41   1.855766 S    
P5    O17   1.743078 S    
C1    H14   1.111457 S    
C55   H44   1.083698 S    
P2    O7    1.535827 D    
C35   H30   1.083000 S    
C22   C24   1.457670 A    
C17   C25   1.421250 A    
P1    C18   1.872678 S    
C4    C5    1.552728 S    
C22   C23   1.448947 A    
C49   H38   1.076753 S    
H27   C26   1.079946 S    
C1    C10   1.545934 S    
O3    Ba1   2.839847 S    
C46   H35   1.082174 S    
C44   H33   1.080303 S    
C4    C55   1.511123 S    
O17   Ba2   2.767490 S    
O13   Ba2   2.971686 S    
C48   O30   1.219649 D    
C37   C39   1.416508 A    
C55   O37   1.218404 D    
C23   C27   1.416843 A    
O6    C10   1.412729 S    
C19   C20   1.391912 A    
C49   O31   1.220984 D    
C24   C25   1.425871 A    
C15   H25   1.112573 S    
C29   F4    1.356240 S    
C1    C47   1.510492 S    
C50   H39   1.085120 S    
C53   O35   1.209568 D    
C51   H40   1.083854 S    
C3    C54   1.491400 S    
O3    P6    1.761255 S    
C19   C30   1.395041 A    
C6    C7    1.535426 S    
C7    H10   1.111720 S    
P3    O8    1.767351 S    
C7    H9    1.108077 S    
P4    O12   1.551840 D    
C28   F5    1.347978 S    
C31   C36   1.405008 A    
O2    Ba1   2.970742 S    
C2    H3    1.107096 S    
O14   Ba2   2.839136 S    
C12   H18   1.109289 S    
C45   H34   1.079476 S    
C31   C53   1.440411 S    
C54   O36   1.219487 D    
C3    H19   1.110434 S    
N1    N2    1.250601 D    
P5    O18   1.549188 D    
C43   O25   1.218940 D    
C18   C28   1.414894 A    
C15   C49   1.504525 S    
C13   H20   1.098224 S    
P7    O21   1.571732 D    
C3    H4    1.111275 S    
C8    C46   1.495341 S    
C21   C22   1.420737 A    
P1    Ba1   3.430981 S    
C4    H5    1.108377 S    
O8    Ba1   2.766990 S    
P8    O23   1.548795 D    
P5    O19   1.754427 S    
Ba1   O20   2.969337 S    
O10   C8    1.392933 S    
C40   C41   1.402615 A    
C12   F3    1.383247 S    
O16   Ba2   2.968420 S    
O14   P8    1.748984 S    
C44   O26   1.221300 D    
