data_mof_unit_36151.cif
_audit_creation_date              2012-12-11T14:21:09-0500
_audit_creation_method            fapswitch 2.2
_symmetry_space_group_name_H-M    P1
_symmetry_Int_Tables_number       1
_space_group_crystal_system       triclinic
_cell_length_a                    22.071016
_cell_length_b                    7.214829
_cell_length_c                    15.196307
_cell_angle_alpha                 90.315268
_cell_angle_beta                  109.003632
_cell_angle_gamma                 89.857082
_cell_volume                      2287.9172728

loop_
_atom_site_label
_atom_site_type_symbol
_atom_type_description
_atom_site_fract_x
_atom_site_fract_y
_atom_site_fract_z
_atom_type_partial_charge
O1    O     O_R   0.584770 0.505770 0.002090 -0.538054
O2    O     O_R   0.415230 0.005770 0.997910 -0.537815
O3    O     O_R   0.467060 0.173340 0.861950 -0.511882
O4    O     O_R   0.532940 0.673340 0.138050 -0.511924
C1    C     C_R   0.453806 0.344692 0.826114 0.770452
C2    C     C_R   0.546399 0.845299 0.173905 0.770022
O5    O     O_R   0.587510 0.175890 0.993210 -0.537106
O6    O     O_R   0.412490 0.675890 0.006790 -0.537158
O7    O     O_R   0.536540 0.008150 0.130100 -0.552668
O8    O     O_R   0.463460 0.508150 0.869900 -0.553142
C3    C     C_R   0.613081 0.343988 0.998450 0.783259
C4    C     C_R   0.386919 0.844250 0.001491 0.782618
O9    O     O_3   0.483140 0.340040 0.044760 -0.382128
O10   O     O_3   0.516860 0.840040 0.955240 -0.382058
V1    V     V_3+5 0.503130 0.064190 0.991700 1.578524
V2    V     V_3+5 0.496870 0.564190 0.008300 1.576950
C5    C     C_2   0.213204 0.736100 0.997862 -0.289109
C6    C     C_2   0.786786 0.235945 0.001112 -0.285222
C7    C     C_2   0.184298 0.888550 0.018962 -0.184093
C8    C     C_2   0.815639 0.388782 0.981040 -0.182280
H1    H     H_    0.184050 0.615553 0.968518 0.180926
H2    H     H_    0.816021 0.115340 0.029635 0.178447
C9    C     C_2   0.283684 0.716712 0.015404 0.069819
C10   C     C_2   0.716349 0.216121 0.983958 0.073639
C11   C     C_2   0.318119 0.854632 0.993959 -0.298478
C12   C     C_2   0.681806 0.354262 0.005669 -0.296387
H3    H     H_    0.293369 0.981204 0.965343 0.118152
H4    H     H_    0.706376 0.481427 0.033990 0.116881
C13   C     C_R   0.937428 0.871557 0.723418 -0.170325
C14   C     C_R   0.063227 0.374698 0.276004 -0.184132
C15   C     C_R   0.577137 0.861137 0.275966 -0.212301
C16   C     C_R   0.423467 0.359574 0.724170 -0.211211
C17   C     C_R   0.940732 0.698205 0.585603 0.260318
C18   C     C_R   0.063031 0.174550 0.404097 0.257330
C19   C     C_R   0.971835 0.760415 0.678924 0.244542
C20   C     C_R   0.030672 0.252429 0.316730 0.249769
C21   C     C_R   0.875240 0.926117 0.675043 -0.224435
C22   C     C_R   0.125218 0.430389 0.325698 -0.230105
C23   C     C_R   0.839396 0.833136 0.593169 0.061435
C24   C     C_R   0.161795 0.333475 0.405843 0.057245
C25   C     C_R   0.872961 0.721385 0.547286 0.002286
C26   C     C_R   0.129379 0.210466 0.447898 0.006537
C27   C     C_R   0.771092 0.851044 0.554898 0.030922
C28   C     C_R   0.229800 0.355418 0.445015 0.028861
C29   C     C_R   0.739470 0.791046 0.461861 0.075828
C30   C     C_R   0.261497 0.292492 0.537274 0.076326
C31   C     C_R   0.772552 0.664575 0.422979 -0.121738
C32   C     C_R   0.228775 0.163463 0.574782 -0.121071
C33   C     C_R   0.837638 0.630406 0.464661 -0.168961
C34   C     C_R   0.164267 0.123888 0.531423 -0.178593
C35   C     C_R   0.732432 0.915666 0.607292 -0.032478
C36   C     C_R   0.268210 0.425693 0.393784 -0.033576
C37   C     C_R   0.668792 0.962708 0.562262 -0.218312
C38   C     C_R   0.331858 0.471328 0.439464 -0.218736
C39   C     C_R   0.639994 0.938344 0.466047 0.019532
C40   C     C_R   0.360800 0.442325 0.535130 0.019932
C41   C     C_R   0.674489 0.847520 0.414131 -0.002538
C42   C     C_R   0.326265 0.349457 0.585835 -0.003138
C43   C     C_R   0.576495 0.000921 0.422170 0.239863
C44   C     C_R   0.424495 0.502491 0.579635 0.239702
C45   C     C_R   0.543799 0.952269 0.328846 -0.069278
C46   C     C_R   0.457064 0.451089 0.672280 -0.071143
C47   C     C_R   0.643801 0.827018 0.316043 -0.078838
C48   C     C_R   0.356776 0.326760 0.683693 -0.079330
H5    H     H_    0.859803 0.529989 0.431558 0.143897
H6    H     H_    0.142213 0.025609 0.565056 0.131718
H7    H     H_    0.640870 0.011129 0.604659 0.180333
H8    H     H_    0.359677 0.522450 0.397758 0.179788
H9    H     H_    0.854102 0.031123 0.706748 0.145255
H10   H     H_    0.145593 0.540451 0.296530 0.145275
H11   H     H_    0.748131 0.583666 0.361843 0.140626
H12   H     H_    0.253157 0.083970 0.636043 0.139773
O11   O     O_R   0.036450 0.233070 0.130130 -0.523909
O12   O     O_R   0.963550 0.733070 0.869870 -0.526046
O13   O     O_R   0.912470 0.560570 0.006790 -0.518894
O14   O     O_R   0.087530 0.060570 0.993210 -0.518518
C49   C     C_R   0.886250 0.392529 0.998720 0.680077
C50   C     C_R   0.113716 0.892324 0.001286 0.677052
O15   O     O_R   0.032920 0.562940 0.138050 -0.552025
O16   O     O_R   0.967080 0.062940 0.861950 -0.550284
O17   O     O_R   0.084790 0.730500 0.002090 -0.548152
O18   O     O_R   0.915210 0.230500 0.997910 -0.543080
C51   C     C_R   0.041668 0.393606 0.174370 0.751778
C52   C     C_R   0.959342 0.892362 0.825526 0.749697
O19   O     O_3   0.016820 0.396170 0.955260 -0.390590
O20   O     O_3   0.983180 0.896170 0.044740 -0.385931
V3    V     V_3+5 0.996880 0.672090 0.008300 1.474661
V4    V     V_3+5 0.003120 0.172090 0.991700 1.481715
N1    N     N_2   0.037722 0.721880 0.726795 -0.536735
H13   H     H_    0.063136 0.828801 0.767619 0.231720
C53   C     C_3   0.052125 0.542285 0.770848 -0.478830
H14   H     H_    0.097857 0.489968 0.764551 0.193606
H15   H     H_    0.013580 0.439698 0.738830 0.194216
H16   H     H_    0.059211 0.555927 0.845843 0.220168
N2    N     N_2   0.964758 0.209364 0.270284 -0.514077
H17   H     H_    0.938694 0.307056 0.223854 0.225022
C54   C     C_3   0.949447 0.019031 0.240224 -0.380918
H18   H     H_    0.917412 0.960619 0.276175 0.205887
H19   H     H_    0.993083 0.930964 0.255618 0.181396
H20   H     H_    0.923988 0.014213 0.164068 0.180426
C55   C     C_2   0.752760 0.907252 0.710007 0.750093
O21   O     O_2   0.782215 0.772228 0.750629 -0.544287
O22   O     O_R   0.739176 0.055007 0.760272 -0.632601
H21   H     H_    0.760156 0.038790 0.829703 0.319590
C56   C     C_2   0.247865 0.424709 0.290902 0.751067
O23   O     O_2   0.218623 0.291814 0.247163 -0.544626
O24   O     O_R   0.261673 0.576523 0.244110 -0.632137
H22   H     H_    0.241273 0.564502 0.174283 0.320009
N3    N     N_2   0.547744 0.128440 0.468867 -0.514581
H23   H     H_    0.579257 0.222056 0.511210 0.262590
C57   C     C_3   0.503771 0.049643 0.510930 -0.494242
H24   H     H_    0.528095 0.942080 0.562245 0.242539
H25   H     H_    0.461806 0.990605 0.456347 0.209959
H26   H     H_    0.486102 0.159410 0.547804 0.203242
N4    N     N_2   0.453782 0.629757 0.534313 -0.515102
H27   H     H_    0.422799 0.726082 0.493644 0.261596
C58   C     C_3   0.496992 0.549808 0.490738 -0.491419
H28   H     H_    0.472113 0.442480 0.439168 0.243188
H29   H     H_    0.539135 0.490051 0.544455 0.210727
H30   H     H_    0.514484 0.658990 0.453931 0.202426
C59   C     C_2   0.222471 0.046741 0.072291 0.851151
O25   O     O_2   0.203201 0.205618 0.054345 -0.541024
O26   O     O_R   0.279518 0.013450 0.144886 -0.624682
H31   H     H_    0.301445 0.131893 0.174838 0.313121
C60   C     C_2   0.777431 0.546952 0.928467 0.851075
O27   O     O_2   0.796856 0.705730 0.946739 -0.545949
O28   O     O_R   0.720230 0.513741 0.856047 -0.623845
H32   H     H_    0.698440 0.632255 0.826503 0.311377
C61   C     C_2   0.313639 0.538794 0.053392 0.837247
O29   O     O_2   0.352863 0.533165 0.131677 -0.527319
O30   O     O_R   0.299033 0.379500 0.998290 -0.661756
H33   H     H_    0.325910 0.270062 0.030223 0.287244
C62   C     C_2   0.686569 0.037125 0.946874 0.834701
O31   O     O_2   0.647431 0.028740 0.868565 -0.526967
O32   O     O_R   0.700951 0.880323 0.003021 -0.661479
H34   H     H_    0.673971 0.770251 0.971747 0.286859
C63   C     C_2   0.682288 0.811746 0.252393 0.730031
O33   O     O_2   0.725084 0.923540 0.258554 -0.543734
O34   O     O_R   0.670278 0.669030 0.186670 -0.666898
H35   H     H_    0.701484 0.671279 0.150530 0.302513
C64   C     C_2   0.318085 0.311237 0.747066 0.727460
O35   O     O_2   0.274916 0.422232 0.740927 -0.547426
O36   O     O_R   0.330353 0.169190 0.812498 -0.666407
H36   H     H_    0.299215 0.171473 0.848785 0.302413
C65   C     C_2   0.476107 0.011759 0.284133 0.794764
O37   O     O_2   0.436588 0.902082 0.236589 -0.547083
O38   O     O_R   0.457825 0.193495 0.295822 -0.638772
H37   H     H_    0.410710 0.217329 0.262189 0.307625
C66   C     C_2   0.524845 0.509178 0.717614 0.795428
O39   O     O_2   0.564153 0.398522 0.764325 -0.547233
O40   O     O_R   0.543413 0.690827 0.707468 -0.637424
H38   H     H_    0.590532 0.713819 0.741355 0.308421
N5    N     N_2   0.974263 0.623069 0.526188 -0.540514
H39   H     H_    0.955499 0.663562 0.457620 0.254727
C67   C     C_3   0.043105 0.599141 0.554698 -0.470803
H40   H     H_    0.057340 0.561039 0.493221 0.171940
H41   H     H_    0.058133 0.482865 0.603874 0.223453
H42   H     H_    0.068491 0.728935 0.584444 0.215500
N6    N     N_2   0.028932 0.048356 0.442044 -0.516165
H43   H     H_    0.051513 0.923792 0.462858 0.248462
C68   C     C_3   0.999492 0.129052 0.505329 -0.489446
H44   H     H_    0.036561 0.163321 0.572707 0.175943
H45   H     H_    0.965459 0.028779 0.518069 0.202719
H46   H     H_    0.971875 0.254997 0.474480 0.236247

loop_
_geom_bond_atom_site_label_1
_geom_bond_atom_site_label_2
_ccdc_geom_bond_type
C10   C62   S    
O15   C51   A    
C22   H10   S    
C55   O21   D    
C46   C66   S    
C39   C43   A    
C67   H41   S    
C15   C45   A    
N2    H17   S    
O1    C3    A    
O16   C52   A    
O2    C4    A    
C54   H20   S    
C2    O7    A    
O15   V3    S    
C65   O37   D    
C66   O39   D    
O32   H34   S    
C23   C25   A    
O5    C3    A    
C63   O34   S    
C14   C22   A    
C5    C9    S    
C33   H5    S    
C8    C49   S    
C6    C10   S    
O14   C50   A    
C21   H9    S    
C58   H29   S    
C17   N5    S    
C38   H8    S    
C48   C64   S    
O36   H36   S    
C54   H18   S    
C9    C61   S    
C44   C46   A    
O6    V2    S    
C29   C31   A    
C14   C51   S    
O13   C49   A    
C45   C65   S    
C5    C7    D    
O38   H37   S    
C28   C30   A    
N4    C58   S    
C18   C26   A    
O24   H22   S    
N6    C68   S    
C68   H45   S    
C20   N2    S    
O12   V3    S    
N5    C67   S    
O14   V4    S    
C18   C20   A    
C1    C16   S    
C18   N6    S    
C28   C36   A    
C32   C34   A    
C2    C15   S    
O40   H38   S    
C55   O22   S    
C30   C42   A    
C67   H42   S    
C47   C63   S    
C66   O40   S    
C32   H12   S    
C43   N3    S    
C25   C33   A    
C65   O38   S    
C36   C38   A    
C41   C47   A    
C30   C32   A    
C37   C39   A    
C42   C48   A    
C38   C40   A    
C43   C45   A    
C15   C47   A    
O26   H31   S    
C16   C48   A    
C13   C52   S    
O4    C2    A    
C54   H19   S    
C58   H30   S    
O12   C52   A    
C53   H14   S    
O20   V3    S    
C23   C27   A    
O5    V1    S    
C3    C12   S    
C5    H1    S    
C40   C44   A    
C35   C37   A    
C64   O36   S    
O4    V2    S    
C7    C50   S    
O11   V4    S    
C53   H15   S    
C56   O24   S    
N6    H43   S    
C24   C28   A    
O6    C4    A    
C29   C41   A    
C57   H25   S    
O1    V2    S    
O2    V1    S    
C34   H6    S    
C31   H11   S    
C59   O25   D    
O17   V3    S    
C26   C34   A    
C19   N1    S    
O13   V3    S    
C36   C56   S    
C39   C41   A    
C62   O31   D    
N1    C53   S    
O30   H33   S    
N1    H13   S    
O22   H21   S    
C68   H46   S    
O3    V1    S    
C60   O28   S    
C61   O29   D    
C63   O33   D    
O19   V4    S    
C7    C59   S    
C57   H24   S    
C6    H2    S    
C10   C12   D    
O3    C1    A    
O34   H35   S    
N2    C54   S    
O28   H32   S    
C31   C33   A    
C56   O23   D    
C13   C19   A    
C12   H4    S    
C14   C20   A    
C4    C11   S    
C17   C25   A    
N3    C57   S    
O7    V1    S    
C16   C46   A    
C8    C60   S    
C21   C23   A    
O8    V2    S    
C64   O35   D    
C53   H16   S    
C22   C24   A    
C50   O17   A    
C27   C35   A    
C60   O27   D    
C68   H44   S    
C49   O18   A    
O18   V4    S    
C24   C26   A    
C17   C19   A    
C40   C42   A    
C57   H26   S    
C6    C8    D    
C9    C11   D    
C37   H7    S    
C59   O26   S    
N3    H23   S    
C1    O8    A    
O16   V4    S    
O9    V2    S    
C13   C21   A    
C67   H40   S    
C62   O32   S    
O10   V1    S    
C44   N4    S    
N5    H39   S    
C58   H28   S    
C27   C29   A    
O11   C51   A    
C35   C55   S    
N4    H27   S    
C61   O30   S    
C11   H3    S    
