data_mof_unit_50012.cif
_audit_creation_date              2013-03-05T15:56:36-0500
_audit_creation_method            fapswitch 2.2
_symmetry_space_group_name_H-M    P1
_symmetry_Int_Tables_number       1
_space_group_crystal_system       triclinic
_cell_length_a                    6.950406
_cell_length_b                    14.48195
_cell_length_c                    16.097646
_cell_angle_alpha                 90.256114
_cell_angle_beta                  89.150812
_cell_angle_gamma                 89.095149
_cell_volume                      1619.91759

loop_
_atom_site_label
_atom_site_type_symbol
_atom_site_description
_atom_site_fract_x
_atom_site_fract_y
_atom_site_fract_z
_atom_type_partial_charge
O1    O     O_R   0.361600 0.167310 0.164620 -0.582039
O2    O     O_R   0.638400 0.832690 0.835380 -0.582040
O3    O     O_R   0.691080 0.157570 0.338750 -0.562714
O4    O     O_R   0.308920 0.842430 0.661250 -0.562714
O5    O     O_R   0.861410 0.336420 0.339360 -0.585437
O6    O     O_R   0.138590 0.663580 0.660640 -0.585437
C1    C     C_R   0.522354 0.135320 0.367340 1.130817
C2    C     C_R   0.477646 0.864680 0.632660 1.130818
O7    O     O_R   0.691320 0.156280 0.165240 -0.550426
O8    O     O_R   0.308680 0.843720 0.834760 -0.550426
O9    O     O_R   0.861640 0.335130 0.164600 -0.575163
O10   O     O_R   0.138360 0.664870 0.835400 -0.575163
C3    C     C_R   0.524114 0.134410 0.135635 1.160044
C4    C     C_R   0.475885 0.865590 0.864365 1.160044
O11   O     O_R   0.361370 0.168600 0.339370 -0.583907
O12   O     O_R   0.638630 0.831400 0.660630 -0.583907
O13   O     O_3   0.527990 0.310540 0.251980 -0.273895
O14   O     O_3   0.472010 0.689460 0.748020 -0.273895
V1    V     V_3+5 0.802830 0.240980 0.251990 1.367319
V2    V     V_3+5 0.197170 0.759020 0.748010 1.367319
O15   O     O_R   0.191360 0.346160 0.165220 -0.593059
O16   O     O_R   0.808640 0.653840 0.834780 -0.593059
C5    C     C_R   0.022320 0.368167 0.136372 1.135811
C6    C     C_R   0.977680 0.631833 0.863628 1.135811
O17   O     O_R   0.191130 0.347440 0.338740 -0.587381
O18   O     O_R   0.808870 0.652560 0.661260 -0.587380
C7    C     C_R   0.019699 0.369729 0.367047 1.117379
C8    C     C_R   0.980301 0.630270 0.632953 1.117379
V3    V     V_3+5 0.302840 0.262750 0.251990 1.327381
V4    V     V_3+5 0.697160 0.737250 0.748010 1.327381
O19   O     O_3   0.027820 0.193180 0.251990 -0.244576
O20   O     O_3   0.972180 0.806820 0.748010 -0.244576
C9    C     C_3   0.908286 0.423224 0.523143 0.512265
C10   C     C_3   0.091713 0.576776 0.476857 0.512265
C11   C     C_3   0.087174 0.462191 0.565708 -0.280306
C12   C     C_3   0.912826 0.537809 0.434292 -0.280306
C13   C     C_3   0.996735 0.560670 0.563162 -0.291762
C14   C     C_3   0.003265 0.439330 0.436838 -0.291762
C15   C     C_3   0.818399 0.521703 0.520514 -0.208946
C16   C     C_3   0.181601 0.478296 0.479486 -0.208946
C17   C     C_R   0.883449 0.480378 0.930702 -0.246860
C18   C     C_R   0.116551 0.519622 0.069298 -0.246861
C19   C     C_R   0.893787 0.418033 0.998001 0.424264
C20   C     C_R   0.106212 0.581967 0.001999 0.424264
C21   C     C_R   0.010393 0.436680 0.067395 -0.281669
C22   C     C_R   0.989607 0.563320 0.932605 -0.281669
C23   C     C_R   0.632918 0.986684 0.434145 0.412736
C24   C     C_R   0.367081 0.013316 0.565855 0.412736
C25   C     C_R   0.619498 0.920595 0.497710 0.421655
C26   C     C_R   0.380502 0.079405 0.502290 0.421655
C27   C     C_R   0.487536 0.933623 0.564498 -0.521687
C28   C     C_R   0.512464 0.066377 0.435502 -0.521686
C29   C     C_R   0.637361 0.987229 0.062487 0.404154
C30   C     C_R   0.362639 0.012771 0.937513 0.404154
C31   C     C_R   0.620315 0.921068 0.998513 0.428727
C32   C     C_R   0.379685 0.078932 0.001487 0.428727
C33   C     C_R   0.484427 0.933605 0.934614 -0.524700
C34   C     C_R   0.515573 0.066395 0.065386 -0.524700
C35   C     C_2   0.183576 0.416629 0.637715 0.807224
H1    H     H_    0.241580 0.347043 0.630909 0.080673
O21   O     O_2   0.197927 0.457143 0.703874 -0.539640
C36   C     C_2   0.816424 0.583371 0.362285 0.807225
H2    H     H_    0.758419 0.652957 0.369091 0.080673
O22   O     O_2   0.802074 0.542857 0.296125 -0.539640
Cl1   Cl    Cl    0.788462 0.320721 0.554224 -0.560727
Cl2   Cl    Cl    0.211537 0.679279 0.445776 -0.560727
C37   C     C_2   0.622807 0.552168 0.549496 0.578404
H3    H     H_    0.551120 0.609515 0.519346 0.065461
O23   O     O_2   0.549747 0.517118 0.610791 -0.538337
C38   C     C_2   0.377193 0.447831 0.450504 0.578403
H4    H     H_    0.448879 0.390484 0.480652 0.065462
O24   O     O_2   0.450253 0.482883 0.389209 -0.538339
C39   C     C_2   0.764433 0.455511 0.857970 0.713364
H5    H     H_    0.630736 0.418995 0.867080 0.078541
O25   O     O_2   0.817201 0.472417 0.787073 -0.543141
C40   C     C_2   0.235566 0.544489 0.142031 0.713363
H6    H     H_    0.369263 0.581005 0.132920 0.078542
O26   O     O_2   0.182798 0.527583 0.212927 -0.543141
Cl3   Cl    Cl    0.771835 0.311390 0.991415 -0.582761
Cl4   Cl    Cl    0.228165 0.688610 0.008585 -0.582761
Cl5   Cl    Cl    0.798235 0.966074 0.351348 -0.431525
Cl6   Cl    Cl    0.201765 0.033926 0.648652 -0.431525
Cl7   Cl    Cl    0.762334 0.818355 0.489914 -0.566890
Cl8   Cl    Cl    0.237666 0.181645 0.510086 -0.566890
Cl9   Cl    Cl    0.810131 0.967545 0.140204 -0.425473
Cl10  Cl    Cl    0.189868 0.032455 0.859796 -0.425473
Cl11  Cl    Cl    0.763511 0.818889 0.002834 -0.483200
Cl12  Cl    Cl    0.236489 0.181111 0.997166 -0.483200

loop_
_geom_bond_atom_site_label_1
_geom_bond_atom_site_label_2
_geom_bond_distance
_ccdc_geom_bond_type
V4    O20   2.174794 S    
C5    C21   1.494728 S    
C10   C13   1.549501 S    
O13   V3    1.721061 S    
C39   H5    1.084826 S    
O4    C2    1.299292 A    
V1    O19   1.700113 S    
C10   Cl2   1.783489 S    
C9    Cl1   1.783489 S    
C23   C25   1.407308 A    
O9    V1    2.005706 S    
C9    C15   1.548957 S    
C16   C38   1.490243 S    
C10   C16   1.548958 S    
C11   C13   1.550401 S    
C40   O26   1.220605 D    
C1    C28   1.488375 S    
O3    C1    1.299292 A    
C9    C11   1.542006 S    
C32   Cl12  1.772441 S    
C7    C14   1.507857 S    
C19   Cl3   1.776919 S    
C11   C35   1.497935 S    
O7    C3    1.305645 A    
C36   O22   1.219778 D    
C1    O11   1.298766 A    
O5    C7    1.292708 A    
O7    V1    2.025392 S    
C24   C27   1.414949 A    
O6    C8    1.292709 A    
O8    V2    2.025391 S    
C25   C27   1.412885 A    
C26   C28   1.412886 A    
C17   C22   1.420030 A    
O3    V1    2.006375 S    
C38   H4    1.082234 S    
O14   V4    1.721062 S    
C10   C12   1.542006 S    
C15   C37   1.490244 S    
C24   C26   1.407308 A    
C35   H1    1.083957 S    
C2    O12   1.298766 A    
C17   C19   1.415270 A    
C18   C20   1.415270 A    
C12   C36   1.497936 S    
C20   C22   1.417276 A    
O11   V3    2.004921 S    
C29   C31   1.411031 A    
O17   V3    1.994917 S    
C30   C32   1.411031 A    
C35   O21   1.219777 D    
C26   Cl8   1.772525 S    
C37   H3    1.082228 S    
C20   Cl4   1.776920 S    
C40   H6    1.084825 S    
O8    C4    1.305645 A    
C30   Cl10  1.767851 S    
C3    C34   1.498800 S    
O15   V3    2.007014 S    
C37   O23   1.219375 D    
C18   C21   1.420030 A    
C36   H2    1.083958 S    
C24   Cl6   1.768046 S    
O10   V2    2.005709 S    
O1    V3    2.000755 S    
C19   C21   1.417275 A    
C2    C27   1.488375 S    
O18   V4    1.994915 S    
C31   C33   1.417076 A    
O16   C6    1.305100 A    
O1    C3    1.298453 A    
C39   O25   1.220604 D    
C12   C14   1.550399 S    
V2    O20   1.700113 S    
C4    C33   1.498802 S    
O16   V4    2.007017 S    
O18   C8    1.304607 A    
C12   C15   1.546715 S    
C29   Cl9   1.767851 S    
C29   C34   1.414500 A    
C23   C28   1.414949 A    
O5    V1    2.017823 S    
O17   C7    1.304607 A    
O6    V2    2.017822 S    
O10   C6    1.298613 A    
C18   C40   1.489676 S    
C9    C14   1.549501 S    
O2    V4    2.000758 S    
C6    C22   1.494728 S    
C25   Cl7   1.772525 S    
O15   C5    1.305100 A    
C11   C16   1.546715 S    
V3    O19   2.174797 S    
C14   C16   1.539475 S    
C8    C13   1.507857 S    
O9    C5    1.298613 A    
O13   V1    2.145476 S    
C32   C34   1.417077 A    
O14   V2    2.145477 S    
C23   Cl5   1.768046 S    
C31   Cl11  1.772441 S    
O2    C4    1.298451 A    
C17   C39   1.489675 S    
O4    V2    2.006372 S    
C13   C15   1.539475 S    
C38   O24   1.219375 D    
O12   V4    2.004919 S    
C30   C33   1.414500 A    
