data_mof_unit_36663.cif
_audit_creation_date              2012-12-10T17:52:21-0500
_audit_creation_method            fapswitch 2.2
_symmetry_space_group_name_H-M    P1
_symmetry_Int_Tables_number       1
_space_group_crystal_system       triclinic
_cell_length_a                    19.108265
_cell_length_b                    10.670495
_cell_length_c                    9.927409
_cell_angle_alpha                 84.502487
_cell_angle_beta                  89.189215
_cell_angle_gamma                 95.07379
_cell_volume                      2006.41783228

loop_
_atom_site_label
_atom_site_type_symbol
_atom_type_description
_atom_site_fract_x
_atom_site_fract_y
_atom_site_fract_z
_atom_type_partial_charge
C1    C     C_R   0.511542 0.262740 0.505621 1.051565
C2    C     C_R   0.293223 0.545661 0.505104 -0.274875
C3    C     C_R   0.933431 0.569862 0.524511 0.400805
C4    C     C_R   0.074654 0.581259 0.524431 0.367455
C5    C     C_R   0.817751 0.498387 0.638031 0.347252
C6    C     C_R   0.746176 0.459250 0.620860 0.318725
C7    C     C_R   0.712030 0.509846 0.503220 -0.284000
C8    C     C_R   0.752076 0.581867 0.397589 0.380951
C9    C     C_R   0.824195 0.602108 0.407949 -0.214266
C10   C     C_R   0.857083 0.560756 0.526014 -0.180423
C11   C     C_R   0.467390 0.076120 0.748430 -0.183934
C12   C     C_R   0.366896 0.515617 0.499985 0.984703
C13   C     C_R   0.422911 0.992604 0.835882 0.453302
C14   C     C_R   0.387599 0.886754 0.787905 -0.196243
C15   C     C_R   0.405317 0.853536 0.661221 -0.119456
C16   C     C_R   0.459295 0.926041 0.582414 0.064660
C17   C     C_R   0.482030 0.046592 0.615479 0.000523
C18   C     C_R   0.521783 0.128682 0.516960 -0.227614
C19   C     C_R   0.556669 0.079852 0.408550 0.310421
C20   C     C_R   0.542289 0.952102 0.389416 0.324616
C21   C     C_R   0.495619 0.875588 0.479902 -0.181577
C22   C     C_R   0.374541 0.355550 0.138035 0.257188
C23   C     C_R   0.499123 0.740741 0.493374 0.932193
C24   C     C_R   0.321756 0.318168 0.041382 0.325683
C25   C     C_R   0.342522 0.297972 0.913559 -0.251928
C26   C     C_R   0.406172 0.344817 0.864167 -0.179435
C27   C     C_R   0.450636 0.422893 0.934019 0.059797
C28   C     C_R   0.443924 0.424953 0.079820 0.058520
C29   C     C_R   0.548359 0.572097 0.063125 -0.027049
C30   C     C_R   0.547399 0.574778 0.920683 0.469683
C31   C     C_R   0.634895 0.501775 0.499827 1.021189
C32   C     C_R   0.254074 0.503717 0.624270 -0.238804
C33   C     C_R   0.183989 0.525814 0.636203 0.442369
C34   C     C_R   0.150741 0.583914 0.525346 -0.086517
C35   C     C_R   0.189896 0.634736 0.410411 -0.204237
C36   C     C_R   0.261758 0.621120 0.400885 0.375754
H1    H     H_    0.277873 0.453629 0.709162 0.199175
H2    H     H_    0.495149 0.155980 0.789152 0.226913
H3    H     H_    0.350813 0.824296 0.852632 0.183178
H4    H     H_    0.380745 0.766076 0.629610 0.156215
H5    H     H_    0.587398 0.632032 0.110027 0.231457
H6    H     H_    0.307913 0.249496 0.846094 0.220359
H7    H     H_    0.415764 0.328504 0.762900 0.235541
H8    H     H_    0.163875 0.683777 0.327540 0.221431
H9    H     H_    0.854946 0.651180 0.323108 0.223237
N1    N     N_R   0.042017 0.682696 0.473442 -0.120621
N2    N     N_R   0.972177 0.677085 0.473587 -0.113703
N3    N     N_R   0.966281 0.467601 0.570584 -0.067038
N4    N     N_R   0.035731 0.473259 0.570715 -0.057222
N5    N     N_R   0.499340 0.498800 0.142780 -0.124567
N6    N     N_R   0.499320 0.498720 0.857170 -0.154237
O1    O     O_R   0.500000 0.316780 0.614690 -0.654613
O2    O     O_R   0.499990 0.316750 0.385360 -0.553059
O3    O     O_R   0.398140 0.500000 0.614700 -0.675683
O4    O     O_R   0.398130 0.499970 0.385370 -0.537303
O5    O     O_R   0.500010 0.683250 0.614640 -0.612585
O6    O     O_R   0.500000 0.683220 0.385310 -0.551726
O7    O     O_R   0.601870 0.500030 0.614630 -0.553304
O8    O     O_R   0.601860 0.500000 0.385300 -0.562525
Zn1   Zn    Zn3+2 0.500000 0.500020 0.653130 1.029920
Zn2   Zn    Zn3+2 0.500000 0.499980 0.346870 1.128718
S1    S     S_3+6 0.416262 0.009206 0.008802 0.072751
O9    O     O_2   0.340424 0.018483 0.044287 -0.204327
O10   O     O_2   0.440728 0.893064 0.084438 -0.229165
O11   O     O_3   0.466041 0.136808 0.050031 -0.542948
H10   H     H_    0.463977 0.129959 0.150195 0.407080
Cl1   Cl    Cl    0.581424 0.887735 0.251507 -0.385676
S2    S     S_3+6 0.344183 0.265954 0.299886 0.105004
O12   O     O_2   0.335647 0.129180 0.274291 -0.165249
O13   O     O_2   0.380615 0.268097 0.430363 -0.317481
O14   O     O_3   0.264594 0.306484 0.342046 -0.439402
H11   H     H_    0.267539 0.398362 0.317765 0.361728
S3    S     S_3+6 0.228068 0.282308 0.067729 0.161678
O15   O     O_2   0.193300 0.257471 0.936874 -0.216661
O16   O     O_2   0.210931 0.165618 0.163721 -0.084322
O17   O     O_3   0.191945 0.405135 0.126484 -0.480994
H12   H     H_    0.212474 0.480428 0.068416 0.377698
Cl2   Cl    Cl    0.139820 0.485455 0.793286 -0.449951
Cl3   Cl    Cl    0.610102 0.679083 0.826705 -0.455331
S4    S     S_3+6 0.309555 0.708552 0.264048 0.070786
O18   O     O_2   0.371518 0.782188 0.318421 -0.259962
O19   O     O_2   0.264104 0.799181 0.190015 -0.200830
O20   O     O_3   0.337089 0.611515 0.155181 -0.617781
H13   H     H_    0.360217 0.667870 0.079359 0.383666
S5    S     S_3+6 0.856897 0.485044 0.800899 0.138313
O21   O     O_2   0.891061 0.363225 0.820815 -0.191899
O22   O     O_2   0.911984 0.593391 0.810219 -0.245966
O23   O     O_3   0.796735 0.488862 0.925313 -0.441541
H14   H     H_    0.822458 0.473896 0.010451 0.396545
S6    S     S_3+6 0.702475 0.337484 0.737485 0.135447
O24   O     O_2   0.666682 0.396173 0.848345 -0.212476
O25   O     O_2   0.648341 0.258613 0.666815 -0.297841
O26   O     O_3   0.759734 0.240398 0.806439 -0.447368
H15   H     H_    0.732702 0.186510 0.879572 0.401601
Cl4   Cl    Cl    0.715496 0.651734 0.249946 -0.463699
S7    S     S_3+6 0.623266 0.174892 0.306535 0.113608
O27   O     O_2   0.590458 0.241085 0.186193 -0.251855
O28   O     O_2   0.659180 0.271367 0.388049 -0.304813
O29   O     O_3   0.685814 0.089269 0.251680 -0.430377
H16   H     H_    0.716051 0.149156 0.188649 0.397058

loop_
_geom_bond_atom_site_label_1
_geom_bond_atom_site_label_2
_ccdc_geom_bond_type
C8    C9    A    
C30   N6    A    
C9    H9    S    
C16   C21   A    
S3    O15   D    
C20   Cl1   S    
C35   C36   A    
C2    C12   S    
C7    C8    A    
O3    Zn1   S    
S5    O21   D    
C26   C27   A    
S1    O9    D    
O20   H13   S    
C31   O7    A    
C18   C19   A    
C5    C6    A    
C33   Cl2   S    
O7    Zn1   S    
C15   C16   A    
S7    O29   S    
C3    N3    A    
C2    C32   A    
C34   C35   A    
C31   O8    A    
C1    O2    A    
S1    O10   D    
O1    Zn1   S    
C14   H3    S    
O2    Zn2   S    
C13   S1    S    
C19   C20   A    
C16   C17   A    
S7    O28   D    
C9    C10   A    
C5    S5    S    
O23   H14   S    
C22   C28   A    
C13   C14   A    
S3    O16   D    
C8    Cl4   S    
C28   N5    A    
S4    O20   S    
C27   N6    A    
C26   H7    S    
C33   C34   A    
C29   N5    A    
S5    O22   D    
C4    C34   S    
O8    Zn2   S    
C7    C31   S    
C23   O5    A    
O17   H12   S    
S4    O19   D    
C36   S4    S    
S2    O12   D    
C4    N1    A    
C25   C26   A    
C6    S6    S    
O5    Zn1   S    
C11   H2    S    
C29   C30   A    
S6    O25   D    
O29   H16   S    
S7    O27   D    
C17   C18   A    
C1    C18   S    
O26   H15   S    
C32   H1    S    
C24   C25   A    
C35   H8    S    
C22   S2    S    
C30   Cl3   S    
N3    N4    A    
C21   C23   S    
S3    O17   S    
C22   C24   A    
S6    O26   S    
S5    O23   S    
C2    C36   A    
C23   O6    A    
N1    N2    A    
C11   C17   A    
S1    O11   S    
C29   H5    S    
S4    O18   D    
C25   H6    S    
O6    Zn2   S    
C6    C7    A    
C4    N4    A    
C32   C33   A    
O14   H11   S    
C3    C10   S    
C11   C13   A    
S6    O24   D    
S2    O14   S    
O4    Zn2   S    
C3    N2    A    
C24   S3    S    
C1    O1    A    
C15   H4    S    
C12   O4    A    
C5    C10   A    
C20   C21   A    
S2    O13   D    
O11   H10   S    
C27   C28   A    
N5    Zn2   S    
C14   C15   A    
N6    Zn1   S    
C12   O3    A    
C19   S7    S    
