data_mof_unit_61636.cif
_audit_creation_date              2013-03-05T16:08:26-0500
_audit_creation_method            fapswitch 2.2
_symmetry_space_group_name_H-M    P1
_symmetry_Int_Tables_number       1
_space_group_crystal_system       triclinic
_cell_length_a                    23.610312
_cell_length_b                    14.432048
_cell_length_c                    13.133051
_cell_angle_alpha                 90.0
_cell_angle_beta                  89.999627
_cell_angle_gamma                 89.99901
_cell_volume                      4475.02351203

loop_
_atom_site_label
_atom_site_type_symbol
_atom_site_description
_atom_site_fract_x
_atom_site_fract_y
_atom_site_fract_z
_atom_type_partial_charge
O1    O     O_R   0.500000 0.376050 0.578280 -0.553817
O2    O     O_R   0.500000 0.623950 0.421720 -0.553811
O3    O     O_R   0.500000 0.623950 0.578280 -0.553818
O4    O     O_R   0.500000 0.376050 0.421720 -0.553820
C1    C     C_R   0.500000 0.328686 0.500000 0.849326
C2    C     C_R   0.500000 0.671314 0.500000 0.849337
O5    O     O_R   0.417880 0.500000 0.578280 -0.572373
O6    O     O_R   0.582120 0.500000 0.421720 -0.572369
O7    O     O_R   0.582120 0.500000 0.578280 -0.572371
O8    O     O_R   0.417880 0.500000 0.421720 -0.572369
C3    C     C_R   0.389434 0.500000 0.500001 0.849904
C4    C     C_R   0.610566 0.499999 0.500000 0.849902
Cu1   Cu    Cu3+1 0.500000 0.500000 0.592680 0.991875
Cu2   Cu    Cu3+1 0.500000 0.500000 0.407320 0.991868
C5    C     C_R   0.880939 0.582873 0.500249 0.634863
C6    C     C_R   0.119061 0.417064 0.500363 0.635055
C7    C     C_R   0.880919 0.417144 0.499713 0.634176
C8    C     C_R   0.119081 0.582793 0.499606 0.633959
N1    N     N_R   0.852670 0.500018 0.499986 -0.439225
N2    N     N_R   0.147329 0.499920 0.499992 -0.439237
C9    C     C_R   0.940303 0.415395 0.499858 -0.007408
C10   C     C_R   0.059697 0.584541 0.499746 -0.007399
C11   C     C_R   0.940323 0.584582 0.500093 -0.007427
C12   C     C_R   0.059677 0.415355 0.500209 -0.007438
C13   C     C_R   0.970119 0.499978 0.499975 -0.005381
C14   C     C_R   0.029881 0.499958 0.499976 -0.005383
C15   C     C_R   0.970436 0.331474 0.499960 -0.140445
C16   C     C_R   0.029563 0.668463 0.499734 -0.140453
C17   C     C_R   0.970476 0.668483 0.499989 -0.140459
C18   C     C_R   0.029524 0.331454 0.500216 -0.140441
O9    O     O_2   0.851559 0.663069 0.500465 -0.526221
O10   O     O_2   0.148441 0.336869 0.500687 -0.526193
O11   O     O_2   0.851520 0.336968 0.499500 -0.526299
O12   O     O_2   0.148479 0.662969 0.499287 -0.526319
H1    H     H_    0.948490 0.265573 0.499910 0.194100
H2    H     H_    0.051509 0.734364 0.499596 0.194104
H3    H     H_    0.948546 0.734399 0.500038 0.194092
H4    H     H_    0.051454 0.265538 0.500355 0.194089
C19   C     C_R   0.238107 0.504570 0.406290 -0.000668
C20   C     C_R   0.761892 0.495317 0.406285 -0.000716
C21   C     C_R   0.238106 0.495300 0.593724 -0.000829
C22   C     C_R   0.761894 0.504726 0.593713 -0.000816
C23   C     C_R   0.297440 0.504673 0.408087 -0.233973
C24   C     C_R   0.702558 0.495243 0.408087 -0.233986
C25   C     C_R   0.297442 0.495272 0.591919 -0.234030
C26   C     C_R   0.702558 0.504771 0.591910 -0.234022
H5    H     H_    0.320933 0.507988 0.337323 0.203408
H6    H     H_    0.679063 0.491884 0.337329 0.203445
H7    H     H_    0.320941 0.491982 0.662676 0.203551
H8    H     H_    0.679060 0.508121 0.662666 0.203534
C27   C     C_R   0.327156 0.499983 0.500002 -0.104658
C28   C     C_R   0.672844 0.500005 0.499999 -0.104659
C29   C     C_R   0.208136 0.499903 0.500002 0.214647
C30   C     C_R   0.791864 0.500037 0.499995 0.214658
C31   C     C_1   0.500000 0.227114 0.500000 -0.192508
C32   C     C_1   0.500000 0.772886 0.500000 -0.192499
C33   C     C_1   0.500000 0.142304 0.500000 0.017378
C34   C     C_1   0.500000 0.857696 0.500000 0.017383
C35   C     C_1   0.500000 0.042404 0.500000 0.028133
C36   C     C_1   0.500000 0.957596 0.500000 0.028134
N3    N     N_1   0.500000 0.500000 0.268070 -0.126010
N4    N     N_1   0.500000 0.500000 0.731930 -0.126007
C37   C     C_1   0.500000 0.500000 0.173600 0.164972
C38   C     C_1   0.500000 0.500000 0.826400 0.165000
C39   C     C_1   0.500000 0.500000 0.050683 -0.038655
C40   C     C_1   0.500000 0.500000 0.949317 -0.038643
C41   C     C_2   0.209171 0.509368 0.305244 0.886542
O13   O     O_2   0.158199 0.496273 0.297579 -0.581862
O14   O     O_R   0.240764 0.528340 0.217526 -0.758111
H9    H     H_    0.216675 0.529621 0.153618 0.351496
C42   C     C_2   0.790826 0.490444 0.305239 0.886579
O15   O     O_2   0.841817 0.503331 0.297585 -0.581879
O16   O     O_R   0.759211 0.471626 0.217507 -0.758149
H10   H     H_    0.783300 0.470276 0.153601 0.351511
C43   C     C_2   0.209173 0.490554 0.694786 0.886701
O17   O     O_2   0.158134 0.502943 0.702357 -0.581911
O18   O     O_R   0.240844 0.472414 0.782629 -0.758241
H11   H     H_    0.216751 0.471104 0.846531 0.351523
C44   C     C_2   0.790827 0.509557 0.694767 0.886674
O19   O     O_2   0.841859 0.497100 0.702358 -0.581906
O20   O     O_R   0.759165 0.527861 0.782581 -0.758230
H12   H     H_    0.783259 0.529222 0.846481 0.351527

loop_
_geom_bond_atom_site_label_1
_geom_bond_atom_site_label_2
_geom_bond_distance
_ccdc_geom_bond_type
O5    Cu1   1.948084 S    
C37   C39   1.614271 S    
C20   C42   1.494212 S    
O16   H10   1.014026 S    
O3    C2    1.234566 A    
O20   H12   1.014024 S    
O18   H11   1.014031 S    
O5    C3    1.227986 A    
O1    C1    1.234566 A    
C11   C17   1.404654 A    
C16   C17   1.395074 A    
C12   C14   1.409147 A    
C33   C35   1.441757 S    
C25   C27   1.397850 A    
C34   C36   1.441757 S    
C26   C28   1.397843 A    
C18   H4    1.083079 S    
C22   C26   1.401139 A    
N3    C37   1.240678 T    
O7    Cu1   1.948079 S    
N4    C38   1.240678 T    
Cu1   N4    1.828777 S    
C20   C24   1.401097 A    
O3    Cu1   1.798821 S    
O6    C4    1.227990 A    
C24   C28   1.397839 A    
C5    C11   1.402296 A    
C9    C15   1.404653 A    
C22   C44   1.494280 S    
C6    C12   1.402308 A    
C10   C16   1.404650 A    
Cu1   Cu2   2.434344 S    
C15   C18   1.395076 A    
O2    C2    1.234565 A    
C7    O11   1.349352 S    
C4    C28   1.470410 S    
C41   O13   1.222360 D    
O8    Cu2   1.948081 S    
C44   O20   1.399498 S    
O4    C1    1.234567 A    
C19   C23   1.401082 A    
C15   H1    1.083080 S    
C13   C14   1.411007 A    
Cu2   N3    1.828777 S    
C7    C9    1.402296 A    
C41   O14   1.399451 S    
C38   C40   1.614271 S    
C5    N1    1.369441 A    
C43   O17   1.222281 D    
C21   C43   1.494304 S    
C8    O12   1.349343 S    
C25   H7    1.083330 S    
C6    N2    1.369438 A    
C43   O18   1.399499 S    
C21   C29   1.421311 A    
N1    C30   1.435656 S    
C20   C30   1.421275 A    
C31   C33   1.223979 T    
O1    Cu1   1.798821 S    
C42   O16   1.399471 S    
C9    C13   1.409154 A    
O6    Cu2   1.948081 S    
C8    C10   1.402305 A    
C19   C41   1.494189 S    
C1    C31   1.465896 S    
C2    C32   1.465898 S    
N2    C29   1.435665 S    
C5    O9    1.349348 S    
C6    O10   1.349340 S    
C26   H8    1.083330 S    
C42   O15   1.222335 D    
C22   C30   1.421316 A    
C23   C27   1.397841 A    
C19   C29   1.421251 A    
C7    N1    1.369435 A    
C32   C34   1.223978 T    
C8    N2    1.369423 A    
C11   C13   1.409149 A    
O4    Cu2   1.798821 S    
O14   H9    1.014034 S    
O2    Cu2   1.798821 S    
O7    C4    1.227989 A    
C12   C18   1.404653 A    
C3    C27   1.470417 S    
O8    C3    1.227993 A    
C44   O19   1.222293 D    
C35   C36   1.223957 T    
C16   H2    1.083080 S    
C39   C40   1.331254 T    
C10   C14   1.409152 A    
C17   H3    1.083076 S    
C21   C25   1.401147 A    
C23   H5    1.083347 S    
C24   H6    1.083340 S    
