data_mof_unit_48850.cif
_audit_creation_date              2012-12-11T15:08:59-0500
_audit_creation_method            fapswitch 2.2
_symmetry_space_group_name_H-M    P1
_symmetry_Int_Tables_number       1
_space_group_crystal_system       triclinic
_cell_length_a                    19.403069
_cell_length_b                    11.365964
_cell_length_c                    18.70308
_cell_angle_alpha                 89.985992
_cell_angle_beta                  90.188452
_cell_angle_gamma                 89.915861
_cell_volume                      4124.64907609

loop_
_atom_site_label
_atom_site_type_symbol
_atom_type_description
_atom_site_fract_x
_atom_site_fract_y
_atom_site_fract_z
_atom_type_partial_charge
C1    C     C_R   0.272320 0.043868 0.853824 0.569772
C2    C     C_R   0.727680 0.043911 0.146169 0.571191
C3    C     C_R   0.772320 0.543868 0.853824 0.569773
C4    C     C_R   0.227680 0.543911 0.146169 0.571192
C5    C     C_3   0.520244 0.724029 0.964754 -0.112593
C6    C     C_3   0.479987 0.723945 0.035225 -0.112387
C7    C     C_3   0.020244 0.224029 0.964755 -0.112595
C8    C     C_3   0.979986 0.223945 0.035225 -0.112388
C9    C     C_3   0.311951 0.529660 0.044147 -0.277075
C10   C     C_3   0.688073 0.529936 0.955871 -0.277069
C11   C     C_3   0.811951 0.029657 0.044147 -0.277072
C12   C     C_3   0.188074 0.029936 0.955871 -0.277071
C13   C     C_3   0.322335 0.558938 0.964405 -0.253465
C14   C     C_3   0.677699 0.559244 0.035611 -0.253410
C15   C     C_3   0.822334 0.058934 0.964405 -0.253465
C16   C     C_3   0.177700 0.059243 0.035612 -0.253412
C17   C     C_3   0.180644 0.522806 0.025746 -0.222345
C18   C     C_3   0.819346 0.522534 0.974254 -0.222167
C19   C     C_3   0.680644 0.022807 0.025746 -0.222348
C20   C     C_3   0.319347 0.022533 0.974254 -0.222168
C21   C     C_3   0.241204 0.709380 0.056536 0.088417
C22   C     C_3   0.758752 0.709383 0.943433 0.088561
C23   C     C_3   0.741207 0.209380 0.056536 0.088414
C24   C     C_3   0.258752 0.209382 0.943434 0.088560
C25   C     C_3   0.241004 0.576089 0.070644 0.079376
C26   C     C_3   0.758985 0.576086 0.929350 0.079621
C27   C     C_3   0.741005 0.076088 0.070644 0.079370
C28   C     C_3   0.258985 0.076085 0.929350 0.079621
C29   C     C_3   0.255197 0.611589 0.932434 0.029334
C30   C     C_3   0.744815 0.611660 0.067564 0.028765
C31   C     C_3   0.755197 0.111588 0.932434 0.029333
C32   C     C_3   0.244816 0.111659 0.067565 0.028766
C33   C     C_3   0.196409 0.524183 0.945088 -0.262753
C34   C     C_3   0.803613 0.524009 0.054926 -0.262604
C35   C     C_3   0.696408 0.024185 0.945088 -0.262753
C36   C     C_3   0.303614 0.024009 0.054926 -0.262603
C37   C     C_3   0.236837 0.726315 0.974203 -0.204326
C38   C     C_3   0.763136 0.726299 0.025758 -0.204368
C39   C     C_3   0.736840 0.226315 0.974204 -0.204318
C40   C     C_3   0.263137 0.226298 0.025758 -0.204366
C41   C     C_3   0.506193 0.699448 0.461559 -0.224189
C42   C     C_3   0.504845 0.699756 0.541662 -0.233936
C43   C     C_3   0.006193 0.199448 0.461559 -0.224189
C44   C     C_3   0.004845 0.199756 0.541662 -0.233936
C45   C     C_R   0.444801 0.817284 0.862211 0.532251
C46   C     C_R   0.555159 0.817261 0.137791 0.532184
C47   C     C_R   0.944801 0.317284 0.862211 0.532251
C48   C     C_R   0.055158 0.317261 0.137791 0.532184
C49   C     C_3   0.561326 0.908002 0.473085 -0.216751
C50   C     C_3   0.430643 0.881846 0.526751 -0.225253
C51   C     C_3   0.061326 0.408003 0.473085 -0.216751
C52   C     C_3   0.930643 0.381846 0.526751 -0.225253
C53   C     C_3   0.439602 0.879573 0.444416 -0.266136
C54   C     C_3   0.553885 0.899429 0.555016 -0.258551
C55   C     C_3   0.939602 0.379573 0.444416 -0.266135
C56   C     C_3   0.053885 0.399429 0.555016 -0.258551
C57   C     C_3   0.510334 0.827103 0.431033 0.062231
C58   C     C_3   0.490562 0.826232 0.569704 0.056019
C59   C     C_3   0.010334 0.327103 0.431033 0.062231
C60   C     C_3   0.990562 0.326232 0.569704 0.056019
C61   C     C_3   0.175925 0.632578 0.462455 -0.252236
C62   C     C_3   0.816295 0.657569 0.542666 -0.251577
C63   C     C_3   0.675925 0.132578 0.462455 -0.252237
C64   C     C_3   0.316295 0.157569 0.542666 -0.251577
C65   C     C_3   0.178810 0.637766 0.542301 -0.276220
C66   C     C_3   0.814185 0.664348 0.462903 -0.262958
C67   C     C_3   0.678809 0.137766 0.542301 -0.276220
C68   C     C_3   0.314185 0.164348 0.462903 -0.262958
C69   C     C_3   0.258553 0.453882 0.472740 -0.152332
C70   C     C_3   0.757441 0.460599 0.526888 -0.147887
C71   C     C_3   0.758553 0.953882 0.472740 -0.152332
C72   C     C_3   0.257441 0.960598 0.526888 -0.147886
C73   C     C_3   0.300112 0.650353 0.442232 -0.268055
C74   C     C_3   0.690486 0.636421 0.557929 -0.272739
C75   C     C_3   0.800112 0.150353 0.442232 -0.268055
C76   C     C_3   0.190486 0.136421 0.557929 -0.272740
C77   C     C_3   0.239681 0.568652 0.430954 0.022778
C78   C     C_3   0.758667 0.575654 0.570740 0.018749
C79   C     C_3   0.739681 0.068652 0.430954 0.022778
C80   C     C_3   0.258667 0.075654 0.570740 0.018749
C81   C     C_3   0.251772 0.602443 0.568671 0.091303
C82   C     C_3   0.746678 0.608926 0.432942 0.087966
C83   C     C_3   0.751772 0.102443 0.568671 0.091303
C84   C     C_3   0.246677 0.108926 0.432942 0.087964
C85   C     C_3   0.262525 0.471853 0.554853 0.087783
C86   C     C_3   0.754344 0.477289 0.444739 0.082447
C87   C     C_3   0.762525 0.971853 0.554853 0.087783
C88   C     C_3   0.254344 0.977289 0.444739 0.082446
C89   C     C_R   0.262244 0.642490 0.855139 0.546915
C90   C     C_R   0.737758 0.642590 0.144861 0.547403
C91   C     C_R   0.762244 0.142490 0.855139 0.546914
C92   C     C_R   0.237758 0.142589 0.144861 0.547402
C93   C     C_3   0.306252 0.667841 0.523719 -0.197172
C94   C     C_3   0.681215 0.647116 0.476181 -0.207436
C95   C     C_3   0.806252 0.167841 0.523719 -0.197172
C96   C     C_3   0.181215 0.147116 0.476181 -0.207436
C97   C     C_R   0.272519 0.044815 0.646490 0.535780
C98   C     C_R   0.726317 0.041415 0.354899 0.539365
C99   C     C_R   0.772519 0.544815 0.646490 0.535780
C100  C     C_R   0.226317 0.541415 0.354899 0.539365
C101  C     C_R   0.469626 0.822535 0.646126 0.537306
C102  C     C_R   0.531327 0.822697 0.354601 0.539331
C103  C     C_R   0.969626 0.322535 0.646126 0.537306
C104  C     C_R   0.031327 0.322697 0.354601 0.539331
C105  C     C_R   0.260415 0.638729 0.644343 0.538698
C106  C     C_R   0.738580 0.642515 0.357020 0.544216
C107  C     C_R   0.760414 0.138729 0.644343 0.538698
C108  C     C_R   0.238580 0.142515 0.357020 0.544214
C109  C     C_3   0.479329 0.916452 0.035511 -0.109635
C110  C     C_3   0.520415 0.916535 0.964489 -0.109571
C111  C     C_3   0.979328 0.416451 0.035511 -0.109636
C112  C     C_3   0.020414 0.416535 0.964489 -0.109571
C113  C     C_3   0.431500 0.819244 0.005876 -0.154757
C114  C     C_3   0.568489 0.819438 0.994119 -0.154908
C115  C     C_3   0.931499 0.319244 0.005875 -0.154756
C116  C     C_3   0.068488 0.319438 0.994120 -0.154907
C117  C     C_3   0.472590 0.820660 0.935775 0.058598
C118  C     C_3   0.527392 0.820692 0.064217 0.058414
C119  C     C_3   0.972591 0.320660 0.935775 0.058598
C120  C     C_3   0.027391 0.320692 0.064218 0.058415
Cr1   Cr    Cr6+3 0.229620 0.836040 0.749110 0.994417
Cr2   Cr    Cr6+3 0.770380 0.836040 0.250890 0.994626
Cr3   Cr    Cr6+3 0.729620 0.336040 0.749110 0.994418
Cr4   Cr    Cr6+3 0.270380 0.336040 0.250890 0.994625
Cr5   Cr    Cr6+3 0.387630 0.990680 0.750730 1.015856
Cr6   Cr    Cr6+3 0.612370 0.990680 0.249270 1.018524
Cr7   Cr    Cr6+3 0.887630 0.490680 0.750730 1.015855
Cr8   Cr    Cr6+3 0.112370 0.490680 0.249270 1.018528
Cr9   Cr    Cr6+3 0.386020 0.676590 0.749210 1.019480
Cr10  Cr    Cr6+3 0.613980 0.676590 0.250790 1.020622
Cr11  Cr    Cr6+3 0.886020 0.176590 0.749210 1.019479
Cr12  Cr    Cr6+3 0.113980 0.176590 0.250790 1.020622
H1    H     H_    0.290519 0.743946 0.077330 0.138837
H2    H     H_    0.709425 0.744139 0.922631 0.138766
H3    H     H_    0.790522 0.243944 0.077330 0.138840
H4    H     H_    0.209425 0.244138 0.922632 0.138766
H5    H     H_    0.270826 0.796258 0.957196 0.091292
H6    H     H_    0.729154 0.796409 0.042757 0.091181
H7    H     H_    0.770830 0.296257 0.957197 0.091288
H8    H     H_    0.229154 0.296408 0.042757 0.091181
H9    H     H_    0.183295 0.750644 0.959156 0.131792
H10   H     H_    0.816680 0.750379 0.040776 0.131855
H11   H     H_    0.683298 0.250646 0.959159 0.131800
H12   H     H_    0.316680 0.250380 0.040777 0.131855
H13   H     H_    0.632320 0.073379 0.034031 0.132366
H14   H     H_    0.367677 0.072825 0.965919 0.132490
H15   H     H_    0.132321 0.573379 0.034030 0.132376
H16   H     H_    0.867676 0.572827 0.965919 0.132489
H17   H     H_    0.149615 0.550752 0.914692 0.122211
H18   H     H_    0.850385 0.550435 0.085305 0.122315
H19   H     H_    0.649615 0.050756 0.914693 0.122212
H20   H     H_    0.350386 0.050436 0.085305 0.122316
H21   H     H_    0.546522 0.640693 0.443527 0.144704
H22   H     H_    0.466802 0.632765 0.558230 0.160467
H23   H     H_    0.046522 0.140693 0.443527 0.144703
H24   H     H_    0.966802 0.132765 0.558230 0.160467
H25   H     H_    0.459000 0.655616 0.441116 0.119774
H26   H     H_    0.554161 0.668660 0.563518 0.118707
H27   H     H_    0.959001 0.155616 0.441116 0.119774
H28   H     H_    0.054161 0.168660 0.563518 0.118707
H29   H     H_    0.614749 0.897905 0.455941 0.108952
H30   H     H_    0.389121 0.826523 0.540874 0.105647
H31   H     H_    0.114750 0.397905 0.455941 0.108952
H32   H     H_    0.889121 0.326523 0.540874 0.105647
H33   H     H_    0.600480 0.859975 0.579754 0.100702
H34   H     H_    0.399083 0.826039 0.418243 0.102714
H35   H     H_    0.100480 0.359975 0.579754 0.100702
H36   H     H_    0.899083 0.326038 0.418243 0.102714
H37   H     H_    0.435820 0.969580 0.421666 0.111181
H38   H     H_    0.545619 0.987960 0.578655 0.121476
H39   H     H_    0.935820 0.469580 0.421666 0.111181
H40   H     H_    0.045619 0.487960 0.578655 0.121476
H41   H     H_    0.421921 0.972792 0.544685 0.131287
H42   H     H_    0.544738 0.998222 0.459345 0.126958
H43   H     H_    0.921921 0.472792 0.544685 0.131286
H44   H     H_    0.044738 0.498222 0.459346 0.126958
H45   H     H_    0.127454 0.596514 0.445400 0.136903
H46   H     H_    0.869311 0.633026 0.558358 0.147837
H47   H     H_    0.627454 0.096514 0.445400 0.136903
H48   H     H_    0.369311 0.133026 0.558358 0.147837
H49   H     H_    0.173041 0.722513 0.440889 0.206374
H50   H     H_    0.807820 0.744136 0.565894 0.188546
H51   H     H_    0.673041 0.222513 0.440890 0.206372
H52   H     H_    0.307820 0.244137 0.565894 0.188546
H53   H     H_    0.163145 0.728325 0.557390 0.158690
H54   H     H_    0.822124 0.755006 0.447050 0.156604
H55   H     H_    0.663145 0.228325 0.557390 0.158690
H56   H     H_    0.322124 0.255006 0.447050 0.156604
H57   H     H_    0.140770 0.578597 0.566455 0.110210
H58   H     H_    0.859765 0.618189 0.440519 0.107278
H59   H     H_    0.640770 0.078597 0.566455 0.110210
H60   H     H_    0.359765 0.118189 0.440519 0.107277
H61   H     H_    0.724350 0.881452 0.458906 0.076108
H62   H     H_    0.306739 0.927217 0.539705 0.070742
H63   H     H_    0.224350 0.381452 0.458906 0.076108
H64   H     H_    0.806739 0.427218 0.539705 0.070742
H65   H     H_    0.721403 0.919723 0.581454 0.081113
H66   H     H_    0.302870 0.944904 0.420035 0.091172
H67   H     H_    0.221403 0.419723 0.581454 0.081113
H68   H     H_    0.802870 0.444904 0.420035 0.091171
H69   H     H_    0.291434 0.735181 0.414238 0.127904
H70   H     H_    0.689223 0.723847 0.584041 0.103645
H71   H     H_    0.791435 0.235181 0.414238 0.127902
H72   H     H_    0.189223 0.223846 0.584041 0.103645
H73   H     H_    0.535925 0.643398 0.935704 0.124946
H74   H     H_    0.464410 0.643261 0.064239 0.125086
H75   H     H_    0.035924 0.143399 0.935704 0.124946
H76   H     H_    0.964409 0.143261 0.064239 0.125085
H77   H     H_    0.294130 0.756421 0.534276 0.096830
H78   H     H_    0.661501 0.732809 0.460459 0.095490
H79   H     H_    0.794130 0.256421 0.534276 0.096830
H80   H     H_    0.161502 0.232809 0.460459 0.095490
H81   H     H_    0.358493 0.644104 0.541674 0.173841
H82   H     H_    0.641288 0.582730 0.462431 0.189317
H83   H     H_    0.858492 0.144104 0.541674 0.173841
H84   H     H_    0.141288 0.082730 0.462431 0.189317
H85   H     H_    0.310838 0.430391 0.454211 0.170078
H86   H     H_    0.715625 0.401728 0.545380 0.165349
H87   H     H_    0.810838 0.930391 0.454211 0.170078
H88   H     H_    0.215625 0.901728 0.545380 0.165350
H89   H     H_    0.316520 0.434796 0.052314 0.145751
H90   H     H_    0.683535 0.435096 0.947731 0.145748
H91   H     H_    0.816520 0.934794 0.052315 0.145751
H92   H     H_    0.183533 0.935098 0.947729 0.145745
H93   H     H_    0.354056 0.569441 0.076358 0.103196
H94   H     H_    0.645970 0.569878 0.923641 0.103037
H95   H     H_    0.854057 0.069439 0.076357 0.103195
H96   H     H_    0.145971 0.069882 0.923642 0.103035
H97   H     H_    0.365207 0.622321 0.958391 0.127144
H98   H     H_    0.634796 0.622749 0.041639 0.127180
H99   H     H_    0.865209 0.122312 0.958389 0.127145
H100  H     H_    0.134796 0.122746 0.041640 0.127182
H101  H     H_    0.337712 0.478633 0.934921 0.188808
H102  H     H_    0.662373 0.478985 0.065115 0.189239
H103  H     H_    0.837709 0.978626 0.934921 0.188811
H104  H     H_    0.162374 0.978983 0.065115 0.189233
H105  H     H_    0.667115 0.937241 0.046868 0.095479
H106  H     H_    0.332793 0.936876 0.953161 0.095540
H107  H     H_    0.167115 0.437240 0.046868 0.095476
H108  H     H_    0.832794 0.436877 0.953160 0.095540
H109  H     H_    0.711585 0.936238 0.926124 0.158610
H110  H     H_    0.288477 0.936122 0.073940 0.158586
H111  H     H_    0.211588 0.436236 0.926124 0.158614
H112  H     H_    0.788476 0.436121 0.073939 0.158596
O1    O     O_R   0.214130 0.708570 0.829890 -0.529882
O2    O     O_R   0.785870 0.708570 0.170110 -0.529471
O3    O     O_R   0.714130 0.208570 0.829890 -0.529882
O4    O     O_R   0.285870 0.208570 0.170110 -0.529472
O5    O     O_R   0.446360 0.919990 0.675230 -0.508389
O6    O     O_R   0.553640 0.919990 0.324770 -0.508633
O7    O     O_R   0.946360 0.419990 0.675230 -0.508389
O8    O     O_R   0.053640 0.419990 0.324770 -0.508633
O9    O     O_R   0.457170 0.717300 0.668380 -0.523930
O10   O     O_R   0.542830 0.717300 0.331620 -0.526211
O11   O     O_R   0.957170 0.217300 0.668380 -0.523930
O12   O     O_R   0.042830 0.217300 0.331620 -0.526211
O13   O     O_R   0.320870 0.624890 0.673130 -0.484969
O14   O     O_R   0.679130 0.624890 0.326870 -0.486479
O15   O     O_R   0.820870 0.124890 0.673130 -0.484969
O16   O     O_R   0.179130 0.124890 0.326870 -0.486481
O17   O     O_3   0.334430 0.834430 0.749680 -0.295051
O18   O     O_3   0.665570 0.834430 0.250320 -0.297962
O19   O     O_3   0.834430 0.334430 0.749680 -0.295051
O20   O     O_3   0.165570 0.334430 0.250320 -0.297962
O21   O     O_R   0.236050 0.959150 0.825270 -0.528239
O22   O     O_R   0.763950 0.959150 0.174730 -0.527815
O23   O     O_R   0.736050 0.459150 0.825270 -0.528239
O24   O     O_R   0.263950 0.459150 0.174730 -0.527817
O25   O     O_R   0.332100 0.076650 0.832310 -0.482698
O26   O     O_R   0.667900 0.076650 0.167690 -0.481919
O27   O     O_R   0.832100 0.576650 0.832310 -0.482698
O28   O     O_R   0.167900 0.576650 0.167690 -0.481905
O29   O     O_R   0.446500 0.918620 0.826240 -0.507576
O30   O     O_R   0.553500 0.918620 0.173760 -0.507467
O31   O     O_R   0.946500 0.418620 0.826240 -0.507576
O32   O     O_R   0.053500 0.418620 0.173760 -0.507467
O33   O     O_R   0.457310 0.715830 0.831280 -0.522590
O34   O     O_R   0.542690 0.715830 0.168720 -0.521949
O35   O     O_R   0.957310 0.215830 0.831280 -0.522591
O36   O     O_R   0.042690 0.215830 0.168720 -0.521949
O37   O     O_R   0.321000 0.623520 0.824130 -0.509052
O38   O     O_R   0.679000 0.623520 0.175870 -0.507278
O39   O     O_R   0.821000 0.123520 0.824130 -0.509052
O40   O     O_R   0.179000 0.123520 0.175870 -0.507277
O41   O     O_R   0.213990 0.710040 0.667000 -0.541766
O42   O     O_R   0.786010 0.710040 0.333000 -0.542036
O43   O     O_R   0.713990 0.210040 0.667000 -0.541766
O44   O     O_R   0.286010 0.210040 0.333000 -0.542036
O45   O     O_R   0.235920 0.960520 0.674260 -0.513718
O46   O     O_R   0.764080 0.960520 0.325740 -0.515688
O47   O     O_R   0.735920 0.460520 0.674260 -0.513718
O48   O     O_R   0.264080 0.460520 0.325740 -0.515688
O49   O     O_R   0.331960 0.078120 0.669410 -0.526261
O50   O     O_R   0.668040 0.078120 0.330590 -0.522381
O51   O     O_R   0.831960 0.578120 0.669410 -0.526261
O52   O     O_R   0.168040 0.578120 0.330590 -0.522381
H113  H     H_    0.376630 0.806903 0.016076 0.076818
H114  H     H_    0.623398 0.807405 0.983946 0.076853
H115  H     H_    0.876630 0.306900 0.016070 0.076818
H116  H     H_    0.123398 0.307404 0.983947 0.076853
O53   O     O_3   0.188922 0.770846 0.093085 -0.718067
H117  H     H_    0.143866 0.754714 0.070112 0.323787
O54   O     O_3   0.811005 0.770664 0.906871 -0.718946
H118  H     H_    0.856079 0.754240 0.929794 0.323818
O55   O     O_3   0.688927 0.270850 0.093084 -0.718076
H119  H     H_    0.643868 0.254701 0.070121 0.323795
O56   O     O_3   0.311006 0.270665 0.906872 -0.718945
H120  H     H_    0.356079 0.254240 0.929795 0.323818
H121  H     H_    0.464021 0.996632 0.065221 0.113589
H122  H     H_    0.535625 0.996753 0.934802 0.113592
H123  H     H_    0.964020 0.496632 0.065221 0.113590
H124  H     H_    0.035624 0.496753 0.934802 0.113592
H125  H     H_    0.348004 0.611465 0.420090 0.115539
H126  H     H_    0.649365 0.581081 0.581674 0.125571
H127  H     H_    0.848004 0.111465 0.420090 0.115539
H128  H     H_    0.149365 0.081081 0.581674 0.125571
O57   O     O_3   0.328081 0.438344 0.580311 -0.737454
H129  H     H_    0.322338 0.413260 0.630817 0.334036
O58   O     O_3   0.698221 0.416130 0.415331 -0.752833
H130  H     H_    0.709583 0.399098 0.364639 0.333606
O59   O     O_3   0.828081 0.938344 0.580311 -0.737454
H131  H     H_    0.822338 0.913260 0.630817 0.334036
O60   O     O_3   0.198222 0.916130 0.415331 -0.752837
H132  H     H_    0.209582 0.899100 0.364639 0.333609

loop_
_geom_bond_atom_site_label_1
_geom_bond_atom_site_label_2
_ccdc_geom_bond_type
C4    O28   A    
C61   H45   S    
C82   C94   S    
C55   C59   S    
C90   O38   A    
C73   C93   S    
C42   C58   S    
C29   C89   S    
C75   C95   S    
C48   C120  S    
Cr5   O29   S    
O53   H117  S    
C57   C102  S    
C46   O30   A    
C59   C104  S    
C72   H62   S    
C5    C6    S    
Cr11  O11   S    
Cr4   O20   S    
C22   C38   S    
C29   C33   S    
C30   C38   S    
C77   C100  S    
C115  H115  S    
C9    C13   S    
C11   C15   S    
C12   C16   S    
C60   C103  S    
Cr11  O19   S    
C100  O52   A    
Cr2   O2    S    
C71   C87   S    
C83   C107  S    
C55   H36   S    
C72   H88   S    
C21   H1    S    
C67   H55   S    
C109  C118  S    
C65   H53   S    
C48   O36   A    
C94   H82   S    
C50   C53   S    
C63   H51   S    
O60   H132  S    
C7    C119  S    
C11   H91   S    
C62   C66   S    
Cr2   O18   S    
C20   C28   S    
Cr4   O48   S    
C73   H69   S    
Cr4   O24   S    
C101  O9    A    
C43   C44   S    
C66   C82   S    
O54   H118  S    
C11   C27   S    
C38   H6    S    
C58   C101  S    
C70   H86   S    
C52   H43   S    
C17   H107  S    
C65   H57   S    
C45   O33   A    
C66   H54   S    
C20   H14   S    
C54   H33   S    
C87   O59   S    
Cr7   O51   S    
Cr8   O52   S    
C61   H49   S    
Cr6   O26   S    
C3    C26   S    
C84   C88   S    
Cr7   O31   S    
C74   H126  S    
C96   H84   S    
C103  O7    A    
Cr5   O5    S    
C17   C25   S    
C100  O48   A    
C19   C35   S    
C76   C96   S    
C32   C92   S    
Cr8   O8    S    
C20   H106  S    
C40   H8    S    
C89   O1    A    
C97   O45   A    
C51   H44   S    
C14   H98   S    
C71   H61   S    
C10   H90   S    
C85   O57   S    
C61   C65   S    
C53   H34   S    
O59   H131  S    
C5    C117  S    
C78   C99   S    
C73   C77   S    
C33   H17   S    
C75   C79   S    
C75   H127  S    
Cr6   O50   S    
C67   C83   S    
C104  O8    A    
C80   C97   S    
C50   H30   S    
C69   C77   S    
C111  C112  S    
Cr2   O46   S    
C71   C79   S    
C4    C25   S    
C92   O4    A    
C7    C8    S    
Cr12  O16   S    
C64   C68   S    
C42   H22   S    
Cr9   O13   S    
C1    O25   A    
C2    O22   A    
C69   H63   S    
C49   C57   S    
C110  H122  S    
C107  O15   A    
C52   C60   S    
C84   C108  S    
C61   C77   S    
C91   O39   A    
C110  C114  S    
C49   H29   S    
C43   C59   S    
C24   H4    S    
Cr6   O30   S    
Cr7   O27   S    
Cr8   O28   S    
Cr10  O14   S    
C18   H108  S    
C41   H21   S    
Cr12  O36   S    
C81   C105  S    
C30   C34   S    
C44   H24   S    
C7    H75   S    
C10   C14   S    
C75   H71   S    
C36   H20   S    
C105  O41   A    
C116  C120  S    
C7    C116  S    
Cr4   O4    S    
C107  O43   A    
C108  O44   A    
Cr3   O23   S    
C17   C33   S    
C88   O60   S    
C113  C117  S    
C48   O32   A    
Cr9   O9    S    
C94   H78   S    
C115  C119  S    
C74   C78   S    
C33   H111  S    
C29   C37   S    
C112  C116  S    
C69   C85   S    
Cr2   O22   S    
C13   H101  S    
C45   C117  S    
C21   C25   S    
C113  H113  S    
C15   H99   S    
C62   C78   S    
C101  O5    A    
C76   C80   S    
C35   H109  S    
C16   C32   S    
C31   C91   S    
C36   H110  S    
C24   O56   S    
C72   C80   S    
C45   O29   A    
C66   H58   S    
C56   H35   S    
Cr1   O1    S    
C82   C106  S    
C6    H74   S    
C64   H52   S    
C68   H56   S    
C11   H95   S    
Cr5   O17   S    
C9    H93   S    
C81   C85   S    
C83   C87   S    
C96   H80   S    
C103  O11   A    
C41   C42   S    
C74   C94   S    
C18   C26   S    
C30   C90   S    
C34   H18   S    
C9    C25   S    
C37   H9    S    
C12   C28   S    
C50   H41   S    
C97   O49   A    
C13   C29   S    
C98   O46   A    
C99   O51   A    
C19   H105  S    
Cr9   O17   S    
C12   H96   S    
C71   H87   S    
C46   C118  S    
C88   H66   S    
C12   H92   S    
C47   O35   A    
C1    C28   S    
C51   H31   S    
C2    C27   S    
Cr3   O47   S    
Cr11  O35   S    
C52   C55   S    
C53   H37   S    
Cr12  O20   S    
C111  H123  S    
C56   H40   S    
C64   C80   S    
C42   H26   S    
C35   H19   S    
C43   H23   S    
C110  C117  S    
C55   H39   S    
C49   H42   S    
C39   H7    S    
C2    O26   A    
C91   O3    A    
C3    O23   A    
C93   H81   S    
O56   H120  S    
C68   C84   S    
C24   C28   S    
C53   C57   S    
C74   H70   S    
C82   C86   S    
C34   H112  S    
C56   C60   S    
C102  O10   A    
C50   C58   S    
C62   H50   S    
C65   C81   S    
C76   H128  S    
Cr1   O41   S    
C15   C31   S    
Cr10  O18   S    
Cr3   O43   S    
C52   H32   S    
Cr11  O15   S    
Cr11  O39   S    
Cr4   O44   S    
Cr12  O40   S    
C44   H28   S    
C31   C35   S    
C23   O55   S    
C87   H65   S    
Cr1   O21   S    
C32   C36   S    
C105  O13   A    
C106  O42   A    
C112  C119  S    
C4    O24   A    
C89   O37   A    
C23   H3    S    
Cr6   O6    S    
C22   O54   S    
C41   C57   S    
C109  C110  S    
C44   C60   S    
C90   O2    A    
C46   O34   A    
Cr7   O19   S    
C47   O31   A    
Cr8   O20   S    
C13   H97   S    
O58   H130  S    
C20   C36   S    
C9    H89   S    
C21   C37   S    
C92   O40   A    
O55   H119  S    
C22   C26   S    
C15   H103  S    
C114  H114  S    
C16   H104  S    
C5    C114  S    
C70   C78   S    
C95   H83   S    
C79   C98   S    
C69   H85   S    
C3    O27   A    
C63   C79   S    
C19   H13   S    
C22   H2    S    
C17   H15   S    
C18   H16   S    
C64   H48   S    
C67   H59   S    
C68   H60   S    
C49   C54   S    
C63   H47   S    
Cr6   O18   S    
C51   C56   S    
C84   C96   S    
C8    H76   S    
Cr8   O32   S    
C8    C115  S    
Cr1   O17   S    
C85   H67   S    
Cr3   O19   S    
Cr9   O33   S    
C23   C27   S    
C19   C27   S    
Cr7   O7    S    
C109  C113  S    
C10   C26   S    
C47   C119  S    
C112  H124  S    
C37   H5    S    
C38   H10   S    
C98   O50   A    
C43   H27   S    
C14   C30   S    
C99   O47   A    
C72   C88   S    
C63   C67   S    
C16   H100  S    
Cr5   O25   S    
C111  C120  S    
Cr10  O34   S    
C73   H125  S    
C6    C113  S    
C81   C93   S    
C83   C95   S    
Cr9   O37   S    
C18   C34   S    
C114  C118  S    
C70   H64   S    
C39   H11   S    
C40   H12   S    
C93   H77   S    
C41   H25   S    
C108  O16   A    
C51   C59   S    
Cr12  O12   S    
C70   C86   S    
Cr10  O10   S    
C14   H102  S    
C8    C120  S    
C106  O14   A    
C54   C58   S    
C102  O6    A    
C62   H46   S    
Cr5   O49   S    
C76   H72   S    
C95   H79   S    
C104  O12   A    
Cr1   O45   S    
Cr2   O42   S    
Cr10  O38   S    
Cr3   O3    S    
C86   O58   S    
C23   C39   S    
C24   C40   S    
C31   C39   S    
C21   O53   S    
C32   C40   S    
O57   H129  S    
C5    H73   S    
C1    O21   A    
C116  H116  S    
C109  H121  S    
C54   H38   S    
C10   H94   S    
C111  C115  S    
C6    C118  S    
C86   H68   S    
