data_mof_unit_55282.cif
_audit_creation_date              2012-12-11T14:49:48-0500
_audit_creation_method            fapswitch 2.2
_symmetry_space_group_name_H-M    P1
_symmetry_Int_Tables_number       1
_space_group_crystal_system       triclinic
_cell_length_a                    16.952927
_cell_length_b                    16.825805
_cell_length_c                    19.478965
_cell_angle_alpha                 116.808341
_cell_angle_beta                  61.913305
_cell_angle_gamma                 100.647125
_cell_volume                      4372.42956302

loop_
_atom_site_label
_atom_site_type_symbol
_atom_type_description
_atom_site_fract_x
_atom_site_fract_y
_atom_site_fract_z
_atom_type_partial_charge
Br1   Br    Br    0.822874 0.200767 0.886560 -0.405151
Br2   Br    Br    0.978814 0.430539 0.718940 -0.481731
Br3   Br    Br    0.677988 0.032871 0.723296 -0.387681
Br4   Br    Br    0.249932 0.259197 0.593386 -0.519881
Br5   Br    Br    0.489284 0.211154 0.257060 -0.329537
Br6   Br    Br    0.219107 0.539805 0.255701 -0.425087
Br7   Br    Br    0.980312 0.137299 0.210886 -0.368358
Br8   Br    Br    0.935249 0.931724 0.176552 -0.513664
Br9   Br    Br    0.651833 0.384059 0.052938 -0.456466
C1    C     C_R   0.035365 0.759454 0.014815 -0.054941
C2    C     C_R   0.250455 0.516093 0.829753 -0.109087
C3    C     C_R   0.181636 0.494025 0.090773 -0.043886
C4    C     C_R   0.764392 0.418723 0.165694 -0.073364
C5    C     C_R   0.981927 0.351755 0.764973 0.252104
C6    C     C_R   0.251675 0.550814 0.073251 0.091001
C7    C     C_R   0.933021 0.277382 0.762509 -0.107408
C8    C     C_R   0.258082 0.454028 0.749287 0.075328
C9    C     C_R   0.020030 0.225447 0.014309 0.098698
C10   C     C_R   0.979856 0.217388 0.609571 -0.001176
C11   C     C_R   0.915167 0.220129 0.689033 0.085986
C12   C     C_R   0.766283 0.438943 0.241954 0.007443
C13   C     C_R   0.843301 0.163504 0.693554 -0.098595
C14   C     C_R   0.845900 0.092781 0.618173 0.017894
C15   C     C_R   0.919030 0.084911 0.538757 -0.012275
C16   C     C_R   0.806658 0.550817 0.949762 -0.120525
C17   C     C_R   0.980120 0.153144 0.534182 -0.126356
C18   C     C_R   0.782431 0.025680 0.620220 0.337638
C19   C     C_R   0.797420 0.948024 0.545794 -0.229228
C20   C     C_R   0.875471 0.936262 0.470147 0.097512
C21   C     C_R   0.935501 0.006182 0.465502 0.018093
C22   C     C_R   0.016211 0.994328 0.390017 -0.121404
C23   C     C_R   0.723568 0.532440 0.002243 -0.004299
C24   C     C_R   0.075016 0.065710 0.384622 0.380201
C25   C     C_R   0.049007 0.149299 0.455185 0.345942
C26   C     C_R   0.896407 0.854339 0.400016 -0.102673
C27   C     C_R   0.977673 0.841362 0.327631 0.133290
C28   C     C_R   0.978737 0.672881 0.249947 0.498161
C29   C     C_R   0.035741 0.910770 0.322043 -0.009229
C30   C     C_R   0.345884 0.341373 0.595429 0.302540
C31   C     C_R   0.342732 0.409118 0.673865 0.010362
C32   C     C_R   0.423325 0.443974 0.677396 -0.240537
C33   C     C_R   0.502125 0.428065 0.602938 0.129493
C34   C     C_R   0.999003 0.757733 0.253130 -0.085976
C35   C     C_R   0.500953 0.376456 0.523010 0.003457
C36   C     C_R   0.423969 0.329751 0.518610 -0.032881
C37   C     C_R   0.579658 0.471094 0.607537 -0.138987
C38   C     C_R   0.653259 0.470199 0.533597 -0.149023
C39   C     C_R   0.649457 0.426922 0.454769 0.135170
C40   C     C_R   0.736809 0.470233 0.024974 0.308503
C41   C     C_R   0.574945 0.376421 0.448278 0.032515
C42   C     C_R   0.571513 0.332188 0.368567 -0.009649
C43   C     C_R   0.497863 0.279183 0.363190 0.314280
C44   C     C_R   0.425496 0.277562 0.437646 -0.149173
C45   C     C_R   0.244978 0.575808 0.017657 -0.148209
C46   C     C_R   0.715565 0.440089 0.384336 -0.201215
C47   C     C_R   0.707649 0.405815 0.307649 0.067745
C48   C     C_R   0.638566 0.347548 0.298417 -0.152421
C49   C     C_R   0.639505 0.574288 0.029519 0.094429
C50   C     C_R   0.319967 0.583574 0.105824 -0.009988
C51   C     C_R   0.402452 0.572328 0.174441 -0.180990
C52   C     C_R   0.043744 0.750395 0.170615 -0.165326
C53   C     C_R   0.321634 0.567006 0.170216 0.349336
C54   C     C_R   0.393805 0.623599 0.060966 -0.180060
C55   C     C_R   0.475021 0.625854 0.062243 -0.011599
C56   C     C_R   0.915860 0.267911 0.835959 0.300645
C57   C     C_R   0.480244 0.593241 0.115222 0.067643
C58   C     C_R   0.563429 0.573075 0.101825 -0.161889
C59   C     C_R   0.635119 0.617312 0.984205 -0.309420
C60   C     C_R   0.553556 0.647511 0.002895 0.462524
C61   C     C_R   0.795900 0.165699 0.140277 0.017179
C62   C     C_R   0.946787 0.862269 0.005564 0.014703
C63   C     C_R   0.864921 0.934007 0.973522 -0.041953
C64   C     C_R   0.841947 0.487075 0.239891 -0.065063
C65   C     C_R   0.915786 0.862705 0.950557 -0.224585
C66   C     C_R   0.933887 0.941043 0.081621 0.350929
C67   C     C_R   0.173216 0.449848 0.752903 -0.039825
C68   C     C_R   0.896801 0.020141 0.096563 -0.094190
C69   C     C_R   0.852913 0.012913 0.047059 -0.125164
C70   C     C_R   0.798112 0.084909 0.072765 0.450633
C71   C     C_R   0.847188 0.176842 0.182117 -0.348244
C72   C     C_R   0.898233 0.105655 0.160863 0.404822
C73   C     C_R   0.956570 0.691358 0.940613 -0.099290
C74   C     C_R   0.979941 0.775108 0.987122 0.077024
C75   C     C_R   0.046050 0.309194 0.057779 -0.095751
C76   C     C_R   0.968324 0.240439 0.982554 -0.115386
H1    H     H_    0.076211 0.807807 0.041439 0.142914
H2    H     H_    0.750496 0.894870 0.548342 0.181244
H3    H     H_    0.849963 0.800775 0.401772 0.156512
H4    H     H_    0.095787 0.898472 0.263336 0.181462
H5    H     H_    0.424708 0.490555 0.737146 0.154298
H6    H     H_    0.581499 0.509760 0.668789 0.179059
H7    H     H_    0.710880 0.507973 0.538878 0.171535
H8    H     H_    0.768790 0.483826 0.392759 0.166067
H9    H     H_    0.820989 0.588759 0.913722 0.133344
H10   H     H_    0.634119 0.318710 0.238463 0.189051
H11   H     H_    0.368417 0.239657 0.431562 0.235657
H12   H     H_    0.153976 0.411342 0.702065 0.183153
H13   H     H_    0.567660 0.549115 0.143061 0.164628
H14   H     H_    0.694125 0.624520 0.931739 0.180669
H15   H     H_    0.405733 0.553247 0.219305 0.176812
H16   H     H_    0.393067 0.641117 0.014804 0.190234
H17   H     H_    0.847581 0.241927 0.231160 0.196977
H18   H     H_    0.836481 0.926038 0.931736 0.202769
H19   H     H_    0.925471 0.805019 0.891381 0.155861
H20   H     H_    0.075172 0.802272 0.149715 0.157936
H21   H     H_    0.873897 0.494660 0.278351 0.192467
H22   H     H_    0.924286 0.677861 0.900653 0.113923
H23   H     H_    0.083736 0.323328 0.093669 0.143863
H24   H     H_    0.277037 0.630207 0.000589 0.127238
H25   H     H_    0.284981 0.941206 0.216104 0.392894
H26   H     H_    0.149121 0.296217 0.344424 0.396303
H27   H     H_    0.662154 0.791358 0.954801 0.355854
H28   H     H_    0.607494 0.996601 0.027075 0.413242
H29   H     H_    0.020053 0.694698 0.424432 0.403580
H30   H     H_    0.934457 0.189917 0.948680 0.173048
H31   H     H_    0.301700 0.535149 0.851568 0.120216
H32   H     H_    0.160381 0.466079 0.136434 0.175503
H33   H     H_    0.037634 0.258397 0.605267 0.197031
H34   H     H_    0.789535 0.170945 0.754953 0.214580
H35   H     H_    0.726442 0.366503 0.138889 0.181929
N1    N     N_R   0.036080 0.671900 0.995420 -0.055110
N2    N     N_R   0.867430 0.509300 0.948100 -0.059747
N3    N     N_R   0.003360 0.617250 0.167070 -0.103737
N4    N     N_R   0.825450 0.461270 0.995400 -0.077989
N5    N     N_R   0.045340 0.665280 0.119770 -0.072351
N6    N     N_R   0.883740 0.497640 0.167070 -0.065995
N7    N     N_R   0.987050 0.628910 0.948110 -0.043353
N8    N     N_R   0.174550 0.538730 0.004600 -0.052191
N9    N     N_R   0.954660 0.334720 0.880230 -0.093741
N10   N     N_R   0.116260 0.502360 0.832930 -0.046359
N11   N     N_R   0.012950 0.371090 0.051890 -0.059204
N12   N     N_R   0.963920 0.328100 0.004580 -0.047883
N13   N     N_R   0.165290 0.545350 0.880240 -0.051642
N14   N     N_R   0.132570 0.490700 0.051900 -0.058718
N15   N     N_R   0.996640 0.382750 0.832930 -0.092952
N16   N     N_R   0.834710 0.454650 0.119760 -0.057967
Ni1   Ni    Ni4+2 0.104370 0.604370 0.000010 0.230899
Ni2   Ni    Ni4+2 0.895630 0.395630 0.999990 0.282748
Ni3   Ni    Ni4+2 0.991920 0.505780 0.891500 0.276270
Ni4   Ni    Ni4+2 0.008080 0.494220 0.108500 0.275320
O1    O     O_2   0.172546 0.035103 0.218884 -0.219654
O2    O     O_2   0.677300 0.163367 0.068326 -0.203958
O3    O     O_2   0.772403 0.042713 0.934147 -0.246391
O4    O     O_3   0.646482 0.000490 0.053536 -0.497088
O5    O     O_2   0.874681 0.645061 0.390922 -0.343021
O6    O     O_2   0.011877 0.550771 0.286631 -0.298202
O7    O     O_3   0.026899 0.715428 0.381781 -0.487676
O8    O     O_2   0.244652 0.122798 0.312555 -0.155987
O9    O     O_3   0.232732 0.954839 0.272756 -0.535238
O10   O     O_2   0.022556 0.324218 0.508042 -0.228276
O11   O     O_2   0.172814 0.274414 0.463317 -0.232457
O12   O     O_3   0.121905 0.239174 0.345628 -0.413761
O13   O     O_2   0.531767 0.639648 0.872637 -0.273824
O14   O     O_2   0.483787 0.778960 0.003000 -0.264261
O15   O     O_3   0.654176 0.745826 0.904242 -0.472892
S1    S     S_3+6 0.183492 0.047410 0.295287 0.056298
S2    S     S_3+6 0.092680 0.250373 0.445006 0.067389
S3    S     S_3+6 0.553254 0.704121 0.945094 -0.006284
S4    S     S_3+6 0.723298 0.074837 0.029824 0.024526
S5    S     S_3+6 0.971044 0.642539 0.328433 -0.051826

loop_
_geom_bond_atom_site_label_1
_geom_bond_atom_site_label_2
_ccdc_geom_bond_type
C39   C46   A    
C46   C47   A    
N13   Ni1   S    
O10   S2    D    
C32   C33   A    
C26   C27   A    
C23   C49   S    
O2    S4    D    
C54   H16   S    
H25   O9    S    
H26   O12   S    
C24   S1    S    
C68   C69   A    
C43   C44   A    
N15   Ni3   S    
C29   H4    S    
N6    Ni4   S    
C33   C35   A    
O11   S2    D    
C28   S5    S    
N4    Ni2   S    
C19   C20   A    
O9    S1    S    
C15   C17   A    
N2    Ni3   S    
N1    N7    A    
C2    N13   A    
C76   N12   A    
C70   S4    S    
C21   C22   A    
N3    N5    A    
O6    S5    D    
C5    N15   A    
O7    S5    S    
N12   Ni2   S    
C64   N6    A    
C12   C64   A    
C1    C74   A    
C47   C48   A    
C51   C53   A    
C38   H7    S    
N1    Ni1   S    
O13   S3    D    
C10   C17   A    
C63   C69   A    
N11   Ni4   S    
C58   H13   S    
C28   N3    A    
C67   N10   A    
C17   C25   A    
C1    H1    S    
N9    Ni2   S    
C10   C11   A    
C10   H33   S    
C59   C60   A    
H27   O15   S    
C8    C67   A    
C9    C75   A    
C14   C15   A    
C22   C24   A    
Br5   C43   S    
C42   C48   A    
C14   C18   A    
C52   H20   S    
C16   N2    A    
C46   H8    S    
C30   C36   A    
C1    N1    A    
C16   C23   A    
C39   C41   A    
C32   H5    S    
C51   C57   A    
C16   H9    S    
C3    N14   A    
C44   H11   S    
N7    Ni3   S    
N10   Ni3   S    
C41   C42   A    
C62   C74   S    
C13   H34   S    
C73   N7    A    
C9    C76   A    
C61   C71   A    
C42   C43   A    
C6    C45   A    
C76   H30   S    
Br9   C40   S    
C63   C65   A    
C30   C31   A    
O5    S5    D    
C69   C70   A    
C37   H6    S    
N5    Ni1   S    
C67   H12   S    
C55   C60   A    
C40   N4    A    
C45   N8    A    
N3    Ni4   S    
C36   C44   A    
Br8   C66   S    
C3    H32   S    
C45   H24   S    
C71   H17   S    
C8    C31   S    
C55   C57   A    
C28   C34   A    
N8    Ni1   S    
C20   C21   A    
N8    N14   A    
C12   C47   S    
C26   H3    S    
Br1   C56   S    
C38   C39   A    
Br4   C30   S    
C68   C72   A    
C7    C11   S    
N9    N15   A    
C19   H2    S    
C24   C25   A    
C4    C12   A    
C37   C38   A    
C73   H22   S    
O4    S4    S    
C2    H31   S    
C66   C68   A    
N16   Ni2   S    
C31   C32   A    
Br7   C72   S    
C11   C13   A    
C3    C6    A    
C33   C37   A    
C4    N16   A    
C5    C7    A    
N10   N13   A    
N2    N4    A    
N11   N12   A    
C4    H35   S    
C35   C36   A    
C34   C52   A    
C65   H19   S    
C35   C41   A    
O12   S2    S    
C2    C8    A    
C50   C53   A    
C61   C70   A    
C6    C50   S    
C71   C72   A    
C51   H15   S    
H29   O7    S    
C62   C65   A    
C56   N9    A    
H28   O4    S    
O1    S1    D    
O3    S4    D    
C63   H18   S    
C20   C26   A    
C75   N11   A    
C50   C54   A    
C22   C29   A    
Br6   C53   S    
Br3   C18   S    
C59   H14   S    
C62   C66   A    
C49   C59   A    
C64   H21   S    
C27   C29   A    
C75   H23   S    
C60   S3    S    
C57   C58   A    
Br2   C5    S    
C15   C21   A    
C23   C40   A    
N6    N16   A    
C54   C55   A    
C25   S2    S    
C49   C58   A    
N14   Ni4   S    
C73   C74   A    
C48   H10   S    
C18   C19   A    
O14   S3    D    
C13   C14   A    
C27   C34   S    
C52   N5    A    
C7    C56   A    
O8    S1    D    
O15   S3    S    
