data_mof_unit_15809.cif
_audit_creation_date              2012-12-11T15:29:35-0500
_audit_creation_method            fapswitch 2.2
_symmetry_space_group_name_H-M    P1
_symmetry_Int_Tables_number       1
_space_group_crystal_system       triclinic
_cell_length_a                    21.640578
_cell_length_b                    7.320414
_cell_length_c                    15.347459
_cell_angle_alpha                 90.0
_cell_angle_beta                  71.799329
_cell_angle_gamma                 90.00001
_cell_volume                      2309.67108346

loop_
_atom_site_label
_atom_site_type_symbol
_atom_type_description
_atom_site_fract_x
_atom_site_fract_y
_atom_site_fract_z
_atom_type_partial_charge
O1    O     O_R   0.464160 0.506670 0.130070 -0.548884
O2    O     O_R   0.535840 0.006670 0.869930 -0.548884
O3    O     O_R   0.589710 0.179080 0.006710 -0.524301
O4    O     O_R   0.410290 0.679080 0.993290 -0.524301
C1    C     C_R   0.615395 0.344325 0.005618 0.824320
C2    C     C_R   0.384605 0.844325 0.994382 0.824321
O5    O     O_R   0.467940 0.177220 0.138010 -0.525756
O6    O     O_R   0.532060 0.677220 0.861990 -0.525756
O7    O     O_R   0.413200 0.002810 0.002170 -0.540621
O8    O     O_R   0.586800 0.502810 0.997830 -0.540620
C3    C     C_R   0.452701 0.344676 0.173586 0.780263
C4    C     C_R   0.547299 0.844676 0.826414 0.780264
O9    O     O_3   0.482180 0.337850 0.955280 -0.405652
O10   O     O_3   0.517820 0.837850 0.044720 -0.405652
V1    V     V_3+5 0.503310 0.064600 0.008300 1.456107
V2    V     V_3+5 0.496690 0.564600 0.991700 1.456107
C5    C     C_R   0.579612 0.845851 0.725622 -0.231590
C6    C     C_R   0.420388 0.345851 0.274378 -0.231591
C7    C     C_R   0.938455 0.872031 0.275219 -0.167968
C8    C     C_R   0.061545 0.372031 0.724781 -0.167968
C9    C     C_R   0.579635 0.744490 0.574635 0.238971
C10   C     C_R   0.420365 0.244490 0.425365 0.238971
C11   C     C_R   0.549362 0.756870 0.669179 0.582818
C12   C     C_R   0.450638 0.256870 0.330822 0.582819
C13   C     C_R   0.645392 0.898949 0.687955 -0.267759
C14   C     C_R   0.354608 0.398949 0.312045 -0.267759
C15   C     C_R   0.680545 0.864167 0.594350 -0.008835
C16   C     C_R   0.319455 0.364168 0.405650 -0.008834
C17   C     C_R   0.643536 0.812306 0.536464 -0.204075
C18   C     C_R   0.356463 0.312307 0.463536 -0.204075
C19   C     C_R   0.750275 0.881564 0.554395 0.022381
C20   C     C_R   0.249725 0.381564 0.445605 0.022381
C21   C     C_R   0.777324 0.881350 0.456857 -0.117390
C22   C     C_R   0.222676 0.381351 0.543143 -0.117390
C23   C     C_R   0.734603 0.889425 0.403655 0.167501
C24   C     C_R   0.265397 0.389426 0.596345 0.167502
C25   C     C_R   0.669815 0.839823 0.441938 0.579728
C26   C     C_R   0.330185 0.339824 0.558061 0.579726
C27   C     C_R   0.794897 0.886232 0.605695 0.278450
C28   C     C_R   0.205103 0.386232 0.394305 0.278449
C29   C     C_R   0.861428 0.920420 0.561549 -0.258635
C30   C     C_R   0.138572 0.420420 0.438451 -0.258635
C31   C     C_R   0.887545 0.925601 0.466104 -0.022519
C32   C     C_R   0.112455 0.425601 0.533896 -0.022519
C33   C     C_R   0.846147 0.879308 0.414808 0.069244
C34   C     C_R   0.153853 0.379308 0.585192 0.069243
C35   C     C_R   0.954542 0.962935 0.420090 0.287192
C36   C     C_R   0.045458 0.462935 0.579910 0.287192
C37   C     C_R   0.977154 0.956121 0.322916 0.239863
C38   C     C_R   0.022846 0.456121 0.677084 0.239864
C39   C     C_R   0.875160 0.821722 0.323771 -0.265477
C40   C     C_R   0.124840 0.321723 0.676229 -0.265477
H1    H     H_    0.848024 0.743279 0.289234 0.153355
H2    H     H_    0.151975 0.243279 0.710767 0.153355
H3    H     H_    0.893661 0.922412 0.602579 0.134606
H4    H     H_    0.106338 0.422411 0.397421 0.134606
H5    H     H_    0.668535 0.959602 0.733454 0.191559
H6    H     H_    0.331465 0.459602 0.266546 0.191558
C41   C     C_3   0.212279 0.662946 0.994071 1.004232
C42   C     C_3   0.787721 0.162946 0.005929 1.004233
C43   C     C_3   0.286034 0.655767 0.983862 0.242158
C44   C     C_3   0.713966 0.155767 0.016138 0.242158
H7    H     H_    0.311028 0.591085 0.919042 0.095287
H8    H     H_    0.688972 0.091085 0.080958 0.095287
H9    H     H_    0.161376 0.896797 0.150270 0.158113
H10   H     H_    0.838624 0.396796 0.849730 0.158113
H11   H     H_    0.258400 0.790680 0.136894 0.204594
H12   H     H_    0.741599 0.290680 0.863106 0.204594
C45   C     C_3   0.197011 0.953673 0.087640 -0.441816
C46   C     C_3   0.802988 0.453673 0.912360 -0.441816
C47   C     C_3   0.230315 0.970731 0.916562 0.317806
C48   C     C_3   0.769685 0.470731 0.083437 0.317805
C49   C     C_3   0.187045 0.863611 0.000995 -0.242474
C50   C     C_3   0.812955 0.363611 0.999005 -0.242474
H13   H     H_    0.225852 0.905281 0.853641 0.088048
H14   H     H_    0.774149 0.405282 0.146359 0.088048
C51   C     C_3   0.313352 0.851034 0.993843 -0.207756
C52   C     C_3   0.686648 0.351034 0.006157 -0.207756
C53   C     C_3   0.266382 0.911369 0.091465 0.069754
C54   C     C_3   0.733618 0.411369 0.908535 0.069755
C55   C     C_3   0.303909 0.981091 0.914467 0.373784
C56   C     C_3   0.696091 0.481091 0.085532 0.373784
H15   H     H_    0.188554 0.103551 0.088088 0.251321
H16   H     H_    0.811446 0.603551 0.911912 0.251321
O11   O     O_R   0.913210 0.208550 0.002110 -0.497462
O12   O     O_R   0.086790 0.708550 0.997890 -0.497462
O13   O     O_R   0.032060 0.539960 0.861980 -0.547765
O14   O     O_R   0.967940 0.039960 0.138020 -0.547765
C57   C     C_R   0.041890 0.372959 0.826082 0.701829
C58   C     C_R   0.958110 0.872959 0.173918 0.701830
O15   O     O_R   0.910290 0.538020 0.993280 -0.507089
O16   O     O_R   0.089710 0.038020 0.006720 -0.507090
O17   O     O_R   0.964160 0.712340 0.130090 -0.543402
O18   O     O_R   0.035840 0.212340 0.869910 -0.543402
C59   C     C_R   0.884507 0.369902 0.996796 0.780123
C60   C     C_R   0.115493 0.869902 0.003204 0.780123
O19   O     O_3   0.017820 0.379210 0.044690 -0.378574
O20   O     O_3   0.982180 0.879210 0.955310 -0.378574
V3    V     V_3+5 0.996690 0.652500 0.991710 1.579929
V4    V     V_3+5 0.003310 0.152500 0.008290 1.579930
F1    F     F_    0.630830 0.842289 0.387624 -0.704785
F2    F     F_    0.369169 0.342290 0.612376 -0.704785
N1    N     N_2   0.997261 0.024967 0.468968 -0.520968
H17   H     H_    0.978220 0.078204 0.533731 0.245972
C61   C     C_3   0.061266 0.943745 0.449657 -0.472358
H18   H     H_    0.065666 0.877064 0.512418 0.179296
H19   H     H_    0.098680 0.052274 0.428610 0.211063
H20   H     H_    0.071249 0.840223 0.394143 0.194685
N2    N     N_2   0.002739 0.524967 0.531032 -0.520967
H21   H     H_    0.021780 0.578204 0.466269 0.245971
C62   C     C_3   0.938734 0.443745 0.550343 -0.472357
H22   H     H_    0.934334 0.377063 0.487582 0.179296
H23   H     H_    0.901319 0.552274 0.571389 0.211063
H24   H     H_    0.928751 0.340223 0.605857 0.194685
F3    F     F_    0.176840 0.566825 0.071291 -0.672244
F4    F     F_    0.823160 0.066825 0.928709 -0.672244
F5    F     F_    0.202290 0.579615 0.919110 -0.733467
F6    F     F_    0.797710 0.079615 0.080890 -0.733467
F7    F     F_    0.296669 0.537583 0.048033 -0.723257
F8    F     F_    0.703331 0.037583 0.951967 -0.723257
F9    F     F_    0.204679 0.143620 0.917689 -0.678040
F10   F     F_    0.795321 0.643620 0.082310 -0.678039
N3    N     N_2   0.346411 0.938936 0.820436 -0.552067
H25   H     H_    0.343363 0.038646 0.774452 0.288486
C63   C     C_3   0.349820 0.763264 0.776301 -0.530325
H26   H     H_    0.372626 0.778850 0.701154 0.242186
H27   H     H_    0.300938 0.706215 0.786648 0.200777
H28   H     H_    0.381680 0.670150 0.799435 0.260583
N4    N     N_2   0.653589 0.438936 0.179564 -0.552067
H29   H     H_    0.656636 0.538645 0.225548 0.288486
C64   C     C_3   0.650180 0.263264 0.223699 -0.530326
H30   H     H_    0.627374 0.278850 0.298846 0.242185
H31   H     H_    0.699062 0.206215 0.213352 0.200777
H32   H     H_    0.618320 0.170150 0.200566 0.260583
N5    N     N_2   0.318521 0.168914 0.935581 -0.487876
H33   H     H_    0.282291 0.248189 0.978141 0.348224
C65   C     C_3   0.376126 0.264677 0.879623 -0.352592
H34   H     H_    0.385827 0.381935 0.918193 0.227780
H35   H     H_    0.369188 0.317802 0.816027 0.177770
H36   H     H_    0.419309 0.174007 0.860237 0.222767
N6    N     N_2   0.681479 0.668914 0.064419 -0.487876
H37   H     H_    0.717709 0.748189 0.021858 0.348224
C66   C     C_3   0.623874 0.764677 0.120376 -0.352592
H38   H     H_    0.614172 0.881934 0.081807 0.227780
H39   H     H_    0.630812 0.817801 0.183973 0.177769
H40   H     H_    0.580691 0.674007 0.139763 0.222766
N7    N     N_2   0.290959 0.053397 0.138183 -0.510564
H41   H     H_    0.314442 0.163132 0.100387 0.318164
C67   C     C_3   0.318332 0.988779 0.207682 -0.496709
H42   H     H_    0.335754 0.104674 0.238575 0.219320
H43   H     H_    0.280575 0.916949 0.263166 0.179601
H44   H     H_    0.359814 0.894986 0.177727 0.191993
N8    N     N_2   0.709041 0.553397 0.861817 -0.510564
H45   H     H_    0.685558 0.663132 0.899613 0.318164
C68   C     C_3   0.681668 0.488779 0.792318 -0.496710
H46   H     H_    0.664246 0.604674 0.761425 0.219320
H47   H     H_    0.719424 0.416948 0.736834 0.179601
H48   H     H_    0.640185 0.394986 0.822273 0.191993
N9    N     N_2   0.038450 0.034465 0.273980 -0.519147
H49   H     H_    0.060090 0.978079 0.210461 0.232527
C69   C     C_3   0.038989 0.232013 0.271401 -0.471585
H50   H     H_    0.088356 0.280013 0.231864 0.201628
H51   H     H_    0.025964 0.289195 0.341697 0.202331
H52   H     H_    0.004021 0.283577 0.237448 0.201375
N10   N     N_2   0.961550 0.534465 0.726020 -0.519147
H53   H     H_    0.939910 0.478078 0.789539 0.232527
C70   C     C_3   0.961010 0.732013 0.728599 -0.471585
H54   H     H_    0.911644 0.780013 0.768135 0.201628
H55   H     H_    0.974036 0.789195 0.658302 0.202331
H56   H     H_    0.995979 0.783577 0.762552 0.201375
N11   N     N_2   0.549903 0.635527 0.521747 -0.492596
H57   H     H_    0.581383 0.567925 0.466725 0.269926
C71   C     C_3   0.494029 0.713173 0.502791 -0.370987
H58   H     H_    0.509925 0.815652 0.447144 0.256852
H59   H     H_    0.460389 0.777065 0.565009 0.205725
H60   H     H_    0.467286 0.603980 0.479540 0.186358
N12   N     N_2   0.450097 0.135526 0.478253 -0.492596
H61   H     H_    0.418616 0.067925 0.533276 0.269926
C72   C     C_3   0.505971 0.213170 0.497209 -0.370992
H62   H     H_    0.490075 0.315656 0.552853 0.256851
H63   H     H_    0.539612 0.277054 0.434991 0.205729
H64   H     H_    0.532711 0.103979 0.520465 0.186357
F11   F     F_    0.491454 0.672875 0.706680 -0.702912
F12   F     F_    0.508546 0.172874 0.293320 -0.702912
N13   N     N_2   0.753549 0.971678 0.315438 -0.539410
H65   H     H_    0.789852 0.068863 0.301998 0.259160
C73   C     C_3   0.754390 0.853924 0.239829 -0.263296
H66   H     H_    0.803969 0.855036 0.189902 0.260179
H67   H     H_    0.720174 0.905851 0.205874 0.240474
H68   H     H_    0.741113 0.710707 0.262103 0.169952
N14   N     N_2   0.246450 0.471679 0.684562 -0.539410
H69   H     H_    0.210148 0.568864 0.698001 0.259159
C74   C     C_3   0.245610 0.353924 0.760171 -0.263296
H70   H     H_    0.196030 0.355036 0.810098 0.260179
H71   H     H_    0.279826 0.405851 0.794126 0.240474
H72   H     H_    0.258887 0.210708 0.737896 0.169952
N15   N     N_2   0.776901 0.820713 0.696979 -0.548490
H73   H     H_    0.798174 0.696133 0.700859 0.276506
C75   C     C_3   0.786677 0.948439 0.762924 -0.420697
H74   H     H_    0.774435 0.879632 0.830171 0.297139
H75   H     H_    0.755372 0.069045 0.766554 0.198002
H76   H     H_    0.837870 0.994590 0.745007 0.180035
N16   N     N_2   0.223099 0.320713 0.303021 -0.548490
H77   H     H_    0.201825 0.196133 0.299141 0.276506
C76   C     C_3   0.213322 0.448439 0.237076 -0.420696
H78   H     H_    0.225565 0.379631 0.169829 0.297139
H79   H     H_    0.244628 0.569045 0.233446 0.198002
H80   H     H_    0.162130 0.494590 0.254993 0.180035

loop_
_geom_bond_atom_site_label_1
_geom_bond_atom_site_label_2
_ccdc_geom_bond_type
H12   C54   S    
C66   H40   S    
C47   H13   S    
N11   H57   S    
C3    C6    S    
N10   H53   S    
C10   N12   S    
C12   F12   S    
C24   N14   S    
C21   C33   A    
C62   H22   S    
O1    C3    A    
O2    V1    S    
N16   H77   S    
C64   H32   S    
O2    C4    A    
O19   V4    S    
C2    O7    A    
C69   H50   S    
N3    H25   S    
C35   C37   A    
C64   H31   S    
C76   H78   S    
O5    C3    A    
N11   C71   S    
C5    C11   A    
C13   H5    S    
C55   N3    S    
C6    C12   A    
N16   C76   S    
C23   C25   A    
C67   H43   S    
C21   C23   A    
C52   C54   S    
N13   C73   S    
C68   H47   S    
C33   C39   A    
C66   H38   S    
C34   C40   A    
O16   C60   A    
C15   C17   A    
C18   C26   A    
C42   C44   S    
C57   O18   A    
N15   C75   S    
C52   C56   S    
C29   H3    S    
C73   H68   S    
C44   H8    S    
N3    C63   S    
C30   H4    S    
N6    H37   S    
N1    C61   S    
N7    H41   S    
C43   C51   S    
N12   C72   S    
C6    C14   A    
C4    C5    S    
C46   C50   S    
C63   H28   S    
C8    C38   A    
C19   C21   A    
C45   C49   S    
C22   C34   A    
C51   C55   S    
N8    C68   S    
C46   H16   S    
C41   C49   S    
C44   F8    S    
O6    C4    A    
C26   F2    S    
C72   H64   S    
C48   F10   S    
C36   C38   A    
C36   N2    S    
C27   N15   S    
C75   H74   S    
C41   F5    S    
N5    C65   S    
C72   H63   S    
C68   H48   S    
C29   C31   A    
N10   C70   S    
C8    C57   S    
C30   C32   A    
C56   N6    S    
C16   C20   A    
C43   F7    S    
C69   H51   S    
C40   H2    S    
C55   N5    S    
C70   H56   S    
O13   V3    S    
C76   H79   S    
C61   H20   S    
C41   C43   S    
C54   N8    S    
C46   C54   S    
N14   H69   S    
N5    H33   S    
C35   N1    S    
C70   H55   S    
C67   H44   S    
C70   H54   S    
C47   C49   S    
C2    C51   S    
C53   N7    S    
O5    V1    S    
C32   C34   A    
C74   H71   S    
C71   H58   S    
C9    C17   A    
C39   H1    S    
N6    C66   S    
C20   C22   A    
O4    V2    S    
N14   C74   S    
C11   F11   S    
C45   H15   S    
C75   H76   S    
C61   H19   S    
C7    C37   A    
N9    H49   S    
C28   N16   S    
O18   V4    S    
C23   N13   S    
C74   H72   S    
C38   N10   S    
C43   H7    S    
C51   C53   S    
H11   C53   S    
C48   H14   S    
C62   H23   S    
O1    V2    S    
C56   N4    S    
C42   F6    S    
O12   V3    S    
C14   H6    S    
O14   V4    S    
C71   H59   S    
O12   C60   A    
N12   H61   S    
C41   F3    S    
O14   C58   A    
C74   H70   S    
C9    C11   A    
C15   C19   A    
C63   H26   S    
C10   C12   A    
C45   C53   S    
O4    C2    A    
C64   H30   S    
N1    H17   S    
C69   H52   S    
O3    V1    S    
C48   C50   S    
O16   V4    S    
C58   O17   A    
C63   H27   S    
N4    H29   S    
C65   H34   S    
C76   H80   S    
C66   H39   S    
O17   V3    S    
C10   C18   A    
N7    C67   S    
C65   H35   S    
C50   C59   S    
C44   C52   S    
C28   C30   A    
O3    C1    A    
C13   C15   A    
C27   C29   A    
C61   H18   S    
C14   C16   A    
O15   V3    S    
N2    C62   S    
N9    C69   S    
O7    V1    S    
C5    C13   A    
C16   C18   A    
C8    C40   A    
C7    C58   S    
C9    N11   S    
C67   H42   S    
C24   C26   A    
C25   F1    S    
O11   C59   A    
N13   H65   S    
H10   C46   S    
H9    C45   S    
C65   H36   S    
O11   V4    S    
C47   F9    S    
C42   C50   S    
C71   H60   S    
C19   C27   A    
C62   H24   S    
C22   C24   A    
C20   C28   A    
N15   H73   S    
C73   H67   S    
C42   F4    S    
O15   C59   A    
C72   H62   S    
C1    C52   S    
C7    C39   A    
C1    O8    A    
C73   H66   S    
O6    V2    S    
O20   V3    S    
O9    V2    S    
C17   C25   A    
C68   H46   S    
C75   H75   S    
O13   C57   A    
O10   V1    S    
C37   N9    S    
O8    V2    S    
C49   C60   S    
C47   C55   S    
N8    H45   S    
N2    H21   S    
C31   C35   A    
C31   C33   A    
C48   C56   S    
C32   C36   A    
N4    C64   S    
