data_mof_unit_67355.cif
_audit_creation_date              2013-03-05T16:08:12-0500
_audit_creation_method            fapswitch 2.2
_symmetry_space_group_name_H-M    P1
_symmetry_Int_Tables_number       1
_space_group_crystal_system       triclinic
_cell_length_a                    19.830387
_cell_length_b                    23.47903
_cell_length_c                    8.574851
_cell_angle_alpha                 89.999586
_cell_angle_beta                  103.461079
_cell_angle_gamma                 90.359214
_cell_volume                      3882.67590162

loop_
_atom_site_label
_atom_site_type_symbol
_atom_site_description
_atom_site_fract_x
_atom_site_fract_y
_atom_site_fract_z
_atom_type_partial_charge
P1    P     P_3+3 0.853370 0.434890 0.996520 0.430666
P2    P     P_3+3 0.853370 0.565110 0.496520 0.428138
P3    P     P_3+3 0.353370 0.934890 0.996520 0.444454
P4    P     P_3+3 0.353370 0.065110 0.496520 0.426420
O1    O     O_2   0.860260 0.414960 0.826400 -0.405275
O2    O     O_2   0.860260 0.585040 0.326400 -0.402769
O3    O     O_2   0.360260 0.914960 0.826400 -0.382200
O4    O     O_2   0.360260 0.085040 0.326400 -0.390031
O5    O     O_3   0.918600 0.470180 0.098890 -0.361943
O6    O     O_3   0.918600 0.529820 0.598890 -0.362606
O7    O     O_3   0.418600 0.970180 0.098890 -0.343558
O8    O     O_3   0.418600 0.029820 0.598890 -0.365824
O9    O     O_3   0.975750 0.362410 0.628650 -0.383974
O10   O     O_3   0.975750 0.637590 0.128650 -0.378064
O11   O     O_3   0.475750 0.862410 0.628650 -0.382675
O12   O     O_3   0.475750 0.137590 0.128650 -0.379819
O13   O     O_2   0.862273 0.319848 0.672920 -0.433859
O14   O     O_2   0.862374 0.677061 0.172931 -0.413053
O15   O     O_2   0.362872 0.819391 0.677432 -0.429983
O16   O     O_2   0.359604 0.174886 0.168357 -0.430707
O17   O     O_3   0.775315 0.474986 0.943200 -0.614304
O18   O     O_3   0.774843 0.524438 0.443761 -0.613522
O19   O     O_3   0.284183 0.983317 0.958719 -0.638704
O20   O     O_3   0.274372 0.026371 0.451138 -0.638582
O21   O     O_3   0.946645 0.240570 0.639245 -0.579085
O22   O     O_3   0.943162 0.759899 0.155249 -0.583675
O23   O     O_3   0.445978 0.739984 0.638155 -0.577374
O24   O     O_3   0.441070 0.256919 0.143900 -0.581139
H1    H     H_    0.048789 0.254256 0.633044 0.067147
H2    H     H_    0.046130 0.768543 0.150485 0.124170
H3    H     H_    0.545992 0.755975 0.617509 0.080782
H4    H     H_    0.544476 0.248371 0.143533 0.117273
C1    C     C_3   0.028475 0.162814 0.657606 -0.519318
C2    C     C_3   0.997079 0.853244 0.135411 -0.500385
C3    C     C_3   0.531483 0.664680 0.654469 -0.490753
C4    C     C_3   0.518440 0.339513 0.147192 -0.527736
P5    P     P_3+3 0.146350 0.434230 0.693140 0.461923
P6    P     P_3+3 0.146350 0.565770 0.193140 0.506178
P7    P     P_3+3 0.646350 0.934230 0.693140 0.471891
P8    P     P_3+3 0.646350 0.065770 0.193140 0.497622
P9    P     P_3+3 0.079304 0.304886 0.113672 0.453687
P10   P     P_3+3 0.084513 0.692845 0.606405 0.474388
P11   P     P_3+3 0.579453 0.804646 0.115771 0.447923
P12   P     P_3+3 0.585689 0.191396 0.605788 0.469899
O25   O     O_2   0.139400 0.414340 0.863230 -0.325719
O26   O     O_2   0.139400 0.585660 0.363230 -0.383305
O27   O     O_2   0.639400 0.914340 0.863230 -0.330332
O28   O     O_2   0.639400 0.085660 0.363230 -0.391066
O29   O     O_3   0.023740 0.362300 0.060930 -0.343315
O30   O     O_3   0.023740 0.637700 0.560930 -0.403151
O31   O     O_3   0.523740 0.862300 0.060930 -0.341801
O32   O     O_3   0.523740 0.137700 0.560930 -0.399365
O33   O     O_2   0.125125 0.304350 0.989747 -0.416084
O34   O     O_2   0.130723 0.687768 0.484331 -0.381038
O35   O     O_2   0.624504 0.803412 0.990321 -0.421134
O36   O     O_2   0.630973 0.186273 0.481859 -0.391497
O37   O     O_3   0.222231 0.475981 0.736759 -0.622509
O38   O     O_3   0.222748 0.524752 0.235117 -0.617783
O39   O     O_3   0.723795 0.974542 0.737641 -0.622861
O40   O     O_3   0.722280 0.024223 0.236102 -0.612961
O41   O     O_3   0.026963 0.243333 0.075161 -0.534330
O42   O     O_3   0.037835 0.756016 0.551670 -0.519002
O43   O     O_3   0.526263 0.743459 0.079246 -0.536263
O44   O     O_3   0.540111 0.255325 0.554761 -0.518992
C5    C     C_3   0.958002 0.260110 0.010630 0.446019
C6    C     C_3   0.966273 0.744089 0.528533 0.511798
C7    C     C_3   0.458078 0.760995 0.008452 0.446526
C8    C     C_3   0.468258 0.243871 0.522169 0.496967
H5    H     H_    0.955107 0.284068 0.899033 0.185604
H6    H     H_    0.947878 0.717335 0.420885 0.169652
H7    H     H_    0.457734 0.783823 0.896414 0.189585
H8    H     H_    0.451846 0.217383 0.413236 0.169428
H9    H     H_    0.939219 0.287835 0.094893 0.035685
H10   H     H_    0.954955 0.720543 0.631448 0.044474
H11   H     H_    0.438309 0.790178 0.088126 0.038666
H12   H     H_    0.455219 0.220746 0.622699 0.060266
C9    C     C_3   0.908928 0.209145 0.975242 -0.763458
C10   C     C_3   0.925013 0.799202 0.509759 -0.870809
C11   C     C_3   0.407451 0.711087 0.971881 -0.749819
C12   C     C_3   0.426744 0.298867 0.501408 -0.857438
H13   H     H_    0.857812 0.223557 0.904372 0.208781
H14   H     H_    0.873391 0.791704 0.534193 0.195405
H15   H     H_    0.357147 0.726781 0.900185 0.215680
H16   H     H_    0.372790 0.289962 0.510213 0.195223
H17   H     H_    0.929129 0.176476 0.905994 0.282462
H18   H     H_    0.916388 0.815085 0.385910 0.282100
H19   H     H_    0.426712 0.677674 0.903258 0.288445
H20   H     H_    0.424235 0.317405 0.382139 0.286374
C13   C     C_3   0.220348 0.478603 0.337841 0.251669
C14   C     C_3   0.215210 0.524514 0.826410 0.195623
C15   C     C_3   0.718335 0.977581 0.336141 0.238439
C16   C     C_3   0.718790 0.024251 0.824507 0.198973
H21   H     H_    0.184636 0.485943 0.417850 0.129431
H22   H     H_    0.179084 0.517556 0.905962 0.124960
H23   H     H_    0.683147 0.985431 0.417059 0.126893
H24   H     H_    0.681601 0.019359 0.902321 0.127625
C17   C     C_3   0.293485 0.466559 0.440875 -0.779241
C18   C     C_3   0.286740 0.541031 0.933022 -0.565118
C19   C     C_3   0.791021 0.963294 0.438266 -0.784345
C20   C     C_3   0.790434 0.039472 0.932423 -0.548343
H25   H     H_    0.290762 0.429952 0.521672 0.200183
H26   H     H_    0.280665 0.577113 0.012247 0.170993
H27   H     H_    0.786668 0.927600 0.520696 0.203344
H28   H     H_    0.785580 0.077896 0.004686 0.175713
H29   H     H_    0.328852 0.454418 0.363366 0.225529
H30   H     H_    0.322317 0.555491 0.858353 0.243570
H31   H     H_    0.825245 0.948767 0.360649 0.222858
H32   H     H_    0.827917 0.049715 0.858313 0.235279
Ba1   Ba    Ba6+2 0.999900 0.457470 0.844900 1.583506
Ba2   Ba    Ba6+2 0.999900 0.542530 0.344900 1.606102
Ba3   Ba    Ba6+2 0.499900 0.957470 0.844900 1.588539
Ba4   Ba    Ba6+2 0.499900 0.042530 0.344900 1.589519
C21   C     C_3   0.782707 0.518965 0.838870 0.272364
C22   C     C_3   0.782210 0.479699 0.341757 0.264405
C23   C     C_3   0.288834 0.019577 0.832224 0.219156
C24   C     C_3   0.276772 0.979421 0.353220 0.254931
H33   H     H_    0.801986 0.502871 0.736328 0.119680
H34   H     H_    0.801744 0.495599 0.239039 0.117329
H35   H     H_    0.282801 0.994102 0.721397 0.157030
H36   H     H_    0.296154 0.992103 0.247399 0.127548
C25   C     C_3   0.715595 0.553000 0.774180 -0.466904
C26   C     C_3   0.714872 0.444736 0.275378 -0.448246
C27   C     C_3   0.229667 0.063392 0.804971 -0.483816
C28   C     C_3   0.203916 0.950442 0.295667 -0.478062
H37   H     H_    0.727035 0.584482 0.686997 0.186880
H38   H     H_    0.723782 0.419216 0.173051 0.198869
H39   H     H_    0.225811 0.083982 0.686947 0.176107
H40   H     H_    0.184230 0.961379 0.166931 0.167141
O45   O     O_3   0.081330 0.529680 0.090830 -0.288765
O46   O     O_3   0.081330 0.470320 0.590830 -0.373996
O47   O     O_3   0.581330 0.029680 0.090830 -0.310934
O48   O     O_3   0.581330 0.970320 0.590830 -0.352172
P13   P     P_3+3 0.913872 0.692751 0.069374 0.401492
P14   P     P_3+3 0.913602 0.307648 0.566135 0.381333
P15   P     P_3+3 0.410900 0.189414 0.063845 0.381351
P16   P     P_3+3 0.413247 0.807540 0.568036 0.375122
C29   C     C_3   0.005884 0.223462 0.586169 0.210432
C30   C     C_3   0.995136 0.787673 0.092589 0.248591
C31   C     C_3   0.504031 0.723570 0.579906 0.175319
C32   C     C_3   0.499702 0.276446 0.091471 0.288849
H41   H     H_    0.900362 0.189890 0.086837 0.260576
H42   H     H_    0.952480 0.832329 0.593695 0.305113
H43   H     H_    0.397158 0.692470 0.082389 0.256473
H44   H     H_    0.450394 0.330442 0.594792 0.296038
C33   C     C_R   0.136926 0.689394 0.822401 0.265358
C34   C     C_R   0.132219 0.309591 0.327264 0.115215
C35   C     C_R   0.638524 0.186627 0.820086 0.287964
C36   C     C_R   0.633566 0.809462 0.329286 0.106634
C37   C     C_R   0.187983 0.730798 0.888726 0.032252
C38   C     C_R   0.182714 0.268465 0.392145 -0.011823
C39   C     C_R   0.688992 0.228454 0.887270 0.055297
C40   C     C_R   0.686401 0.769762 0.392900 0.032605
C41   C     C_R   0.783280 0.319327 0.025972 -0.040502
C42   C     C_R   0.784122 0.681063 0.526151 -0.028783
C43   C     C_R   0.281667 0.821228 0.029977 -0.058599
C44   C     C_R   0.278733 0.179163 0.524498 -0.040140
C45   C     C_R   0.738402 0.323305 0.871235 -0.050288
C46   C     C_R   0.738114 0.676452 0.372694 -0.060299
C47   C     C_R   0.234716 0.827293 0.878763 -0.047243
C48   C     C_R   0.229839 0.173060 0.374406 -0.064666
C49   C     C_R   0.194509 0.781118 0.805469 -0.142342
C50   C     C_R   0.187988 0.218570 0.307456 -0.112703
C51   C     C_R   0.696977 0.277551 0.801626 -0.147224
C52   C     C_R   0.694083 0.720874 0.306820 -0.140589
C53   C     C_R   0.834153 0.362973 0.094356 0.162390
C54   C     C_R   0.835201 0.637738 0.593965 0.162149
C55   C     C_R   0.332401 0.864720 0.098893 0.155354
C56   C     C_R   0.334262 0.138996 0.587656 0.178445
H45   H     H_    0.161288 0.788072 0.688089 0.188490
H46   H     H_    0.154376 0.211763 0.190254 0.190608
H47   H     H_    0.665846 0.283540 0.681465 0.169362
H48   H     H_    0.660366 0.713729 0.189718 0.172391
C57   C     C_R   0.871924 0.353679 0.251235 -0.466806
C58   C     C_R   0.873224 0.647577 0.750972 -0.472891
C59   C     C_R   0.370719 0.855165 0.255398 -0.456987
C60   C     C_R   0.377940 0.155063 0.733797 -0.508995
C61   C     C_R   0.162353 0.634790 0.078319 0.137028
C62   C     C_R   0.160691 0.364991 0.580614 0.119719
C63   C     C_R   0.662981 0.133852 0.077808 0.139864
C64   C     C_R   0.661109 0.864660 0.582817 0.121556
C65   C     C_R   0.216143 0.675884 0.139293 -0.040449
C66   C     C_R   0.213122 0.323286 0.642516 -0.056400
C67   C     C_R   0.715862 0.175345 0.139698 -0.046074
C68   C     C_R   0.714950 0.823764 0.644743 -0.071039
C69   C     C_R   0.226707 0.725280 0.048681 0.037801
C70   C     C_R   0.222650 0.274060 0.550574 0.062231
C71   C     C_R   0.726954 0.224058 0.048091 0.042958
C72   C     C_R   0.726341 0.775358 0.551719 0.073252
C73   C     C_R   0.254712 0.671889 0.295711 -0.117609
C74   C     C_R   0.250914 0.326265 0.800453 -0.098751
C75   C     C_R   0.754275 0.171482 0.296068 -0.105409
C76   C     C_R   0.751666 0.825935 0.804136 -0.052221
C77   C     C_R   0.794601 0.216785 0.371894 -0.120476
C78   C     C_R   0.789434 0.779057 0.878202 -0.090471
C79   C     C_R   0.293744 0.717747 0.372599 -0.131395
C80   C     C_R   0.289205 0.279980 0.875548 -0.088410
C81   C     C_R   0.810393 0.264885 0.283481 -0.028271
C82   C     C_R   0.808793 0.733863 0.786141 -0.073423
C83   C     C_R   0.309733 0.765788 0.284816 -0.080391
C84   C     C_R   0.306089 0.233357 0.783805 -0.036894
C85   C     C_R   0.775084 0.268941 0.118197 0.086727
C86   C     C_R   0.775253 0.730968 0.619851 0.106559
C87   C     C_R   0.274710 0.770004 0.119598 0.107209
C88   C     C_R   0.270928 0.229647 0.618106 0.112620
C89   C     C_R   0.860094 0.308236 0.350616 0.185188
C90   C     C_R   0.859855 0.691792 0.852506 0.147393
C91   C     C_R   0.358990 0.809251 0.353392 0.124395
C92   C     C_R   0.359287 0.192627 0.845280 0.116227
C93   C     C_R   0.121520 0.645451 0.922970 -0.476737
C94   C     C_R   0.118779 0.354295 0.426310 -0.476413
C95   C     C_R   0.624329 0.141922 0.919435 -0.489809
C96   C     C_R   0.618692 0.853187 0.429307 -0.479594
H49   H     H_    0.247259 0.635810 0.367554 0.193796
H50   H     H_    0.243992 0.361987 0.874035 0.183406
H51   H     H_    0.747200 0.135278 0.367983 0.193623
H52   H     H_    0.742670 0.860361 0.879782 0.185065
H53   H     H_    0.908961 0.386113 0.299220 0.161772
H54   H     H_    0.910862 0.615894 0.798514 0.160008
H55   H     H_    0.408207 0.887369 0.304654 0.171278
H56   H     H_    0.427445 0.136127 0.760719 0.151380
C97   C     C_2   0.325157 0.516268 0.540930 0.860165
H57   H     H_    0.304100 0.558641 0.517094 0.040150
O49   O     O_2   0.377068 0.509330 0.647770 -0.550608
C98   C     C_2   0.320972 0.492734 0.035003 0.789992
H58   H     H_    0.295923 0.451357 0.030745 0.009945
O50   O     O_2   0.377917 0.499976 0.124708 -0.556373
C99   C     C_2   0.825992 0.012503 0.535609 0.880514
H59   H     H_    0.805063 0.055096 0.516491 0.050102
O51   O     O_2   0.880122 0.004855 0.635143 -0.566314
C100  C     C_2   0.820471 0.992588 0.044199 0.768737
H60   H     H_    0.793785 0.951998 0.041447 0.005168
O52   O     O_2   0.875914 0.000048 0.139813 -0.562422
C101  C     C_1   0.833009 0.554654 0.936851 0.124103
N1    N     N_1   0.874879 0.576530 0.030995 0.057196
C102  C     C_1   0.832704 0.444893 0.441115 0.121513
N2    N     N_1   0.874636 0.423378 0.535091 0.059662
C103  C     C_1   0.357630 0.045959 0.873144 0.166856
N3    N     N_1   0.414387 0.060415 0.918124 0.005254
C104  C     C_1   0.326603 0.943948 0.451802 0.090900
N4    N     N_1   0.369932 0.921894 0.540697 0.059752
C105  C     C_2   0.692280 0.585032 0.903185 0.530902
H61   H     H_    0.663280 0.563567 0.978258 0.078951
O53   O     O_2   0.707050 0.635441 0.925730 -0.631252
C106  C     C_2   0.697084 0.403867 0.394609 0.496766
H62   H     H_    0.667902 0.418200 0.478630 0.068867
O54   O     O_2   0.715316 0.354153 0.397192 -0.616732
C107  C     C_2   0.242508 0.108158 0.932594 0.546122
H63   H     H_    0.282976 0.101745 0.038545 0.072010
O55   O     O_2   0.208523 0.151657 0.918410 -0.618414
C108  C     C_2   0.204541 0.886307 0.311086 0.417560
H64   H     H_    0.227913 0.865879 0.423725 0.108901
O56   O     O_2   0.178390 0.856278 0.197242 -0.607719
C109  C     C_1   0.657665 0.518106 0.685377 0.215162
N5    N     N_1   0.610489 0.492233 0.614538 0.018924
C110  C     C_1   0.653573 0.479568 0.210917 0.205907
N6    N     N_1   0.603479 0.505060 0.159732 0.009011
C111  C     C_1   0.163087 0.034983 0.803281 0.238578
N7    N     N_1   0.110804 0.012711 0.802895 -0.034991
C112  C     C_1   0.152661 0.972749 0.378847 0.360641
N8    N     N_1   0.112094 0.990474 0.443307 -0.011450
C113  C     C_2   0.993559 0.224599 0.405265 0.618439
H65   H     H_    0.987398 0.265002 0.345675 -0.100490
O57   O     O_2   0.993494 0.181592 0.325506 -0.509442
C114  C     C_2   0.984070 0.780541 0.915909 0.532414
H66   H     H_    0.935097 0.791450 0.836570 0.036135
O58   O     O_2   0.031977 0.764222 0.862132 -0.617583
C115  C     C_2   0.486538 0.720960 0.398965 0.554070
H67   H     H_    0.479578 0.760149 0.333503 -0.043165
O59   O     O_2   0.482022 0.675994 0.325733 -0.533722
C116  C     C_2   0.487421 0.275031 0.913148 0.437549
H68   H     H_    0.437774 0.286962 0.837911 0.056978
O60   O     O_2   0.535930 0.264440 0.854131 -0.604918
C117  C     C_2   0.086116 0.139335 0.589797 0.620823
H69   H     H_    0.081864 0.097607 0.534031 0.093970
O61   O     O_2   0.138587 0.167322 0.597514 -0.608027
C118  C     C_2   0.039515 0.891370 0.049850 0.669263
H70   H     H_    0.043901 0.936471 0.079204 0.030946
O62   O     O_2   0.068303 0.873802 0.948327 -0.541963
C119  C     C_2   0.592398 0.646906 0.588264 0.537411
H71   H     H_    0.589956 0.609543 0.513251 0.155165
O63   O     O_2   0.644936 0.675822 0.614876 -0.612577
C120  C     C_2   0.572942 0.363699 0.067162 0.578407
H72   H     H_    0.564148 0.403349 0.000264 0.094470
O64   O     O_2   0.627407 0.338489 0.075827 -0.553426
C121  C     C_2   0.058258 0.167747 0.836008 0.605388
H73   H     H_    0.091066 0.203895 0.881284 0.135719
O65   O     O_2   0.050788 0.130171 0.929372 -0.544712
C122  C     C_2   0.029720 0.860522 0.312503 0.469488
H74   H     H_    0.073800 0.834610 0.368771 0.116049
O66   O     O_2   0.010090 0.897164 0.392722 -0.557091
C123  C     C_2   0.558688 0.670380 0.833533 0.605757
H75   H     H_    0.594001 0.704974 0.879582 0.126474
O67   O     O_2   0.545298 0.635264 0.927434 -0.561485
C124  C     C_2   0.551088 0.341306 0.324576 0.529323
H76   H     H_    0.591522 0.311047 0.373675 0.133662
O68   O     O_2   0.536834 0.378097 0.412345 -0.580703
C125  C     C_2   0.717659 0.377248 0.791930 0.671054
H77   H     H_    0.744527 0.394302 0.706790 0.019637
O69   O     O_2   0.666597 0.401298 0.815313 -0.569891
C126  C     C_2   0.717621 0.622243 0.293693 0.647479
H78   H     H_    0.745417 0.604258 0.212157 0.057096
O70   O     O_2   0.664942 0.599066 0.312136 -0.580748
C127  C     C_2   0.209574 0.883415 0.816734 0.684605
H79   H     H_    0.196595 0.914213 0.898468 0.069890
O71   O     O_2   0.197952 0.894118 0.674069 -0.663103
C128  C     C_2   0.207056 0.118387 0.295812 0.642350
H80   H     H_    0.240292 0.093310 0.243100 0.034654
O72   O     O_2   0.147117 0.102438 0.279953 -0.542500
C129  C     C_2   0.803618 0.215275 0.546216 0.756772
H81   H     H_    0.779863 0.247636 0.604440 0.025192
O73   O     O_2   0.832233 0.175091 0.623661 -0.595539
C130  C     C_2   0.785829 0.771194 0.046023 0.669451
H82   H     H_    0.765025 0.731689 0.079184 0.067996
O74   O     O_2   0.799833 0.809702 0.143864 -0.661691
C131  C     C_2   0.298773 0.718165 0.545659 0.744526
H83   H     H_    0.274768 0.752138 0.597637 0.013429
O75   O     O_2   0.324346 0.678170 0.628582 -0.603672
C132  C     C_2   0.294439 0.278075 0.049520 0.680990
H84   H     H_    0.273285 0.241967 0.100018 0.061443
O76   O     O_2   0.315769 0.319033 0.134794 -0.655354
C133  C     C_2   0.053955 0.618857 0.874906 0.705062
H85   H     H_    0.010818 0.645417 0.878698 -0.036940
O77   O     O_2   0.046049 0.571824 0.813497 -0.554206
C134  C     C_2   0.052312 0.382296 0.376873 0.894074
H86   H     H_    0.008070 0.357185 0.380527 -0.180066
O78   O     O_2   0.046207 0.429202 0.315227 -0.505374
C135  C     C_2   0.562586 0.107151 0.866447 0.647938
H87   H     H_    0.519695 0.116782 0.914471 0.008767
O79   O     O_2   0.561464 0.064939 0.783756 -0.552996
C136  C     C_2   0.550668 0.879111 0.380502 0.901951
H88   H     H_    0.507239 0.851854 0.378032 -0.197803
O80   O     O_2   0.542397 0.926462 0.321945 -0.509051
C137  C     C_2   0.967548 0.121154 0.623924 0.706193
H89   H     H_    0.943352 0.107795 0.719130 0.089423
O81   O     O_2   0.943627 0.102667 0.489141 -0.525678
C138  C     C_2   0.924003 0.876574 0.093881 0.649923
H90   H     H_    0.896874 0.885864 0.186930 0.096980
O82   O     O_2   0.894019 0.884547 0.954206 -0.616521
C139  C     C_2   0.473973 0.619718 0.619542 0.713393
H91   H     H_    0.431769 0.622144 0.679404 0.097598
O83   O     O_2   0.474262 0.580209 0.526885 -0.539311
C140  C     C_2   0.454124 0.376798 0.105320 0.642150
H92   H     H_    0.429660 0.392127 0.197899 0.116385
O84   O     O_2   0.427495 0.388812 0.966022 -0.592317
C141  C     C_2   0.197478 0.427623 0.236245 0.461615
H93   H     H_    0.230974 0.391178 0.237064 0.030234
O85   O     O_2   0.139914 0.426973 0.149091 -0.448939
C142  C     C_2   0.187796 0.571035 0.710428 0.462812
H94   H     H_    0.134439 0.569158 0.644177 0.142104
O86   O     O_2   0.224359 0.610573 0.687390 -0.591742
C143  C     C_2   0.693307 0.927673 0.231841 0.471407
H95   H     H_    0.726143 0.891309 0.226343 0.036348
O87   O     O_2   0.634935 0.928032 0.148678 -0.443914
C144  C     C_2   0.695398 0.070681 0.705604 0.447649
H96   H     H_    0.644445 0.067699 0.628633 0.159714
O88   O     O_2   0.732152 0.111450 0.693421 -0.603698

loop_
_geom_bond_atom_site_label_1
_geom_bond_atom_site_label_2
_geom_bond_distance
_ccdc_geom_bond_type
C19   H27   1.112147 S    
H2    C30   1.114804 S    
C82   C90   1.438453 A    
C123  H75   1.081725 S    
P9    O41   1.759718 S    
C11   H19   1.102726 S    
P7    C64   1.945159 S    
P11   O43   1.761156 S    
C127  O71   1.217481 D    
C137  H89   1.084221 S    
P12   O44   1.759023 S    
P5    C62   1.946345 S    
C120  H72   1.087009 S    
O23   P16   1.769137 S    
C42   C46   1.419665 A    
C36   C96   1.413540 A    
O25   Ba1   2.921556 S    
C108  O56   1.216021 D    
O30   Ba2   2.868287 S    
C106  H62   1.078774 S    
O14   P13   1.544207 D    
C3    C31   1.569823 S    
C34   C38   1.413272 A    
C1    C29   1.575990 S    
C134  H86   1.060484 S    
P2    O18   1.787425 S    
C47   C49   1.400699 A    
C59   C91   1.417779 A    
P4    O8    1.617127 S    
C33   C93   1.421323 A    
C12   H16   1.108588 S    
C39   C51   1.394664 A    
C17   H29   1.111031 S    
C4    C124  1.508539 S    
C84   C92   1.434919 A    
P9    O29   1.738514 S    
C41   C85   1.452133 A    
C54   C58   1.399875 A    
C23   C27   1.541780 S    
C136  H88   1.065978 S    
C15   C143  1.485040 S    
O3    Ba3   2.906921 S    
P6    O45   1.615493 S    
C7    C11   1.522495 S    
C26   C110  1.466829 S    
C140  H92   1.084693 S    
P14   C89   1.904883 S    
O15   P16   1.547590 D    
C18   H26   1.110443 S    
P4    C56   1.977327 S    
C39   C71   1.413042 A    
C10   H14   1.104721 S    
C99   H59   1.082920 S    
C8    H8    1.105050 S    
C128  H80   1.062510 S    
C16   C144  1.493065 S    
C100  O52   1.220488 D    
C62   C66   1.441319 A    
C1    C121  1.510276 S    
O26   Ba2   2.909509 S    
C116  O60   1.213635 D    
P5    O25   1.567503 D    
C19   H31   1.110439 S    
C126  H78   1.073919 S    
P7    O27   1.567503 D    
C96   C136  1.453528 S    
O5    Ba2   2.883947 S    
P8    O28   1.568023 D    
C31   C115  1.510141 S    
C2    C138  1.515417 S    
O7    Ba4   2.883947 S    
C138  H90   1.083954 S    
P16   C91   1.904053 S    
C25   C109  1.466853 S    
C18   H30   1.109166 S    
C60   C92   1.413247 A    
C10   H42   1.109886 S    
C12   H20   1.102020 S    
P12   O36   1.547837 D    
C6    H6    1.104571 S    
O27   Ba3   2.921556 S    
C72   C86   1.455067 A    
C142  H94   1.078790 S    
C119  O63   1.216091 D    
Ba4   O47   3.014781 S    
O38   C13   1.403943 S    
C9    H41   1.106172 S    
P3    O7    1.608802 S    
C93   C133  1.444773 S    
O41   C5    1.409213 S    
C121  O65   1.222635 D    
C133  H85   1.068326 S    
C58   C90   1.420186 A    
C66   C74   1.388327 A    
C45   C125  1.453267 S    
P10   C33   1.903171 S    
P5    O37   1.756298 S    
C64   C68   1.446650 A    
C48   C50   1.396198 A    
P8    O40   1.764833 S    
O24   P15   1.771495 S    
C35   C39   1.420262 A    
Ba3   Ba4   4.729736 S    
C20   H28   1.111749 S    
P3    C55   1.954265 S    
P8    Ba4   3.487827 S    
C27   C111  1.472533 S    
C25   C105  1.498524 S    
O44   C8    1.410844 S    
C76   H52   1.077779 S    
C123  O67   1.222871 D    
C66   C70   1.437070 A    
C113  H65   1.071579 S    
C44   C56   1.459672 A    
C6    H10   1.106996 S    
C16   H24   1.109198 S    
C130  H82   1.077580 S    
C62   C94   1.410647 A    
Ba2   O45   3.014781 S    
C111  N7    1.157593 T    
C64   C96   1.412252 A    
C132  O76   1.220352 D    
C11   H43   1.104344 S    
P9    C34   1.889852 S    
C28   C112  1.469815 S    
C130  O74   1.219362 D    
C114  H66   1.080319 S    
C12   H44   1.109764 S    
C18   C98   1.498222 S    
C82   C86   1.427619 A    
C58   H54   1.068600 S    
P1    C53   1.959834 S    
C101  N1    1.134681 T    
P10   O42   1.758387 S    
P1    Ba1   3.486292 S    
P12   O32   1.734107 S    
C9    H17   1.102741 S    
P6    C61   1.958356 S    
C103  N3    1.150581 T    
C125  O69   1.219043 D    
C43   C87   1.450301 A    
C79   C131  1.463997 S    
C79   C83   1.430401 A    
C129  O73   1.218356 D    
C20   H32   1.109904 S    
O42   C6    1.412639 S    
C43   C47   1.417052 A    
C44   C48   1.426298 A    
O17   C21   1.395417 S    
C43   C55   1.454118 A    
C23   C103  1.460999 S    
O11   P16   1.773755 S    
P13   C90   1.917910 S    
C2    C30   1.580863 S    
O23   C31   1.413005 S    
C24   H36   1.104854 S    
C122  O66   1.222166 D    
O21   C29   1.415382 S    
C25   H37   1.110674 S    
C97   H57   1.082296 S    
C4    C32   1.571448 S    
C27   H39   1.108231 S    
C84   C88   1.431981 A    
P9    O33   1.550698 D    
C40   C52   1.392891 A    
C46   C126  1.452384 S    
C73   H49   1.076923 S    
P10   O30   1.744270 S    
C21   H33   1.104719 S    
Ba3   O47   2.882604 S    
O28   Ba4   2.909509 S    
P8    O47   1.615493 S    
C30   C114  1.488691 S    
O20   C24   1.393438 S    
C23   H35   1.105145 S    
Ba1   O45   2.882604 S    
C52   H48   1.081437 S    
C7    H11   1.103630 S    
C55   C59   1.398598 A    
P11   O35   1.550451 D    
C3    C123  1.509965 S    
O10   Ba2   2.872138 S    
C99   O51   1.220164 D    
P5    Ba1   3.493524 S    
C36   C40   1.417843 A    
C38   C70   1.409884 A    
C115  H67   1.070630 S    
C22   C102  1.417542 S    
O10   P13   1.780718 S    
C8    H12   1.098531 S    
C120  O64   1.221917 D    
C78   C82   1.429228 A    
C1    C117  1.505289 S    
C61   C65   1.438602 A    
P7    Ba3   3.493524 S    
C117  O61   1.215816 D    
C106  O54   1.222801 D    
C13   H21   1.108903 S    
P6    O26   1.568023 D    
C15   H23   1.108762 S    
O18   C22   1.396872 S    
C21   C25   1.545017 S    
C118  H70   1.086685 S    
C134  O78   1.216076 D    
C144  H96   1.072430 S    
C4    C140  1.524051 S    
C19   C99   1.494338 S    
C112  N8    1.156312 T    
C29   C113  1.513386 S    
C37   C69   1.413724 A    
C81   C89   1.435991 A    
C104  N4    1.134951 T    
C40   C72   1.412705 A    
C98   H58   1.085088 S    
C21   C101  1.415055 S    
C24   C104  1.416378 S    
C136  O80   1.216115 D    
P1    O1    1.568182 D    
H4    C32   1.115768 S    
P3    O3    1.568182 D    
O4    Ba4   2.918818 S    
C124  H76   1.083908 S    
P4    O20   1.769510 S    
C140  O84   1.222026 D    
P12   C35   1.895279 S    
C56   C60   1.397667 A    
O9    P14   1.769730 S    
P11   C36   1.897403 S    
C75   H51   1.077641 S    
P6    O38   1.765409 S    
C65   C73   1.384216 A    
C143  H95   1.084635 S    
P3    Ba3   3.486292 S    
C128  O72   1.220939 D    
C102  N2    1.135458 T    
C68   C76   1.391763 A    
P6    Ba2   3.487827 S    
C51   H47   1.080507 S    
P2    C54   1.970709 S    
C80   C84   1.434052 A    
C28   H40   1.112443 S    
C41   C53   1.457190 A    
C137  O81   1.221213 D    
C28   C108  1.511505 S    
C131  H83   1.079374 S    
C83   C87   1.428991 A    
C35   C95   1.419395 A    
C42   C86   1.455264 A    
C126  O70   1.217453 D    
C14   H22   1.109647 S    
C107  O55   1.217583 D    
C38   C50   1.395564 A    
C5    C9    1.522797 S    
C138  O82   1.221836 D    
O37   C14   1.400241 S    
C26   C106  1.501370 S    
C108  H64   1.082633 S    
C2    C118  1.525047 S    
C67   C75   1.382648 A    
C75   C77   1.393157 A    
C121  H73   1.081564 S    
C67   C71   1.432053 A    
P8    C63   1.946070 S    
C73   C79   1.394645 A    
C139  H91   1.080649 S    
C50   H46   1.080100 S    
C9    H13   1.108508 S    
P7    O39   1.763222 S    
C142  O86   1.218490 D    
P1    O5    1.608802 S    
C47   C127  1.467162 S    
Ba4   O48   2.894471 S    
O21   P14   1.767626 S    
C37   C49   1.401203 A    
O12   Ba4   2.872138 S    
P2    Ba2   3.491833 S    
C24   C28   1.565097 S    
C94   C134  1.449110 S    
O22   C30   1.423223 S    
C143  O87   1.210095 D    
H1    C29   1.114137 S    
C71   C85   1.450227 A    
C69   C87   1.447953 A    
C20   C100  1.492503 S    
C119  H71   1.081962 S    
C4    C120  1.516293 S    
C135  H87   1.053384 S    
Ba1   Ba2   4.729736 S    
P10   O34   1.548434 D    
C11   H15   1.108108 S    
C115  O59   1.220514 D    
P11   O31   1.746712 S    
C14   C142  1.494451 S    
C109  N5    1.158229 T    
O1    Ba1   2.906921 S    
C5    H5    1.100112 S    
C32   C116  1.491671 S    
Ba2   O46   2.894471 S    
C7    H7    1.098771 S    
O39   C16   1.400964 S    
C41   C45   1.418634 A    
C100  H60   1.084773 S    
C114  O58   1.212634 D    
C60   H56   1.055783 S    
O13   P14   1.547299 D    
O32   Ba4   2.868287 S    
C116  H68   1.082447 S    
C42   C54   1.462058 A    
C57   C89   1.417591 A    
C53   C57   1.396842 A    
C13   C141  1.485466 S    
C33   C37   1.418864 A    
C8    C12   1.523760 S    
C124  O68   1.222549 D    
P1    O17   1.783250 S    
C125  H77   1.074999 S    
P3    O19   1.758635 S    
O24   C32   1.414507 S    
P4    O4    1.567666 D    
C129  H81   1.078179 S    
C3    C119  1.510361 S    
O6    Ba1   2.895812 S    
C105  H61   1.080665 S    
P7    O48   1.623943 S    
C95   C135  1.449319 S    
C63   C95   1.408839 A    
C5    H9    1.101312 S    
P5    O46   1.623943 S    
C61   C93   1.411794 A    
C78   C130  1.468934 S    
C127  H79   1.080113 S    
C133  O77   1.216855 D    
O9    Ba1   2.867488 S    
C81   C85   1.430679 A    
C57   H53   1.068159 S    
C45   C51   1.394916 A    
C74   C80   1.398173 A    
C10   H18   1.101074 S    
P4    Ba4   3.491833 S    
O2    Ba2   2.918818 S    
C1    C137  1.524024 S    
P2    O2    1.567666 D    
C34   C94   1.415246 A    
C63   C67   1.434763 A    
O43   C7    1.411076 S    
C131  O75   1.217647 D    
O11   Ba3   2.867488 S    
C113  O57   1.219418 D    
C65   C69   1.437134 A    
C77   C129  1.463981 S    
C68   C72   1.437386 A    
C13   C17   1.540319 S    
C105  O53   1.221983 D    
C26   H38   1.110706 S    
C132  H84   1.078099 S    
C80   C132  1.471784 S    
C83   C91   1.435737 A    
C117  H69   1.084362 S    
C70   C88   1.446969 A    
C74   H50   1.078028 S    
C22   H34   1.105554 S    
C6    C10   1.523733 S    
C139  O83   1.222291 D    
C118  O62   1.219938 D    
C144  O88   1.218650 D    
H3    C31   1.114619 S    
C110  N6    1.158514 T    
P2    O6    1.617127 S    
C16   C20   1.544029 S    
O29   Ba1   2.872880 S    
O40   C15   1.404058 S    
O31   Ba3   2.872880 S    
C59   H55   1.072160 S    
C98   O50   1.220231 D    
C107  H63   1.074314 S    
C46   C52   1.396802 A    
C15   C19   1.541233 S    
C122  H74   1.085048 S    
C49   H45   1.079980 S    
C97   O49   1.220082 D    
O22   P13   1.776116 S    
C27   C107  1.494691 S    
C48   C128  1.468712 S    
C141  O85   1.210133 D    
C135  O79   1.215693 D    
C77   C81   1.433288 A    
C17   C97   1.494225 S    
O8    Ba3   2.895812 S    
O16   P15   1.540868 D    
O19   C23   1.398360 S    
C22   C26   1.553492 S    
Ba3   O48   3.012753 S    
Ba1   O46   3.012753 S    
C3    C139  1.526644 S    
C141  H93   1.085547 S    
O12   P15   1.769188 S    
C14   C18   1.545167 S    
C44   C88   1.460599 A    
C17   H25   1.112869 S    
C2    C122  1.514969 S    
P15   C92   1.916679 S    
C76   C78   1.401636 A    
