data_mof_unit_63235.cif
_audit_creation_date              2012-12-10T17:35:48-0500
_audit_creation_method            fapswitch 2.2
_symmetry_space_group_name_H-M    P1
_symmetry_Int_Tables_number       1
_space_group_crystal_system       triclinic
_cell_length_a                    30.287207
_cell_length_b                    31.990844
_cell_length_c                    21.417179
_cell_angle_alpha                 90.024317
_cell_angle_beta                  134.946805
_cell_angle_gamma                 89.837747
_cell_volume                      14686.970113

loop_
_atom_site_label
_atom_site_type_symbol
_atom_type_description
_atom_site_fract_x
_atom_site_fract_y
_atom_site_fract_z
_atom_type_partial_charge
C1    C     C_R   0.379684 0.500017 0.379763 0.791654
C2    C     C_R   0.879687 0.000067 0.379739 0.792131
C3    C     C_3   0.559369 0.763614 0.566561 -0.212081
C4    C     C_3   0.533528 0.236081 0.484397 -0.204700
C5    C     C_3   0.050396 0.263637 0.518030 -0.211908
C6    C     C_3   0.056557 0.736026 0.574470 -0.214584
C7    C     C_3   0.500715 0.791434 0.501129 0.081384
C8    C     C_3   0.500462 0.208603 0.500473 0.081287
C9    C     C_3   0.001074 0.291408 0.501339 0.081187
C10   C     C_3   0.000089 0.708566 0.500439 0.081515
C11   C     C_3   0.523661 0.735589 0.578242 -0.176172
C12   C     C_3   0.559528 0.264106 0.563749 -0.173151
C13   C     C_3   0.053697 0.235548 0.580597 -0.174038
C14   C     C_3   0.012774 0.764354 0.570578 -0.178046
C15   C     C_3   0.465416 0.763686 0.512271 -0.010683
C16   C     C_3   0.525826 0.236349 0.578413 -0.013017
C17   C     C_3   0.004090 0.263605 0.562644 -0.010085
C18   C     C_3   0.956887 0.736616 0.496269 -0.012336
C19   C     C_1   0.500088 0.662737 0.499908 -0.043855
C20   C     C_1   0.500232 0.337294 0.500295 -0.040455
C21   C     C_1   0.000313 0.162716 0.500462 -0.043713
C22   C     C_1   0.000077 0.837264 0.499714 -0.040502
C23   C     C_1   0.500566 0.837332 0.500683 -0.045333
C24   C     C_1   0.499974 0.162697 0.499876 -0.047878
C25   C     C_1   0.000687 0.337313 0.500728 -0.047503
C26   C     C_1   0.999892 0.662668 0.499971 -0.045341
C27   C     C_3   0.271347 0.492207 0.330293 -0.190327
C28   C     C_3   0.270710 0.537450 0.252030 -0.169788
C29   C     C_3   0.771387 0.985010 0.326875 -0.188131
C30   C     C_3   0.770649 0.039208 0.262536 -0.170416
C31   C     C_3   0.229385 0.529652 0.269129 -0.184234
C32   C     C_3   0.729323 0.024182 0.276370 -0.179318
C33   C     C_3   0.188963 0.499609 0.189899 -0.064164
C34   C     C_3   0.688977 0.999501 0.189459 -0.063373
C35   C     C_3   0.230578 0.462674 0.250248 0.002268
C36   C     C_3   0.229799 0.507171 0.173256 0.024159
C37   C     C_3   0.730700 0.960892 0.239294 -0.002169
C38   C     C_3   0.729802 0.014165 0.175981 0.020231
C39   C     C_R   0.500037 0.580130 0.500035 0.809927
C40   C     C_R   0.500094 0.419877 0.500085 0.823295
C41   C     C_R   0.000053 0.080126 0.500066 0.810116
C42   C     C_R   0.000095 0.919869 0.500065 0.821787
C43   C     C_3   0.271503 0.469637 0.232902 -0.217757
C44   C     C_3   0.771578 0.975089 0.224955 -0.215520
C45   C     C_3   0.311395 0.499865 0.311767 -0.002046
C46   C     C_3   0.811407 0.999917 0.311582 -0.004355
C47   C     C_3   0.729975 0.530421 0.767028 0.243729
C48   C     C_3   0.730071 0.463523 0.749179 0.238450
C49   C     C_3   0.230096 0.025124 0.775537 0.241711
C50   C     C_3   0.229847 0.961933 0.737876 0.240965
C51   C     C_3   0.770461 0.493342 0.827930 0.257416
C52   C     C_3   0.270381 0.985974 0.824851 0.259643
C53   C     C_3   0.811638 0.500302 0.811278 -0.128946
C54   C     C_3   0.311602 0.000365 0.811445 -0.129345
C55   C     C_3   0.771328 0.538152 0.750491 -0.263980
C56   C     C_3   0.771492 0.469726 0.732166 -0.229502
C57   C     C_3   0.271421 0.040276 0.762388 -0.265357
C58   C     C_3   0.271302 0.975657 0.723888 -0.226888
C59   C     C_3   0.730216 0.507391 0.671892 -0.047085
C60   C     C_3   0.230139 0.015187 0.675282 -0.045069
C61   C     C_3   0.688492 0.500488 0.687862 -0.177558
C62   C     C_3   0.188452 0.000881 0.688090 -0.178773
C63   C     C_R   0.500193 0.000227 0.379801 0.786653
C64   C     C_R   0.000123 0.499553 0.379751 0.786442
C65   C     C_R   0.500108 0.919901 0.499973 0.814407
C66   C     C_R   0.499918 0.080106 0.499825 0.812538
C67   C     C_R   0.000110 0.419896 0.500016 0.810890
C68   C     C_R   0.999920 0.580099 0.499771 0.817222
C69   C     C_R   0.620248 0.500248 0.620116 0.805544
C70   C     C_R   0.120230 0.000497 0.620146 0.803714
C71   C     C_R   0.499934 0.000108 0.620219 0.788955
C72   C     C_R   0.999942 0.500081 0.620220 0.789345
C73   C     C_R   0.999656 0.499996 0.120103 0.810197
C74   C     C_R   0.499464 0.000010 0.119887 0.811939
C75   C     C_R   0.120568 0.499898 0.121142 0.795374
C76   C     C_R   0.620575 0.999876 0.120867 0.795844
C77   C     C_R   0.000157 0.500003 0.879485 0.798854
C78   C     C_R   0.499981 0.000017 0.879314 0.798876
C79   C     C_R   0.879604 0.500080 0.879471 0.825909
C80   C     C_R   0.379591 0.000085 0.879555 0.826566
C81   C     C_3   0.557855 0.003980 0.326764 0.272544
C82   C     C_3   0.476340 0.965145 0.246498 0.279822
C83   C     C_3   0.993141 0.537918 0.263431 0.283525
C84   C     C_3   0.053230 0.484082 0.322365 0.273046
C85   C     C_3   0.047835 0.523653 0.276525 -0.211572
C86   C     C_3   0.534770 0.967443 0.263257 -0.214351
C87   C     C_3   0.999637 0.499917 0.188258 -0.060818
C88   C     C_3   0.499512 0.000035 0.188065 -0.060177
C89   C     C_3   0.944832 0.515433 0.174177 -0.142919
C90   C     C_3   0.006665 0.459963 0.235050 -0.200669
C91   C     C_3   0.524282 0.036585 0.252580 -0.197909
C92   C     C_3   0.440413 0.996580 0.169770 -0.145949
C93   C     C_3   0.465591 0.032822 0.236196 -0.232156
C94   C     C_3   0.952379 0.475691 0.222897 -0.240048
C95   C     C_3   0.477814 0.763686 0.424916 0.304932
C96   C     C_3   0.442803 0.236731 0.438955 0.298875
C97   C     C_3   0.949294 0.263638 0.423673 0.301640
C98   C     C_3   0.987627 0.736364 0.431291 0.305496
C99   C     C_3   0.500566 0.000565 0.311799 -0.097200
C100  C     C_3   0.000167 0.499159 0.311445 -0.094699
C101  C     C_3   0.496921 0.960397 0.725781 -0.183685
C102  C     C_3   0.552947 0.018109 0.781850 -0.172205
C103  C     C_3   0.986453 0.461369 0.715300 -0.185203
C104  C     C_3   0.057037 0.511372 0.785839 -0.172709
C105  C     C_3   0.042690 0.473160 0.812492 0.015317
C106  C     C_3   0.548975 0.978752 0.818896 0.019123
C107  C     C_3   0.000316 0.500028 0.811208 -0.026512
C108  C     C_3   0.500071 0.000112 0.810976 -0.027467
C109  C     C_3   0.943538 0.488734 0.714144 -0.157740
C110  C     C_3   0.013892 0.538632 0.784300 -0.162903
C111  C     C_3   0.447324 0.982193 0.717861 -0.158651
C112  C     C_3   0.503189 0.039754 0.773632 -0.162728
C113  C     C_3   0.450377 0.021861 0.679567 -0.146252
C114  C     C_3   0.957083 0.527387 0.686298 -0.142771
C115  C     C_3   0.500011 0.000140 0.688721 -0.002310
C116  C     C_3   0.000065 0.500071 0.688754 -0.004220
C117  C     C_3   0.440961 0.736067 0.433945 -0.199740
C118  C     C_3   0.466958 0.264352 0.516752 -0.243657
C119  C     C_3   0.950754 0.235977 0.483986 -0.200345
C120  C     C_3   0.942995 0.764297 0.424856 -0.196264
C121  C     C_1   0.500073 0.625029 0.500013 -0.172253
C122  C     C_1   0.500189 0.374993 0.500184 -0.163003
C123  C     C_1   0.000193 0.125015 0.500255 -0.170591
C124  C     C_1   0.000120 0.874970 0.499955 -0.164585
C125  C     C_1   0.500356 0.875024 0.500304 -0.158059
C126  C     C_1   0.499787 0.124997 0.499677 -0.158642
C127  C     C_1   0.000380 0.375011 0.500327 -0.159138
C128  C     C_1   0.999790 0.624976 0.499710 -0.155224
C129  C     C_3   0.536192 0.735775 0.488542 -0.189771
C130  C     C_3   0.474366 0.264271 0.420859 -0.146221
C131  C     C_3   0.997411 0.235799 0.438158 -0.189627
C132  C     C_3   0.044106 0.763918 0.503783 -0.189794
C133  C     C_3   0.500093 0.708597 0.499842 0.130309
C134  C     C_3   0.500182 0.291449 0.500361 0.130146
C135  C     C_3   0.000403 0.208567 0.500660 0.131043
C136  C     C_3   0.999934 0.791403 0.499445 0.129829
Cu1   Cu    Cu3+1 0.499970 0.500000 0.437200 0.982311
Cu2   Cu    Cu3+1 0.999970 1.000000 0.437200 0.983015
Cu3   Cu    Cu3+1 0.500040 0.500000 0.562800 0.955545
Cu4   Cu    Cu3+1 0.000040 1.000000 0.562800 0.955593
Cu5   Cu    Cu3+1 0.437240 1.000000 0.437100 0.974717
Cu6   Cu    Cu3+1 0.937240 0.500000 0.437100 0.975436
Cu7   Cu    Cu3+1 0.562770 1.000000 0.562750 0.966184
Cu8   Cu    Cu3+1 0.062770 0.500000 0.562750 0.965191
Cu9   Cu    Cu3+1 0.000000 0.541440 0.999930 0.944888
Cu10  Cu    Cu3+1 0.000000 0.458560 0.999930 0.969359
Cu11  Cu    Cu3+1 0.500000 0.041440 0.999930 0.951492
Cu12  Cu    Cu3+1 0.500000 0.958560 0.999930 0.964339
H1    H     H_    0.392440 0.724741 0.379415 0.136901
H2    H     H_    0.439286 0.275950 0.529405 0.143561
H3    H     H_    0.909812 0.224606 0.469806 0.137626
H4    H     H_    0.896493 0.775916 0.363390 0.142752
H5    H     H_    0.289533 0.445127 0.218846 0.148201
H6    H     H_    0.789607 0.955038 0.204618 0.154827
H7    H     H_    0.789057 0.568771 0.751646 0.162387
H8    H     H_    0.789627 0.445033 0.718612 0.153134
H9    H     H_    0.289180 0.072477 0.772960 0.163916
H10   H     H_    0.289359 0.955605 0.703610 0.148161
H11   H     H_    0.086447 0.543431 0.297438 0.131999
H12   H     H_    0.562531 0.940579 0.273302 0.144099
H13   H     H_    0.900290 0.528658 0.111896 0.144452
H14   H     H_    0.013076 0.427710 0.223349 0.155433
H15   H     H_    0.544892 0.065937 0.254952 0.149210
H16   H     H_    0.392009 0.993205 0.103748 0.146079
H17   H     H_    0.437567 0.059419 0.226364 0.156901
H18   H     H_    0.913626 0.456154 0.202124 0.159901
H19   H     H_    0.494752 0.927930 0.705419 0.138736
H20   H     H_    0.596388 0.032622 0.807357 0.162593
H21   H     H_    0.975621 0.429707 0.686295 0.142896
H22   H     H_    0.103671 0.520449 0.814520 0.165038
H23   H     H_    0.897093 0.479607 0.686069 0.138381
H24   H     H_    0.025084 0.570287 0.813440 0.156738
H25   H     H_    0.404079 0.967634 0.692922 0.138146
H26   H     H_    0.505649 0.072271 0.794018 0.160642
H27   H     H_    0.409682 0.039682 0.620846 0.147338
H28   H     H_    0.921749 0.549761 0.632913 0.147081
H29   H     H_    0.542354 0.723529 0.641799 0.145248
H30   H     H_    0.608035 0.275886 0.616040 0.143712
H31   H     H_    0.096929 0.223478 0.646040 0.142912
H32   H     H_    0.022858 0.776366 0.628224 0.143805
H33   H     H_    0.607739 0.775196 0.620976 0.154291
H34   H     H_    0.560928 0.224211 0.471473 0.149962
H35   H     H_    0.091254 0.275260 0.532259 0.152676
H36   H     H_    0.102905 0.724156 0.635793 0.152466
H37   H     H_    0.564752 0.724049 0.477495 0.140022
H38   H     H_    0.452580 0.276033 0.355457 0.135592
H39   H     H_    0.993781 0.224121 0.385858 0.139975
H40   H     H_    0.079579 0.775401 0.505657 0.139667
H41   H     H_    0.211190 0.554100 0.283002 0.144944
H42   H     H_    0.711016 0.044143 0.296384 0.139359
H43   H     H_    0.289272 0.485765 0.395894 0.148934
H44   H     H_    0.288456 0.568167 0.253617 0.131684
H45   H     H_    0.789399 0.972749 0.389915 0.148082
H46   H     H_    0.788339 0.071418 0.272952 0.129907
O1    O     O_R   0.408400 0.500000 0.355400 -0.586017
O2    O     O_R   0.908400 1.000000 0.355400 -0.586836
O3    O     O_R   0.553010 0.939540 0.552990 -0.579181
O4    O     O_R   0.553010 0.060460 0.552990 -0.580602
O5    O     O_R   0.053010 0.439540 0.552990 -0.580523
O6    O     O_R   0.053010 0.560460 0.552990 -0.583872
O7    O     O_R   0.446960 1.000000 0.538400 -0.586127
O8    O     O_R   0.946960 0.500000 0.538400 -0.583680
O9    O     O_R   0.552960 1.000000 0.644510 -0.586970
O10   O     O_R   0.052960 0.500000 0.644510 -0.588486
O11   O     O_R   0.000050 0.534990 0.091550 -0.593398
O12   O     O_R   0.000050 0.465010 0.091550 -0.591042
O13   O     O_R   0.500050 0.034990 0.091550 -0.590962
O14   O     O_R   0.500050 0.965010 0.091550 -0.593593
O15   O     O_R   0.091570 0.534990 0.091500 -0.588997
O16   O     O_R   0.091570 0.465010 0.091500 -0.574752
O17   O     O_R   0.591570 0.034990 0.091500 -0.586543
O18   O     O_R   0.591570 0.965010 0.091500 -0.576382
O19   O     O_R   0.999950 0.535010 0.908310 -0.588732
O20   O     O_R   0.999950 0.464990 0.908310 -0.582819
O21   O     O_R   0.499950 0.035010 0.908310 -0.587320
O22   O     O_R   0.499950 0.964990 0.908310 -0.583541
O23   O     O_R   0.908430 0.535000 0.908360 -0.587570
O24   O     O_R   0.908430 0.465000 0.908360 -0.597670
O25   O     O_R   0.408430 0.035000 0.908360 -0.587444
O26   O     O_R   0.408430 0.965000 0.908360 -0.600288
O27   O     O_R   0.408460 0.500000 0.461460 -0.590474
O28   O     O_R   0.908460 1.000000 0.461460 -0.589351
O29   O     O_R   0.499970 0.560460 0.446970 -0.577363
O30   O     O_R   0.499970 0.439540 0.446970 -0.576164
O31   O     O_R   0.999970 0.060460 0.446970 -0.575332
O32   O     O_R   0.999970 0.939540 0.446970 -0.575732
O33   O     O_R   0.500030 0.560470 0.553030 -0.579845
O34   O     O_R   0.500030 0.439530 0.553030 -0.584268
O35   O     O_R   0.000030 0.060470 0.553030 -0.582253
O36   O     O_R   0.000030 0.939530 0.553030 -0.584488
O37   O     O_R   0.591550 0.500000 0.538540 -0.573473
O38   O     O_R   0.091550 1.000000 0.538540 -0.570836
O39   O     O_R   0.591610 0.500000 0.644600 -0.587382
O40   O     O_R   0.091610 1.000000 0.644600 -0.586903
O41   O     O_R   0.447050 1.000000 0.355340 -0.571256
O42   O     O_R   0.947050 0.500000 0.355340 -0.576899
O43   O     O_R   0.553050 1.000000 0.461450 -0.585481
O44   O     O_R   0.053050 0.500000 0.461450 -0.581850
O45   O     O_R   0.447010 0.939550 0.446880 -0.571101
O46   O     O_R   0.447010 0.060450 0.446880 -0.581651
O47   O     O_R   0.947010 0.439550 0.446880 -0.579062
O48   O     O_R   0.947010 0.560450 0.446880 -0.570011
N1    N     N_2   0.796036 0.486379 0.915254 -0.451277
H47   H     H_    0.831985 0.464907 0.952044 0.246011
C137  C     C_3   0.751217 0.480625 0.920111 -0.683833
H48   H     H_    0.775578 0.482323 0.990115 0.224635
H49   H     H_    0.728797 0.449552 0.893737 0.222727
H50   H     H_    0.714937 0.505435 0.882756 0.267259
N2    N     N_2   0.295704 0.970831 0.908697 -0.455353
H51   H     H_    0.331451 0.949507 0.939019 0.247336
C138  C     C_3   0.250670 0.958758 0.910506 -0.694685
H52   H     H_    0.274853 0.954317 0.980024 0.226266
H53   H     H_    0.228109 0.928879 0.874841 0.224270
H54   H     H_    0.214516 0.983323 0.880485 0.269570
N3    N     N_2   0.705736 0.563028 0.783022 -0.420767
H55   H     H_    0.669791 0.579677 0.726855 0.247153
C139  C     C_3   0.752422 0.589660 0.857551 -0.665490
H56   H     H_    0.729682 0.611367 0.868352 0.224687
H57   H     H_    0.776245 0.608339 0.844768 0.216321
H58   H     H_    0.787455 0.570773 0.918383 0.256277
N4    N     N_2   0.705098 0.423797 0.744478 -0.427560
H59   H     H_    0.672854 0.426389 0.747751 0.254462
C140  C     C_3   0.750540 0.390951 0.799448 -0.674604
H60   H     H_    0.726095 0.361348 0.786214 0.225624
H61   H     H_    0.781988 0.398907 0.870240 0.223435
H62   H     H_    0.778515 0.385928 0.784396 0.237304
N5    N     N_2   0.206241 0.051912 0.800751 -0.417546
H63   H     H_    0.170725 0.071248 0.750231 0.251570
C141  C     C_3   0.253261 0.073930 0.883082 -0.667340
H64   H     H_    0.230739 0.090971 0.899764 0.225564
H65   H     H_    0.277609 0.096873 0.877145 0.216341
H66   H     H_    0.287823 0.051707 0.937487 0.257043
N6    N     N_2   0.204584 0.920388 0.720729 -0.426355
H67   H     H_    0.172169 0.918359 0.723735 0.248510
C142  C     C_3   0.249799 0.886781 0.765802 -0.672725
H68   H     H_    0.225133 0.856357 0.743244 0.224990
H69   H     H_    0.281081 0.889258 0.838160 0.222382
H70   H     H_    0.277978 0.887476 0.750470 0.237073
C143  C     C_1   0.708946 0.515263 0.586598 0.289560
N7    N     N_1   0.692189 0.521475 0.519343 -0.283938
C144  C     C_1   0.208403 0.031486 0.593337 0.285281
N8    N     N_1   0.191254 0.044346 0.528703 -0.286136
N9    N     N_2   0.621236 0.008708 0.412223 -0.404094
H71   H     H_    0.626323 0.033791 0.447082 0.261375
C145  C     C_3   0.668400 0.007555 0.411093 -0.699361
H72   H     H_    0.715320 0.009969 0.479592 0.231890
H73   H     H_    0.661925 0.034104 0.371776 0.212031
H74   H     H_    0.666176 0.977611 0.382727 0.234270
N10   N     N_2   0.450519 0.926877 0.245537 -0.418091
H75   H     H_    0.479401 0.912648 0.306549 0.241009
C146  C     C_3   0.426703 0.898233 0.175391 -0.677370
H76   H     H_    0.405521 0.870855 0.177875 0.231598
H77   H     H_    0.465110 0.887102 0.183054 0.221728
H78   H     H_    0.390144 0.913663 0.110143 0.231373
N11   N     N_2   0.985721 0.579627 0.281176 -0.425817
H79   H     H_    0.019328 0.587035 0.347329 0.242245
C147  C     C_3   0.976479 0.612038 0.225860 -0.671510
H80   H     H_    0.968210 0.642362 0.241510 0.230284
H81   H     H_    0.935129 0.604986 0.155177 0.235005
H82   H     H_    0.018476 0.614893 0.237725 0.219042
N12   N     N_2   0.111264 0.466607 0.403143 -0.408552
H83   H     H_    0.104623 0.442321 0.427401 0.253695
C148  C     C_3   0.156666 0.456999 0.400627 -0.681846
H84   H     H_    0.200297 0.445486 0.466339 0.229857
H85   H     H_    0.167939 0.485435 0.384436 0.227864
H86   H     H_    0.138546 0.432374 0.350793 0.225877
C149  C     C_1   0.089691 0.443469 0.882408 0.265738
N13   N     N_1   0.126761 0.420089 0.937640 -0.268979
C150  C     C_1   0.602983 0.955210 0.896258 0.249359
N14   N     N_1   0.645552 0.936675 0.957360 -0.279462
N15   N     N_2   0.453502 0.780146 0.342574 -0.427190
H87   H     H_    0.482629 0.801834 0.351406 0.249771
C151  C     C_3   0.431528 0.749015 0.277034 -0.685149
H88   H     H_    0.411060 0.764766 0.215148 0.228199
H89   H     H_    0.394819 0.729473 0.262238 0.235727
H90   H     H_    0.470815 0.728792 0.300725 0.222033
N16   N     N_2   0.379864 0.220825 0.371738 -0.428642
H91   H     H_    0.369960 0.199004 0.395800 0.253451
C152  C     C_3   0.331940 0.252443 0.317706 -0.668360
H92   H     H_    0.285915 0.237164 0.265660 0.234133
H93   H     H_    0.340885 0.272250 0.285042 0.234119
H94   H     H_    0.330319 0.272346 0.358597 0.222593
N17   N     N_2   0.893208 0.279955 0.338894 -0.425454
H95   H     H_    0.902317 0.301557 0.313502 0.250027
C153  C     C_3   0.848520 0.248685 0.275371 -0.680801
H96   H     H_    0.806087 0.264295 0.214364 0.232664
H97   H     H_    0.834649 0.229215 0.302091 0.234002
H98   H     H_    0.868654 0.228403 0.258427 0.219917
N18   N     N_2   0.974488 0.719919 0.356629 -0.426696
H99   H     H_    0.006829 0.698030 0.374502 0.248189
C154  C     C_3   0.961068 0.751068 0.296226 -0.685084
H100  H     H_    0.948610 0.735331 0.239299 0.227219
H101  H     H_    0.002612 0.771034 0.329701 0.221059
H102  H     H_    0.920982 0.770865 0.270791 0.239004
C155  C     C_1   0.427115 0.779069 0.525954 0.240891
N19   N     N_1   0.396907 0.791229 0.536751 -0.282670
C156  C     C_1   0.554358 0.220959 0.664782 0.236031
N20   N     N_1   0.576858 0.208794 0.732904 -0.283847
C157  C     C_1   0.008211 0.278956 0.631158 0.240460
N21   N     N_1   0.011460 0.291097 0.685192 -0.278627
C158  C     C_1   0.909525 0.721580 0.492871 0.244971
N22   N     N_1   0.872170 0.709697 0.490195 -0.277360
C159  C     C_1   0.209130 0.421676 0.250531 0.252652
N23   N     N_1   0.192198 0.389358 0.250772 -0.289580
C160  C     C_1   0.206311 0.515725 0.086732 0.234667
N24   N     N_1   0.187784 0.522568 0.018518 -0.303531
C161  C     C_1   0.709692 0.917764 0.227834 0.263590
N25   N     N_1   0.693120 0.883755 0.218796 -0.277555
C162  C     C_1   0.706160 0.030235 0.092695 0.242576
N26   N     N_1   0.687427 0.042928 0.026975 -0.292068

loop_
_geom_bond_atom_site_label_1
_geom_bond_atom_site_label_2
_ccdc_geom_bond_type
C73   O12   A    
Cu1   O1    S    
C55   C59   S    
C147  H81   S    
C146  H76   S    
C117  C133  S    
C97   N17   S    
N3    C139  S    
C156  N20   T    
C148  H85   S    
N12   H83   S    
C129  H37   S    
Cu12  O18   S    
C86   C88   S    
C58   C60   S    
C33   C36   S    
C30   C38   S    
C60   C62   S    
C89   C94   S    
Cu2   O32   S    
C112  C113  S    
C1    O27   A    
C104  C116  S    
C11   C15   S    
C12   C16   S    
C50   C52   S    
C4    C12   S    
C68   C128  S    
C5    C13   S    
C81   C86   S    
C113  H27   S    
C7    C15   S    
Cu4   O35   S    
C8    C16   S    
C137  H48   S    
C132  H40   S    
C130  C134  S    
C38   C162  S    
C104  C105  S    
C44   C46   S    
C77   O20   A    
Cu9   Cu10  S    
Cu7   O3    S    
C120  H4    S    
C77   O19   A    
N17   H95   S    
C84   C100  S    
C138  H52   S    
C97   C131  S    
C6    C132  S    
C4    C130  S    
C81   C99   S    
C27   C35   S    
C6    H36   S    
Cu3   O34   S    
C32   C34   S    
C21   C123  T    
C6    C10   S    
C16   C118  S    
C148  H84   S    
Cu8   O6    S    
C10   C26   S    
Cu8   O44   S    
C111  C113  S    
Cu10  O20   S    
Cu2   Cu4   S    
C105  C149  S    
C129  C133  S    
C83   C100  S    
C87   C89   S    
C58   H10   S    
C101  C115  S    
C107  C110  S    
Cu6   Cu8   S    
C84   N12   S    
C101  C111  S    
C140  H61   S    
C31   H41   S    
C102  H20   S    
C49   C62   S    
C66   O46   A    
C72   C116  S    
C3    C129  S    
C79   O24   A    
C63   O43   A    
C56   C59   S    
C106  C150  S    
C98   C120  S    
C40   C122  S    
C67   O5    A    
C108  C111  S    
C44   H6    S    
C37   C44   S    
C69   O37   A    
C103  C116  S    
C145  H73   S    
C104  C110  S    
Cu4   O28   S    
C10   C18   S    
C29   H45   S    
Cu2   O38   S    
C3    C11   S    
C155  N19   T    
Cu10  O24   S    
C137  H50   S    
C60   C144  S    
C117  H1    S    
C20   C134  S    
C21   C135  S    
C14   H32   S    
C113  C115  S    
C131  H39   S    
C112  H26   S    
C152  H93   S    
C75   O16   A    
C40   O34   A    
C162  N26   T    
Cu7   O43   S    
C53   C55   S    
Cu11  Cu12  S    
C81   N9    S    
C56   H8    S    
Cu9   O11   S    
N11   C147  S    
C95   C117  S    
C55   H7    S    
C105  C107  S    
Cu1   O30   S    
C62   C70   S    
Cu7   O9    S    
C90   H14   S    
C78   C108  S    
C1    O1    A    
Cu11  O21   S    
N4    H59   S    
C151  H89   S    
C48   N4    S    
C49   C57   S    
C118  H2    S    
C139  H56   S    
C153  H97   S    
C69   O39   A    
C63   C99   S    
C33   C75   S    
Cu3   O39   S    
C11   H29   S    
C35   C43   S    
C110  C114  S    
C20   C122  T    
C118  C134  S    
Cu5   O41   S    
C76   O18   A    
C12   C134  S    
C24   C126  T    
N18   C154  S    
C84   C90   S    
Cu12  O22   S    
Cu9   O15   S    
C74   O13   A    
C42   O32   A    
C83   C89   S    
C59   C61   S    
C49   N5    S    
C142  H70   S    
Cu12  O14   S    
C138  H54   S    
Cu6   O48   S    
C66   C126  S    
C51   C53   S    
C36   C160  S    
C97   C119  S    
C5    C9    S    
C82   N10   S    
C6    C14   S    
C88   C91   S    
C94   C100  S    
C132  C136  S    
N10   H75   S    
C32   H42   S    
C103  C105  S    
C43   C45   S    
C95   N15   S    
C66   O4    A    
C109  C114  S    
N15   C151  S    
C141  H66   S    
C104  H22   S    
C53   C56   S    
C101  C106  S    
C73   O11   A    
C19   C121  T    
C64   O44   A    
C30   C46   S    
C51   N1    S    
C78   O21   A    
C114  C116  S    
N5    H63   S    
Cu2   O2    S    
C13   C17   S    
C139  H58   S    
C74   C88   S    
C142  H69   S    
C64   C100  S    
Cu1   O37   S    
C1    C45   S    
C106  C108  S    
C7    C23   S    
C114  H28   S    
C8    C24   S    
C2    O2    A    
C154  H102  S    
C18   C158  S    
C37   C161  S    
Cu5   O45   S    
C98   C132  S    
N9    H71   S    
C103  H21   S    
C17   C157  S    
C109  H23   S    
C34   C76   S    
C54   C57   S    
C110  H24   S    
Cu4   O36   S    
C59   C143  S    
C34   C37   S    
C82   C99   S    
C102  C112  S    
C142  H68   S    
C159  N23   T    
C91   H15   S    
C94   H18   S    
C80   O25   A    
C9    C25   S    
C140  H60   S    
Cu1   Cu3   S    
Cu6   O8    S    
C72   O8    A    
C64   O42   A    
C29   C32   S    
C3    C7    S    
Cu5   Cu7   S    
N1    H47   S    
C2    O28   A    
C82   C92   S    
Cu3   O33   S    
N18   H99   S    
N16   C152  S    
C73   C87   S    
C102  C115  S    
C143  N7    T    
C93   C99   S    
C39   O33   A    
Cu10  O12   S    
C72   O10   A    
C27   C45   S    
C111  H25   S    
C141  H64   S    
Cu4   O40   S    
C107  C109  S    
C39   O29   A    
Cu11  O17   S    
C89   H13   S    
C90   C94   S    
C148  H86   S    
C54   C80   S    
N12   C148  S    
C41   O31   A    
C149  N13   T    
C50   C58   S    
C84   C85   S    
C161  N25   T    
C57   C60   S    
C47   C51   S    
C82   C86   S    
C27   C31   S    
C119  C135  S    
C108  C112  S    
C22   C136  S    
C120  C136  S    
Cu2   O31   S    
C71   O9    A    
C154  H100  S    
C47   N3    S    
C145  H72   S    
C91   C93   S    
C157  N21   T    
C49   C52   S    
N2    H51   S    
Cu12  O26   S    
Cu9   O19   S    
C42   O36   A    
C83   C85   S    
Cu5   O46   S    
C137  H49   S    
C71   O7    A    
N11   H79   S    
C96   C130  S    
Cu7   O4    S    
C75   O15   A    
C9    C97   S    
C146  H77   S    
C35   C159  S    
C28   C31   S    
C96   N16   S    
C47   C61   S    
C19   C133  S    
Cu1   O29   S    
C39   C121  S    
C29   C46   S    
C103  C109  S    
C25   C127  T    
N5    C141  S    
C151  H88   S    
C30   H46   S    
Cu8   O5    S    
C14   C136  S    
C50   N6    S    
C92   C93   S    
C153  H96   S    
C70   O38   A    
C79   O23   A    
C17   C119  S    
C63   O41   A    
C152  H92   S    
C81   C91   S    
C15   C117  S    
C5    C131  S    
Cu9   O23   S    
C28   C36   S    
C87   C90   S    
C29   C37   S    
C95   C129  S    
C36   C43   S    
C85   H11   S    
C4    H34   S    
C43   H5    S    
C86   H12   S    
C5    H35   S    
C140  H62   S    
N15   H87   S    
N9    C145  S    
C147  H80   S    
C14   C18   S    
C8    C96   S    
C4    C8    S    
C67   O47   A    
C42   C124  S    
C74   O14   A    
C150  N14   T    
C2    C46   S    
C38   C44   S    
C40   O30   A    
C96   C118  S    
C53   C79   S    
Cu5   O7    S    
C145  H74   S    
C131  C135  S    
C11   C133  S    
C138  H53   S    
C10   C98   S    
C70   O40   A    
C101  H19   S    
C33   C35   S    
C83   N11   S    
C48   C51   S    
C88   C92   S    
C68   O48   A    
N1    C137  S    
C31   C33   S    
Cu8   O10   S    
N6    C142  S    
C52   N2    S    
C23   C125  T    
C92   H16   S    
Cu6   O42   S    
C152  H94   S    
C93   H17   S    
C27   H43   S    
C28   H44   S    
C16   C156  S    
Cu10  O16   S    
C52   C54   S    
C85   C87   S    
C119  H3    S    
C28   C45   S    
N2    C138  S    
C77   C107  S    
C146  H78   S    
C13   C135  S    
C78   O22   A    
N4    C140  S    
C151  H90   S    
C144  N8    T    
C13   H31   S    
C139  H57   S    
C65   C125  S    
C153  H98   S    
N17   C153  S    
C67   C127  S    
C3    H33   S    
N6    H67   S    
C71   C115  S    
C26   C128  T    
Cu11  O13   S    
C154  H101  S    
C65   O3    A    
C76   O17   A    
C9    C17   S    
C41   O35   A    
C50   C62   S    
C147  H82   S    
N3    H55   S    
C18   C120  S    
C47   C55   S    
C54   C58   S    
C61   C69   S    
C48   C56   S    
C57   H9    S    
C34   C38   S    
C15   C155  S    
C80   O26   A    
C130  H38   S    
C22   C124  T    
Cu6   O47   S    
C7    C95   S    
C98   N18   S    
C68   O6    A    
C41   C123  S    
C141  H65   S    
C160  N24   T    
C30   C32   S    
Cu3   O27   S    
C48   C61   S    
N10   C146  S    
C102  C106  S    
N16   H91   S    
Cu11  O25   S    
C158  N22   T    
C65   O45   A    
C12   H30   S    
