data_mof_unit_27388.cif
_audit_creation_date              2012-12-10T17:23:11-0500
_audit_creation_method            fapswitch 2.2
_symmetry_space_group_name_H-M    P1
_symmetry_Int_Tables_number       1
_space_group_crystal_system       triclinic
_cell_length_a                    15.850961
_cell_length_b                    10.788906
_cell_length_c                    9.613232
_cell_angle_alpha                 90.079185
_cell_angle_beta                  89.981297
_cell_angle_gamma                 92.837861
_cell_volume                      1641.98457272

loop_
_atom_site_label
_atom_site_type_symbol
_atom_type_description
_atom_site_fract_x
_atom_site_fract_y
_atom_site_fract_z
_atom_type_partial_charge
C1    C     C_R   0.495211 0.262482 0.499946 0.894769
C2    C     C_3   0.082782 0.502852 0.500418 0.194794
C3    C     C_3   0.975137 0.597217 0.579040 -0.160618
C4    C     C_3   0.917443 0.502585 0.500399 0.194222
C5    C     C_3   0.031761 0.610675 0.448054 -0.160603
C6    C     C_3   0.972522 0.516047 0.369422 -0.159484
C7    C     C_1   0.174556 0.502554 0.500260 -0.082828
C8    C     C_1   0.825623 0.502050 0.500227 -0.079816
C9    C     C_R   0.350813 0.113987 0.632354 0.389127
C10   C     C_R   0.288999 0.038980 0.701635 -0.225886
C11   C     C_R   0.293681 0.911142 0.704402 -0.191468
C12   C     C_R   0.339977 0.500980 0.499962 0.873724
C13   C     C_R   0.359689 0.855322 0.638169 -0.178631
C14   C     C_R   0.424523 0.927144 0.570831 0.036883
C15   C     C_R   0.421319 0.058537 0.569071 0.059410
C16   C     C_R   0.487505 0.127996 0.499193 -0.098421
C17   C     C_R   0.549992 0.068373 0.426092 -0.224133
C18   C     C_R   0.551445 0.940807 0.426041 -0.199467
C19   C     C_R   0.490965 0.870338 0.500403 -0.056621
C20   C     C_R   0.612090 0.665900 0.144045 -0.134973
C21   C     C_R   0.666572 0.747472 0.072028 -0.214004
C22   C     C_R   0.666530 0.747573 0.928663 -0.204264
C23   C     C_R   0.497996 0.737129 0.500113 0.749082
C24   C     C_R   0.611992 0.666119 0.856366 -0.130585
C25   C     C_R   0.554981 0.581692 0.925346 0.204328
C26   C     C_R   0.555000 0.581609 0.074833 0.211677
C27   C     C_R   0.447660 0.422282 0.073741 -0.062804
C28   C     C_R   0.447682 0.422314 0.925962 -0.058950
C29   C     C_R   0.660072 0.500486 0.500016 0.795097
C30   C     C_3   0.968489 0.394788 0.552774 -0.157893
C31   C     C_3   0.025075 0.408243 0.421803 -0.156897
C32   C     C_1   0.250180 0.501959 0.500058 -0.182651
C33   C     C_1   0.749941 0.501355 0.500067 -0.176591
C34   C     C_3   0.027717 0.489404 0.631406 -0.160337
Cu1   Cu    Cu3+1 0.499990 0.499990 0.640660 0.951516
Cu2   Cu    Cu3+1 0.500010 0.500010 0.359340 0.944766
H1    H     H_    0.046928 0.330665 0.357274 0.129186
H2    H     H_    0.244678 0.854541 0.755631 0.152288
H3    H     H_    0.358094 0.755194 0.638665 0.159643
H4    H     H_    0.601470 0.896810 0.370510 0.132575
H5    H     H_    0.617758 0.673077 0.253718 0.190588
H6    H     H_    0.709329 0.810929 0.128213 0.142854
H7    H     H_    0.709277 0.811096 0.872708 0.145794
H8    H     H_    0.617543 0.673456 0.746676 0.194872
H9    H     H_    0.404772 0.358532 0.870857 0.159900
H10   H     H_    0.941191 0.306161 0.595777 0.127245
H11   H     H_    0.948505 0.526984 0.261891 0.129999
H12   H     H_    0.059106 0.699293 0.405096 0.129772
H13   H     H_    0.953277 0.674778 0.643588 0.125846
H14   H     H_    0.599384 0.121400 0.371068 0.149783
H15   H     H_    0.235546 0.079703 0.751111 0.125501
N1    N     N_R   0.500800 0.501210 0.147910 -0.199371
N2    N     N_R   0.500830 0.501290 0.852040 -0.200155
O1    O     O_R   0.499990 0.319640 0.618810 -0.542495
O2    O     O_R   0.500000 0.319660 0.381240 -0.586266
O3    O     O_R   0.379070 0.499980 0.618770 -0.563295
O4    O     O_R   0.379080 0.500000 0.381190 -0.573323
O5    O     O_R   0.500000 0.680340 0.618760 -0.607161
O6    O     O_R   0.500010 0.680360 0.381190 -0.593704
O7    O     O_R   0.620920 0.500000 0.618810 -0.593992
O8    O     O_R   0.620930 0.500020 0.381230 -0.594888
H16   H     H_    0.404729 0.358491 0.128681 0.142365
H17   H     H_    0.051754 0.478475 0.738926 0.126438
O9    O     O_3   0.340330 0.239576 0.620348 -0.760157
H18   H     H_    0.288147 0.261729 0.669558 0.308688

loop_
_geom_bond_atom_site_label_1
_geom_bond_atom_site_label_2
_ccdc_geom_bond_type
C17   H14   S    
C23   O5    A    
C19   C23   S    
C28   N2    A    
C1    O2    A    
C27   H16   S    
C26   N1    A    
C11   H2    S    
C9    O9    S    
C9    C10   A    
C2    C7    S    
Cu2   N1    S    
C29   O7    A    
C4    C8    S    
C30   C31   S    
C1    O1    A    
Cu2   O6    S    
O9    H18   S    
C2    C34   S    
C21   H6    S    
C20   H5    S    
C3    H13   S    
C1    C16   S    
C21   C22   A    
C12   C32   S    
Cu1   O1    S    
C23   O6    A    
C11   C13   A    
C12   O3    A    
C20   C26   A    
Cu1   O5    S    
C12   O4    A    
C4    C6    S    
C34   H17   S    
C25   C26   A    
C25   N2    A    
C17   C18   A    
C29   O8    A    
C8    C33   T    
C2    C31   S    
C9    C15   A    
C5    C6    S    
C24   H8    S    
C5    H12   S    
C22   C24   A    
C28   H9    S    
C13   H3    S    
C2    C5    S    
Cu1   N2    S    
C10   C11   A    
C10   H15   S    
Cu2   O8    S    
C6    C31   S    
C29   C33   S    
C24   C25   A    
C27   N1    A    
C20   C21   A    
Cu2   O4    S    
C6    H11   S    
C27   C28   A    
Cu2   O2    S    
C30   C34   S    
C14   C15   A    
C18   C19   A    
C18   H4    S    
C7    C32   T    
C3    C34   S    
Cu1   O3    S    
C13   C14   A    
C14   C19   A    
C30   H10   S    
C15   C16   A    
C4    C30   S    
C3    C4    S    
C22   H7    S    
C16   C17   A    
C31   H1    S    
Cu1   O7    S    
C3    C5    S    
Cu1   Cu2   S    
