data_mof_unit_56440.cif
_audit_creation_date              2012-12-11T15:24:32-0500
_audit_creation_method            fapswitch 2.2
_symmetry_space_group_name_H-M    P1
_symmetry_Int_Tables_number       1
_space_group_crystal_system       triclinic
_cell_length_a                    22.993686
_cell_length_b                    6.955601
_cell_length_c                    20.701221
_cell_angle_alpha                 89.986079
_cell_angle_beta                  93.226966
_cell_angle_gamma                 89.976869
_cell_volume                      3305.59769286

loop_
_atom_site_label
_atom_site_type_symbol
_atom_type_description
_atom_site_fract_x
_atom_site_fract_y
_atom_site_fract_z
_atom_type_partial_charge
O1    O     O_R   0.188030 0.379840 0.189340 -0.540844
O2    O     O_R   0.811970 0.620160 0.810660 -0.540845
O3    O     O_R   0.311970 0.879840 0.310660 -0.540425
O4    O     O_R   0.688030 0.120160 0.689340 -0.540424
O5    O     O_R   0.307090 0.708420 0.185790 -0.535578
O6    O     O_R   0.692910 0.291580 0.814210 -0.535578
O7    O     O_R   0.192910 0.208420 0.314210 -0.535077
O8    O     O_R   0.807090 0.791580 0.685790 -0.535077
C1    C     C_R   0.326743 0.540854 0.170706 0.725103
C2    C     C_R   0.673257 0.459146 0.829294 0.725103
C3    C     C_R   0.173261 0.040871 0.329298 0.727349
C4    C     C_R   0.826739 0.959129 0.670702 0.727348
O9    O     O_R   0.188180 0.709480 0.181650 -0.542676
O10   O     O_R   0.811820 0.290520 0.818350 -0.542676
O11   O     O_R   0.311820 0.209480 0.318350 -0.543897
O12   O     O_R   0.688180 0.790520 0.681650 -0.543897
O13   O     O_R   0.192210 0.880960 0.306500 -0.535511
O14   O     O_R   0.807790 0.119040 0.693500 -0.535511
O15   O     O_R   0.307790 0.380960 0.193500 -0.535612
O16   O     O_R   0.692210 0.619040 0.806500 -0.535612
C5    C     C_R   0.167736 0.540624 0.165352 0.709321
C6    C     C_R   0.832264 0.459376 0.834648 0.709321
C7    C     C_R   0.332411 0.040515 0.334474 0.709955
C8    C     C_R   0.667589 0.959485 0.665526 0.709955
O17   O     O_3   0.251460 0.546730 0.290970 -0.368285
O18   O     O_3   0.748540 0.453270 0.709030 -0.368285
O19   O     O_3   0.248540 0.046730 0.209030 -0.369100
O20   O     O_3   0.751460 0.953270 0.790970 -0.369100
V1    V     V_3+5 0.249730 0.821120 0.242400 1.420864
V2    V     V_3+5 0.750270 0.178880 0.757600 1.420864
V3    V     V_3+5 0.250270 0.321120 0.257600 1.420170
V4    V     V_3+5 0.749730 0.678880 0.742400 1.420170
C9    C     C_R   0.582024 0.134710 0.612903 -0.216289
C10   C     C_R   0.417976 0.865290 0.387097 -0.216289
C11   C     C_R   0.921371 0.316930 0.892079 -0.221988
C12   C     C_R   0.078629 0.683070 0.107921 -0.221988
C13   C     C_R   0.618084 0.970709 0.616301 -0.084080
C14   C     C_R   0.381916 0.029290 0.383699 -0.084080
C15   C     C_R   0.881414 0.469813 0.884302 -0.082112
C16   C     C_R   0.118585 0.530187 0.115698 -0.082113
C17   C     C_R   0.606385 0.818351 0.572704 -0.221009
C18   C     C_R   0.393615 0.181649 0.427296 -0.221010
C19   C     C_R   0.889226 0.634501 0.923427 -0.216620
C20   C     C_R   0.110774 0.365499 0.076573 -0.216620
C21   C     C_R   0.559842 0.829928 0.525828 0.089834
C22   C     C_R   0.440157 0.170071 0.474172 0.089834
C23   C     C_R   0.935872 0.646466 0.970125 0.088315
C24   C     C_R   0.064128 0.353534 0.029875 0.088316
C25   C     C_R   0.523646 0.994109 0.523280 0.053648
C26   C     C_R   0.476354 0.005891 0.476721 0.053648
C27   C     C_R   0.976208 0.493826 0.976891 0.053501
C28   C     C_R   0.023792 0.506174 0.023109 0.053500
C29   C     C_R   0.534660 0.146558 0.567201 0.088617
C30   C     C_R   0.465340 0.853442 0.432799 0.088617
C31   C     C_R   0.969089 0.328986 0.937460 0.090675
C32   C     C_R   0.030911 0.671013 0.062540 0.090675
C33   C     C_R   0.548870 0.680358 0.481307 -0.179988
C34   C     C_R   0.451130 0.319642 0.518693 -0.179989
C35   C     C_R   0.942940 0.808470 0.010228 -0.188399
C36   C     C_R   0.057059 0.191530 0.989772 -0.188401
C37   C     C_R   0.502019 0.691896 0.435267 -0.192351
C38   C     C_R   0.497981 0.308103 0.564733 -0.192351
C39   C     C_R   0.989954 0.820463 0.056072 -0.184568
C40   C     C_R   0.010046 0.179537 0.943928 -0.184570
H1    H     H_    0.590308 0.252424 0.646492 0.123812
H2    H     H_    0.409691 0.747575 0.353508 0.123812
H3    H     H_    0.915993 0.190132 0.861876 0.122152
H4    H     H_    0.084007 0.809868 0.138124 0.122152
H5    H     H_    0.633946 0.691745 0.574672 0.130868
H6    H     H_    0.366054 0.308255 0.425328 0.130868
H7    H     H_    0.858561 0.752657 0.918040 0.129906
H8    H     H_    0.141439 0.247343 0.081960 0.129906
H9    H     H_    0.576327 0.553612 0.482343 0.137090
H10   H     H_    0.423673 0.446388 0.517657 0.137089
H11   H     H_    0.912282 0.926754 0.005862 0.136145
H12   H     H_    0.087718 0.073246 0.994137 0.136144
H13   H     H_    0.494272 0.573686 0.401796 0.131778
H14   H     H_    0.505728 0.426313 0.598204 0.131778
H15   H     H_    0.994493 0.947544 0.086202 0.134812
H16   H     H_    0.005507 0.052456 0.913798 0.134811
C41   C     C_3   0.036380 0.137889 0.518639 0.565176
C42   C     C_3   0.963623 0.862113 0.481361 0.565191
C43   C     C_3   0.463625 0.638047 0.981385 0.565324
C44   C     C_3   0.536375 0.361950 0.018615 0.565317
C45   C     C_3   0.023637 0.959468 0.559971 -0.280818
C46   C     C_3   0.976365 0.040533 0.440031 -0.280804
C47   C     C_3   0.476360 0.459707 0.940025 -0.280932
C48   C     C_3   0.523640 0.540291 0.059976 -0.280936
H17   H     H_    0.042811 0.927683 0.609224 0.131162
H18   H     H_    0.957190 0.072315 0.390777 0.131174
H19   H     H_    0.457183 0.428120 0.890768 0.131087
H20   H     H_    0.542817 0.571878 0.109233 0.131083
H21   H     H_    0.052821 0.692062 0.497184 0.167606
H22   H     H_    0.947180 0.307934 0.502821 0.167598
H23   H     H_    0.447166 0.192226 0.002781 0.167569
H24   H     H_    0.552834 0.807773 0.997220 0.167572
C49   C     C_1   0.872263 0.968113 0.624985 -0.186324
C50   C     C_1   0.127737 0.031887 0.375015 -0.186324
C51   C     C_1   0.627732 0.468151 0.875008 -0.186470
C52   C     C_1   0.372268 0.531848 0.124992 -0.186470
C53   C     C_3   0.970931 0.169397 0.500900 -0.286383
C54   C     C_3   0.029071 0.830603 0.499102 -0.286378
C55   C     C_3   0.529075 0.669313 0.999126 -0.286417
C56   C     C_3   0.470925 0.330685 0.000874 -0.286421
C57   C     C_3   0.957945 0.988518 0.541390 0.047581
C58   C     C_3   0.042056 0.011481 0.458611 0.047577
C59   C     C_3   0.542052 0.488514 0.958607 0.047602
C60   C     C_3   0.457948 0.511484 0.041393 0.047602
C61   C     C_1   0.910722 0.976348 0.587153 0.016139
C62   C     C_1   0.089279 0.023651 0.412848 0.016141
C63   C     C_1   0.589273 0.476368 0.912841 0.015868
C64   C     C_1   0.410727 0.523630 0.087159 0.015868
O21   O     O_3   0.077188 0.283515 0.535322 -0.550530
C65   C     C_3   0.061166 0.376179 0.592167 -0.268196
H25   H     H_    0.061817 0.274904 0.633766 0.137578
H26   H     H_    0.017758 0.446113 0.585174 0.143686
H27   H     H_    0.093380 0.491051 0.604378 0.168984
O22   O     O_3   0.922813 0.716499 0.464669 -0.550522
C66   C     C_3   0.938861 0.623758 0.407849 -0.268186
H28   H     H_    0.982248 0.553713 0.414892 0.143714
H29   H     H_    0.938273 0.725004 0.366244 0.137555
H30   H     H_    0.906628 0.508969 0.395609 0.168988
O23   O     O_3   0.422821 0.783837 0.964722 -0.550541
C67   C     C_3   0.438847 0.876605 0.907891 -0.268463
H31   H     H_    0.438227 0.775425 0.866283 0.137484
H32   H     H_    0.482242 0.946485 0.914908 0.143734
H33   H     H_    0.406617 0.991524 0.895671 0.168973
O24   O     O_3   0.577178 0.216155 0.035275 -0.550543
C68   C     C_3   0.561162 0.123418 0.092116 -0.268462
H34   H     H_    0.517758 0.053581 0.085118 0.143723
H35   H     H_    0.561804 0.224611 0.133721 0.137491
H36   H     H_    0.593384 0.008471 0.104327 0.168972

loop_
_geom_bond_atom_site_label_1
_geom_bond_atom_site_label_2
_ccdc_geom_bond_type
C44   O24   S    
C43   C47   S    
C34   C38   A    
C50   C62   T    
C47   H19   S    
O19   V1    S    
O13   V1    S    
O3    C7    A    
C18   H6    S    
O15   V3    S    
O24   C68   S    
C10   H2    S    
C65   H25   S    
C9    H1    S    
O23   C67   S    
C39   H15   S    
O1    C5    A    
C21   C33   A    
C26   C30   A    
C43   C55   S    
C3    C50   S    
O9    V1    S    
C14   C18   A    
C58   C62   S    
O4    C8    A    
O1    V3    S    
C44   C59   S    
C43   C60   S    
O2    V4    S    
C18   C22   A    
C42   C57   S    
C33   H9    S    
O3    V1    S    
O22   C66   S    
C12   C16   A    
C1    O15   A    
C48   H20   S    
H22   C53   S    
C2    O16   A    
O2    C6    A    
C54   C58   S    
O14   V2    S    
C11   H3    S    
C16   C20   A    
C68   H36   S    
O11   C7    A    
O12   C8    A    
C22   C34   A    
O17   V1    S    
C40   H16   S    
C46   C58   S    
O10   V2    S    
C45   C57   S    
C24   C36   A    
O5    V1    S    
C66   H29   S    
C9    C29   A    
C53   C57   S    
O7    V3    S    
C11   C31   A    
C27   C28   A    
O8    V4    S    
O20   V4    S    
C46   H18   S    
C37   H13   S    
C45   H17   S    
O18   V4    S    
C41   C53   S    
C42   C46   S    
O19   V3    S    
C36   H12   S    
C9    C13   A    
C60   C64   S    
C65   H26   S    
C11   C15   A    
O5    C1    A    
C12   C32   A    
C49   C61   T    
C29   C38   A    
O7    C3    A    
C21   C25   A    
O8    C4    A    
C51   C63   T    
C31   C40   A    
C8    C13   S    
C42   C54   S    
C32   C39   A    
O9    C5    A    
C33   C37   A    
C4    C49   S    
C67   H33   S    
O6    V2    S    
C52   C64   T    
C1    C52   S    
C44   C56   S    
C42   O22   S    
C4    O14   A    
C35   H11   S    
C56   C60   S    
C48   C55   S    
H23   C56   S    
C34   H10   S    
C67   H32   S    
O21   C65   S    
O16   V4    S    
C66   H30   S    
C57   C61   S    
C41   C58   S    
C3    O13   A    
C19   H7    S    
C10   C14   A    
C59   C63   S    
O17   V3    S    
C38   H14   S    
C44   C48   S    
H21   C54   S    
O6    C2    A    
C23   C27   A    
C66   H28   S    
C12   H4    S    
O11   V3    S    
C30   C37   A    
O12   V4    S    
C7    C14   S    
C22   C26   A    
C35   C39   A    
C36   C40   A    
O10   C6    A    
O20   V2    S    
C68   H34   S    
C46   C53   S    
C10   C30   A    
C5    C16   S    
C25   C29   A    
C6    C15   S    
C20   H8    S    
C27   C31   A    
C13   C17   A    
C2    C51   S    
O4    V2    S    
C65   H27   S    
C23   C35   A    
C47   C56   S    
C48   C60   S    
C28   C32   A    
C24   C28   A    
C47   C59   S    
C15   C19   A    
C25   C26   A    
H24   C55   S    
C41   O21   S    
C17   C21   A    
C55   C59   S    
C43   O23   S    
C17   H5    S    
C19   C23   A    
C41   C45   S    
C45   C54   S    
C20   C24   A    
C67   H31   S    
C68   H35   S    
O18   V2    S    
