data_mof_unit_20328.cif
_audit_creation_date              2012-12-11T14:13:06-0500
_audit_creation_method            fapswitch 2.2
_symmetry_space_group_name_H-M    P1
_symmetry_Int_Tables_number       1
_space_group_crystal_system       triclinic
_cell_length_a                    11.61597
_cell_length_b                    18.601519
_cell_length_c                    9.950991
_cell_angle_alpha                 90.000247
_cell_angle_beta                  110.630013
_cell_angle_gamma                 89.999891
_cell_volume                      2012.27865064

loop_
_atom_site_label
_atom_site_type_symbol
_atom_type_description
_atom_site_fract_x
_atom_site_fract_y
_atom_site_fract_z
_atom_type_partial_charge
C1    C     C_R   0.074014 0.645912 0.140602 0.539340
C2    C     C_R   0.925987 0.354087 0.859398 0.539338
C3    C     C_R   0.925988 0.145913 0.859399 0.539304
C4    C     C_R   0.074012 0.854087 0.140601 0.539305
C5    C     C_R   0.393945 0.457193 0.473260 -0.109340
C6    C     C_R   0.606055 0.542807 0.526739 -0.109348
C7    C     C_R   0.606048 0.957184 0.526812 -0.109351
C8    C     C_R   0.393948 0.042818 0.473182 -0.109350
C9    C     C_2   0.406321 0.923910 0.919962 -0.080196
C10   C     C_2   0.593672 0.076096 0.080054 -0.080193
C11   C     C_2   0.593687 0.423907 0.080061 -0.080060
C12   C     C_2   0.406288 0.576075 0.919987 -0.080099
C13   C     C_2   0.492951 0.962777 0.014982 -0.180270
C14   C     C_2   0.507024 0.037233 0.985057 -0.180277
C15   C     C_2   0.506949 0.462744 0.985121 -0.180256
C16   C     C_2   0.492943 0.537218 0.014992 -0.180274
C17   C     C_2   0.012248 0.922881 0.114347 -0.112176
C18   C     C_2   0.987754 0.077119 0.885654 -0.112176
C19   C     C_2   0.987746 0.422883 0.885645 -0.112163
C20   C     C_2   0.012258 0.577116 0.114356 -0.112159
C21   C     C_2   0.021876 0.963462 0.008450 -0.148377
C22   C     C_2   0.978129 0.036539 0.991553 -0.148380
C23   C     C_2   0.978143 0.463458 0.991564 -0.148487
C24   C     C_2   0.021864 0.536540 0.008440 -0.148485
C25   C     C_R   0.468961 0.646751 0.443099 0.547276
C26   C     C_R   0.531040 0.353249 0.556900 0.547284
C27   C     C_R   0.531047 0.146750 0.556907 0.547239
C28   C     C_R   0.468953 0.853251 0.443092 0.547239
C29   C     C_R   0.376432 0.645520 0.962948 0.583259
C30   C     C_R   0.623564 0.354476 0.037059 0.583243
C31   C     C_R   0.623564 0.145523 0.037055 0.583179
C32   C     C_R   0.376434 0.854478 0.962948 0.583186
C33   C     C_R   0.507210 0.424912 0.487988 0.012750
C34   C     C_R   0.492790 0.575088 0.512012 0.012747
C35   C     C_R   0.492759 0.924916 0.511993 0.012731
C36   C     C_R   0.507238 0.075086 0.488002 0.012727
C37   C     C_R   0.284900 0.415969 0.433700 -0.068060
C38   C     C_R   0.715099 0.584031 0.566300 -0.068059
C39   C     C_R   0.715079 0.915952 0.566473 -0.068094
C40   C     C_R   0.284918 0.084050 0.433526 -0.068089
C41   C     C_R   0.176372 0.445419 0.438560 0.313912
C42   C     C_R   0.823629 0.554581 0.561447 0.313914
C43   C     C_R   0.823673 0.945402 0.561806 0.313956
C44   C     C_R   0.176328 0.054600 0.438200 0.313962
C45   C     C_R   0.176409 0.515083 0.488873 -0.063262
C46   C     C_R   0.823594 0.484916 0.511139 -0.063257
C47   C     C_R   0.823701 0.015063 0.511515 -0.063140
C48   C     C_R   0.176300 0.984939 0.488491 -0.063144
C49   C     C_R   0.282202 0.557369 0.523990 0.340834
C50   C     C_R   0.717801 0.442630 0.476018 0.340831
C51   C     C_R   0.717897 0.057347 0.476234 0.340877
C52   C     C_R   0.282103 0.942655 0.523767 0.340877
C53   C     C_R   0.389922 0.530977 0.503674 -0.011896
C54   C     C_R   0.610079 0.469023 0.496327 -0.011903
C55   C     C_R   0.610116 0.030966 0.496421 -0.011954
C56   C     C_R   0.389881 0.969035 0.503574 -0.011947
Cr1   Cr    Cr6+3 0.187610 0.750000 0.979860 1.138816
Cr2   Cr    Cr6+3 0.812390 0.250000 0.020140 1.138812
Cr3   Cr    Cr6+3 0.245810 0.750000 0.341640 1.190939
Cr4   Cr    Cr6+3 0.754190 0.250000 0.658360 1.190946
Cr5   Cr    Cr6+3 0.485760 0.750000 0.219910 1.038546
Cr6   Cr    Cr6+3 0.514240 0.250000 0.780090 1.038543
H1    H     H_    0.094428 0.536408 0.502055 0.199853
H2    H     H_    0.905578 0.463591 0.497962 0.199853
H3    H     H_    0.905743 0.036387 0.498474 0.199572
H4    H     H_    0.094263 0.963616 0.501539 0.199568
H5    H     H_    0.283932 0.360619 0.399373 0.165888
H6    H     H_    0.716067 0.639381 0.600625 0.165892
H7    H     H_    0.716005 0.860603 0.600782 0.165855
H8    H     H_    0.283994 0.139399 0.399220 0.165854
H9    H     H_    0.450296 0.059182 0.881404 0.168091
H10   H     H_    0.549672 0.940830 0.118646 0.168088
H11   H     H_    0.549741 0.559189 0.118604 0.168070
H12   H     H_    0.450106 0.440763 0.881537 0.168064
H13   H     H_    0.654153 0.052048 0.179080 0.157414
H14   H     H_    0.345847 0.947955 0.820921 0.157414
H15   H     H_    0.345754 0.552007 0.821002 0.157317
H16   H     H_    0.654264 0.447987 0.179008 0.157316
H17   H     H_    0.932812 0.056283 0.063242 0.193478
H18   H     H_    0.067193 0.943718 0.936761 0.193483
H19   H     H_    0.067150 0.556292 0.936721 0.193368
H20   H     H_    0.932859 0.443706 0.063285 0.193367
H21   H     H_    0.027572 0.056139 0.809743 0.128070
H22   H     H_    0.972429 0.943862 0.190258 0.128066
H23   H     H_    0.972473 0.556127 0.190295 0.128113
H24   H     H_    0.027529 0.443872 0.809706 0.128111
O1    O     O_R   0.267710 0.668200 0.902110 -0.450583
O2    O     O_R   0.732290 0.331800 0.097890 -0.450592
O3    O     O_R   0.732290 0.168200 0.097890 -0.450537
O4    O     O_R   0.267710 0.831800 0.902110 -0.450534
O5    O     O_R   0.099480 0.674460 0.038850 -0.498295
O6    O     O_R   0.900520 0.325540 0.961150 -0.498296
O7    O     O_R   0.900520 0.174460 0.961150 -0.498223
O8    O     O_R   0.099480 0.825540 0.038850 -0.498220
O9    O     O_R   0.116720 0.669210 0.267660 -0.468909
O10   O     O_R   0.883280 0.330790 0.732340 -0.468905
O11   O     O_R   0.883280 0.169210 0.732340 -0.468910
O12   O     O_R   0.116720 0.830790 0.267660 -0.468915
O13   O     O_R   0.366710 0.675440 0.427590 -0.419942
O14   O     O_R   0.633290 0.324560 0.572410 -0.419940
O15   O     O_R   0.633290 0.175440 0.572410 -0.419941
O16   O     O_R   0.366710 0.824560 0.427590 -0.419940
O17   O     O_R   0.534870 0.669390 0.371760 -0.529277
O18   O     O_R   0.465130 0.330610 0.628240 -0.529267
O19   O     O_R   0.465130 0.169390 0.628240 -0.529260
O20   O     O_R   0.534870 0.830610 0.371760 -0.529263
O21   O     O_R   0.453080 0.674480 0.075160 -0.514035
O22   O     O_R   0.546920 0.325520 0.924840 -0.514043
O23   O     O_R   0.546920 0.174480 0.924840 -0.514036
O24   O     O_R   0.453080 0.825520 0.075160 -0.514032
O25   O     O_3   0.306390 0.750000 0.180470 -0.302833
O26   O     O_3   0.693610 0.250000 0.819530 -0.302826
F1    F     F_    0.072665 0.405027 0.401242 -0.627560
F2    F     F_    0.927336 0.594972 0.598769 -0.627560
F3    F     F_    0.927393 0.905020 0.599318 -0.627473
F4    F     F_    0.072613 0.094983 0.400704 -0.627475
F5    F     F_    0.281360 0.620930 0.590699 -0.600584
F6    F     F_    0.718647 0.379069 0.409312 -0.600582
F7    F     F_    0.718808 0.120893 0.409513 -0.600531
F8    F     F_    0.281199 0.879110 0.590492 -0.600537

loop_
_geom_bond_atom_site_label_1
_geom_bond_atom_site_label_2
_ccdc_geom_bond_type
C44   C48   A    
C23   H20   S    
C4    O12   A    
C12   C29   S    
Cr3   O13   S    
C14   H9    S    
C7    C55   A    
C19   H24   S    
C6    C34   A    
C8    C56   A    
Cr6   O19   S    
C50   C54   A    
C40   H8    S    
Cr2   O26   S    
C5    C53   A    
Cr5   O17   S    
Cr2   O7    S    
C22   H17   S    
C38   C42   A    
C5    C37   A    
C42   C46   A    
Cr6   O22   S    
C27   O19   A    
C15   C16   S    
C3    C18   S    
C8    C36   A    
C9    C13   D    
C9    C32   S    
C43   F3    S    
C11   C15   D    
C10   C31   S    
C42   F2    S    
C49   F5    S    
C20   C24   D    
C11   C30   S    
C28   O20   A    
C31   O3    A    
C5    C33   A    
Cr3   O25   S    
C23   C24   S    
C6    C38   A    
C9    H14   S    
C40   C44   A    
C25   C34   S    
C26   O18   A    
C35   C56   A    
C1    O5    A    
C50   F6    S    
C21   C22   S    
C12   H15   S    
Cr3   O9    S    
C6    C54   A    
Cr5   O24   S    
C25   O13   A    
Cr6   O18   S    
C39   H7    S    
C32   O4    A    
Cr1   O4    S    
C16   H11   S    
C12   C16   D    
C28   C35   S    
Cr4   O11   S    
C10   C14   D    
C25   O17   A    
C39   C43   A    
C27   O15   A    
C17   C21   D    
Cr1   O1    S    
C46   H2    S    
C19   C23   D    
C24   H19   S    
Cr4   O26   S    
C11   H16   S    
C10   H13   S    
C3    O11   A    
C26   C33   S    
C51   F7    S    
C45   C49   A    
C1    O9    A    
C20   H23   S    
C18   H21   S    
C31   O23   A    
C3    O7    A    
C2    O6    A    
Cr5   O20   S    
C32   O24   A    
C4    O8    A    
C4    C17   S    
C52   F8    S    
C38   H6    S    
Cr1   O8    S    
C30   O2    A    
Cr4   O15   S    
Cr5   O25   S    
Cr4   O10   S    
C33   C54   A    
C1    C20   S    
C7    C39   A    
Cr1   O5    S    
C30   O22   A    
C2    C19   S    
C18   C22   D    
Cr3   O16   S    
C7    C35   A    
C41   F1    S    
Cr4   O14   S    
Cr2   O2    S    
C47   C51   A    
C13   H10   S    
C27   C36   S    
C46   C50   A    
C17   H22   S    
C2    O10   A    
C36   C55   A    
Cr1   O25   S    
Cr6   O23   S    
Cr2   O6    S    
C49   C53   A    
C37   H5    S    
C21   H18   S    
C45   H1    S    
C51   C55   A    
C37   C41   A    
Cr5   O21   S    
Cr2   O3    S    
C29   O1    A    
C28   O16   A    
C48   C52   A    
C15   H12   S    
Cr6   O26   S    
C44   F4    S    
C34   C53   A    
Cr3   O12   S    
C41   C45   A    
C29   O21   A    
C8    C40   A    
C48   H4    S    
C13   C14   S    
C43   C47   A    
C47   H3    S    
C52   C56   A    
C26   O14   A    
