data_mof_unit_17900.cif
_audit_creation_date              2012-12-10T19:00:17-0500
_audit_creation_method            fapswitch 2.2
_symmetry_space_group_name_H-M    P1
_symmetry_Int_Tables_number       1
_space_group_crystal_system       triclinic
_cell_length_a                    9.553541
_cell_length_b                    10.838169
_cell_length_c                    13.435656
_cell_angle_alpha                 90.469571
_cell_angle_beta                  72.976404
_cell_angle_gamma                 90.552578
_cell_volume                      1330.1288336

loop_
_atom_site_label
_atom_site_type_symbol
_atom_type_description
_atom_site_fract_x
_atom_site_fract_y
_atom_site_fract_z
_atom_type_partial_charge
C1    C     C_R   0.499589 0.737554 0.502682 0.797040
C2    C     C_R   0.372839 0.506419 0.814737 -0.111094
C3    C     C_R   0.367241 0.934477 0.524280 0.132955
C4    C     C_R   0.421586 0.504969 0.700054 0.785007
C5    C     C_R   0.496428 0.870420 0.514395 -0.098281
C6    C     C_R   0.621245 0.936766 0.519577 -0.214738
C7    C     C_R   0.620659 0.065493 0.518856 -0.208200
C8    C     C_R   0.495297 0.128865 0.512894 -0.100967
C9    C     C_R   0.366409 0.061514 0.523584 0.133781
C10   C     C_3   0.260445 0.063533 0.461040 -0.491148
C11   C     C_3   0.261222 0.923738 0.462327 -0.445344
C12   C     C_R   0.431397 0.515920 0.980110 0.117331
C13   C     C_R   0.961729 0.468714 0.412201 0.259364
C14   C     C_R   0.892601 0.543426 0.582780 -0.078458
C15   C     C_R   0.040990 0.543415 0.582931 -0.084810
C16   C     C_R   0.498857 0.262169 0.501992 0.804487
C17   C     C_R   0.109167 0.468632 0.412146 0.270112
C18   C     C_3   0.134416 0.347661 0.356553 -0.517613
C19   C     C_3   0.976255 0.348907 0.355475 -0.493019
C20   C     C_R   0.578119 0.502717 0.300168 0.834629
C21   C     C_R   0.777858 0.620679 0.033670 0.594700
C22   C     C_R   0.621402 0.522085 0.187563 -0.140572
C23   C     C_R   0.465317 0.547965 0.873659 0.101583
C24   C     C_R   0.235661 0.454683 0.865964 -0.146524
C25   C     C_R   0.193819 0.437731 0.972880 -0.100743
C26   C     C_R   0.291064 0.465271 0.029403 -0.182728
C27   C     C_R   0.538562 0.537195 0.032988 0.010060
C28   C     C_R   0.670419 0.601134 0.982318 0.041291
C29   C     C_R   0.691228 0.647108 0.882262 -0.198502
C30   C     C_R   0.588779 0.622786 0.829553 -0.235989
C31   C     C_R   0.519347 0.495284 0.134463 -0.252292
C32   C     C_R   0.752813 0.581806 0.136132 -0.279008
Cu1   Cu    Cu3+1 0.359330 0.500020 0.500010 0.945641
Cu2   Cu    Cu3+1 0.640670 0.499980 0.499990 0.941156
F1    F     F_    0.904999 0.680652 0.985955 -0.680856
H1    H     H_    0.833102 0.603084 0.176479 0.178491
H2    H     H_    0.157031 0.274378 0.406019 0.214233
H3    H     H_    0.964289 0.359407 0.276133 0.194436
H4    H     H_    0.787134 0.701856 0.844135 0.190319
H5    H     H_    0.908732 0.274111 0.402747 0.213488
H6    H     H_    0.424756 0.442123 0.174922 0.150116
H7    H     H_    0.161440 0.424714 0.823013 0.155344
H8    H     H_    0.251374 0.449033 0.111828 0.120603
H9    H     H_    0.086918 0.399300 0.011848 0.143263
H10   H     H_    0.605372 0.665756 0.754677 0.155353
H11   H     H_    0.721358 0.889960 0.518469 0.166068
H12   H     H_    0.720487 0.114487 0.517579 0.162543
H13   H     H_    0.153085 0.102198 0.506175 0.198429
H14   H     H_    0.309340 0.102159 0.381895 0.199729
H15   H     H_    0.155013 0.882718 0.508139 0.199366
H16   H     H_    0.310136 0.881744 0.384162 0.205004
H17   H     H_    0.811045 0.577173 0.650378 0.145613
H18   H     H_    0.068710 0.577084 0.650782 0.153700
H19   H     H_    0.213362 0.353746 0.277854 0.183039
N1    N     N_R   0.852320 0.499070 0.499340 -0.187352
N2    N     N_R   0.148230 0.499110 0.499340 -0.188487
O1    O     O_R   0.381190 0.680360 0.500000 -0.577456
O2    O     O_R   0.618780 0.680320 0.499990 -0.590029
O3    O     O_R   0.323230 0.500000 0.650990 -0.585577
O4    O     O_R   0.560820 0.499960 0.650980 -0.584772
O5    O     O_R   0.381220 0.319680 0.500010 -0.576379
O6    O     O_R   0.618810 0.319640 0.500000 -0.582376
O7    O     O_R   0.439180 0.500040 0.349020 -0.580972
O8    O     O_R   0.676770 0.500000 0.349010 -0.583988

loop_
_geom_bond_atom_site_label_1
_geom_bond_atom_site_label_2
_ccdc_geom_bond_type
C17   C18   S    
C20   O8    A    
C2    C4    S    
C6    C7    A    
C21   F1    S    
C19   H3    S    
C1    O1    A    
C24   H7    S    
C9    C10   S    
C30   H10   S    
C12   C23   A    
C6    H11   S    
C13   C17   A    
Cu1   O7    S    
C15   N2    A    
C29   H4    S    
C20   O7    A    
Cu2   O8    S    
C14   N1    A    
C3    C5    A    
Cu2   N1    S    
Cu1   O3    S    
C11   H15   S    
C1    O2    A    
Cu2   O4    S    
C17   N2    A    
C4    O4    A    
C29   C30   A    
C22   C32   A    
Cu1   N2    S    
C3    C9    A    
C15   H18   S    
C4    O3    A    
Cu1   O5    S    
C28   C29   A    
C21   C28   A    
C20   C22   S    
C26   H8    S    
Cu1   Cu2   S    
C10   C11   S    
C10   H13   S    
C5    C6    A    
C21   C32   A    
C1    C5    S    
C11   H16   S    
C22   C31   A    
C13   C19   S    
C12   C27   A    
C27   C31   A    
C23   C30   A    
C32   H1    S    
C7    C8    A    
C3    C11   S    
C24   C25   A    
C25   H9    S    
C2    C23   A    
C8    C16   S    
C18   C19   S    
C19   H5    S    
C27   C28   A    
Cu2   O2    S    
C18   H19   S    
C14   C15   A    
C18   H2    S    
Cu1   O1    S    
C2    C24   A    
C31   H6    S    
C16   O5    A    
C25   C26   A    
C10   H14   S    
C16   O6    A    
Cu2   O6    S    
C14   H17   S    
C12   C26   A    
C8    C9    A    
C13   N1    A    
C7    H12   S    
