data_mof_unit_34214.cif
_audit_creation_date              2012-12-10T20:38:21-0500
_audit_creation_method            fapswitch 2.2
_symmetry_space_group_name_H-M    P1
_symmetry_Int_Tables_number       1
_space_group_crystal_system       triclinic
_cell_length_a                    9.857022
_cell_length_b                    10.647955
_cell_length_c                    16.647273
_cell_angle_alpha                 89.814309
_cell_angle_beta                  84.732373
_cell_angle_gamma                 89.989901
_cell_volume                      1739.86168282

loop_
_atom_site_label
_atom_site_type_symbol
_atom_type_description
_atom_site_fract_x
_atom_site_fract_y
_atom_site_fract_z
_atom_type_partial_charge
C1    C     C_R   0.500244 0.739462 0.499503 0.898508
C2    C     C_R   0.347297 0.458384 0.790688 0.177520
C3    C     C_R   0.425168 0.421818 0.139534 -0.152537
C4    C     C_R   0.416039 0.464462 0.218379 -0.217799
C5    C     C_R   0.659604 0.434649 0.221504 -0.196264
C6    C     C_R   0.668657 0.391661 0.142487 -0.184411
C7    C     C_R   0.551318 0.382613 0.101591 0.205312
C8    C     C_2   0.461069 0.310312 0.977018 -0.234758
C9    C     C_2   0.566301 0.349270 0.016065 -0.231325
C10   C     C_R   0.532774 0.469720 0.260220 -0.038861
C11   C     C_R   0.456172 0.937410 0.436589 0.108868
C12   C     C_R   0.480559 0.495136 0.653978 0.834958
C13   C     C_R   0.503195 0.870869 0.500003 -0.127120
C14   C     C_R   0.567353 0.931506 0.560338 -0.253581
C15   C     C_R   0.566259 0.061882 0.563910 0.147068
C16   C     C_R   0.501781 0.128115 0.504070 -0.141211
C17   C     C_R   0.455276 0.065507 0.438750 0.093954
C18   C     C_3   0.321062 0.072985 0.403825 -0.478436
C19   C     C_3   0.323004 0.930580 0.400836 -0.482110
C20   C     C_R   0.927571 0.609856 0.507076 0.233075
C21   C     C_R   0.930483 0.393338 0.484595 -0.146061
C22   C     C_R   0.074252 0.393173 0.485053 -0.145505
C23   C     C_R   0.499836 0.260318 0.502105 0.879999
C24   C     C_R   0.070120 0.610013 0.506776 0.221447
C25   C     C_3   0.064680 0.700663 0.575125 -0.524377
C26   C     C_3   0.910543 0.699934 0.575495 -0.517199
C27   C     C_R   0.519478 0.496660 0.346356 0.860339
C28   C     C_R   0.470135 0.454345 0.738857 -0.088578
C29   C     C_R   0.584549 0.392547 0.765031 -0.266151
C30   C     C_R   0.578377 0.334246 0.839454 -0.166403
C31   C     C_R   0.459363 0.340990 0.891485 0.167471
C32   C     C_R   0.343692 0.399921 0.866395 -0.199902
H1    H     H_    0.679585 0.385979 0.727068 0.177582
H2    H     H_    0.767239 0.365267 0.113230 0.124106
H3    H     H_    0.610246 0.877322 0.607194 0.152285
H4    H     H_    0.238572 0.110397 0.447134 0.201846
H5    H     H_    0.329815 0.117755 0.343149 0.203763
H6    H     H_    0.241235 0.886284 0.441766 0.208039
H7    H     H_    0.334228 0.892856 0.338400 0.199498
H8    H     H_    0.878490 0.307139 0.472517 0.152831
H9    H     H_    0.129665 0.306618 0.474176 0.147886
H10   H     H_    0.101237 0.659433 0.630333 0.220567
H11   H     H_    0.317248 0.491902 0.246797 0.156008
H12   H     H_    0.110884 0.792744 0.556969 0.198929
H13   H     H_    0.857587 0.657456 0.630908 0.212968
H14   H     H_    0.868444 0.791436 0.557182 0.205901
H15   H     H_    0.751220 0.437423 0.252739 0.156557
H16   H     H_    0.661720 0.376464 0.982673 0.149965
H17   H     H_    0.252594 0.406998 0.907950 0.124246
H18   H     H_    0.333755 0.423049 0.108257 0.122149
H19   H     H_    0.365488 0.283405 0.010210 0.144750
H20   H     H_    0.668392 0.287322 0.857371 0.135820
N1    N     N_R   0.857140 0.500860 0.500530 -0.105228
N2    N     N_R   0.142780 0.500820 0.500530 -0.104278
O1    O     O_R   0.385310 0.683210 0.499990 -0.617516
O2    O     O_R   0.614650 0.683240 0.500000 -0.614696
O3    O     O_R   0.371780 0.500000 0.615800 -0.603978
O4    O     O_R   0.601120 0.500040 0.615800 -0.618039
O5    O     O_R   0.385350 0.316760 0.500000 -0.624948
O6    O     O_R   0.614690 0.316790 0.500010 -0.617894
O7    O     O_R   0.398880 0.499960 0.384200 -0.614119
O8    O     O_R   0.628220 0.500000 0.384200 -0.615467
Zn1   Zn    Zn3+2 0.346870 0.499980 0.499990 0.934515
Zn2   Zn    Zn3+2 0.653130 0.500020 0.500010 0.938314
C33   C     C_3   0.621294 0.124412 0.635780 -0.389764
C34   C     C_3   0.776168 0.114020 0.632087 -0.850451
H21   H     H_    0.823558 0.154285 0.574737 0.260519
H22   H     H_    0.813737 0.166527 0.683152 0.241383
H23   H     H_    0.807641 0.014278 0.636536 0.249243
H24   H     H_    0.592378 0.224603 0.639955 0.211841
H25   H     H_    0.575655 0.079344 0.692250 0.200270
C35   C     C_3   0.221750 0.529802 0.771146 -0.414680
C36   C     C_3   0.115045 0.441462 0.741334 -0.835683
H26   H     H_    0.155550 0.393214 0.685171 0.280953
H27   H     H_    0.084312 0.369700 0.788067 0.243891
H28   H     H_    0.023166 0.495798 0.728767 0.237081
H29   H     H_    0.176308 0.578491 0.826191 0.192048
H30   H     H_    0.247773 0.605693 0.726769 0.205056

loop_
_geom_bond_atom_site_label_1
_geom_bond_atom_site_label_2
_ccdc_geom_bond_type
C10   C27   S    
C34   H22   S    
C36   H26   S    
C22   N2    A    
C23   O5    A    
C5    H15   S    
C11   C19   S    
C29   C30   A    
C12   C28   S    
C28   C29   A    
C27   O8    A    
C18   H5    S    
C3    C7    A    
C30   C31   A    
N1    Zn2   S    
C22   H9    S    
C16   C17   A    
N2    Zn1   S    
C24   N2    A    
C15   C16   A    
C15   C33   S    
C29   H1    S    
C2    C32   A    
C18   C19   S    
O7    Zn1   S    
C35   H30   S    
C27   O7    A    
C26   H13   S    
C20   C24   A    
C8    C9    D    
O1    Zn1   S    
O8    Zn2   S    
O2    Zn2   S    
C12   O4    A    
C34   H21   S    
C13   C14   A    
C36   H27   S    
C2    C35   S    
C25   H12   S    
C3    H18   S    
O3    Zn1   S    
O4    Zn2   S    
C23   O6    A    
C24   C25   S    
C14   H3    S    
C20   N1    A    
C25   C26   S    
C33   H25   S    
C6    H2    S    
C35   H29   S    
C19   H6    S    
C31   C32   A    
C17   C18   S    
C8    H19   S    
C19   H7    S    
C12   O3    A    
C16   C23   S    
C36   H28   S    
C1    C13   S    
C4    C10   A    
C3    C4    A    
C7    C9    S    
C30   H20   S    
C11   C17   A    
C8    C31   S    
C1    O2    A    
C35   C36   S    
C25   H10   S    
C6    C7    A    
C4    H11   S    
O5    Zn1   S    
O6    Zn2   S    
C1    O1    A    
C5    C10   A    
C21   N1    A    
C11   C13   A    
C5    C6    A    
C21   H8    S    
C20   C26   S    
C32   H17   S    
C26   H14   S    
C34   H23   S    
C9    H16   S    
C33   C34   S    
C14   C15   A    
C2    C28   A    
C21   C22   A    
C18   H4    S    
C33   H24   S    
