data_mof_unit_23103.cif
_audit_creation_date              2012-12-10T17:42:12-0500
_audit_creation_method            fapswitch 2.2
_symmetry_space_group_name_H-M    P1
_symmetry_Int_Tables_number       1
_space_group_crystal_system       triclinic
_cell_length_a                    14.999362
_cell_length_b                    13.816704
_cell_length_c                    10.822395
_cell_angle_alpha                 90.617233
_cell_angle_beta                  86.779233
_cell_angle_gamma                 89.903991
_cell_volume                      2239.17358225

loop_
_atom_site_label
_atom_site_type_symbol
_atom_type_description
_atom_site_fract_x
_atom_site_fract_y
_atom_site_fract_z
_atom_type_partial_charge
C1    C     C_R   0.328905 0.500357 0.498848 0.831855
C2    C     C_3   0.598414 0.535370 0.925467 -0.341650
C3    C     C_R   0.816895 0.551530 0.404945 -0.233174
C4    C     C_R   0.767637 0.500745 0.496783 -0.040556
C5    C     C_R   0.810314 0.452501 0.589545 -0.232731
C6    C     C_R   0.902873 0.454902 0.592310 0.102258
C7    C     C_R   0.953161 0.503914 0.498298 0.070641
C8    C     C_R   0.910064 0.552073 0.403801 0.104183
C9    C     C_R   0.945858 0.409541 0.687739 -0.174717
C10   C     C_R   0.038567 0.412423 0.690083 -0.163161
C11   C     C_R   0.089150 0.459150 0.595783 0.096106
C12   C     C_R   0.501242 0.499280 0.260491 0.766932
C13   C     C_R   0.046564 0.504694 0.498966 0.056213
C14   C     C_R   0.097361 0.551108 0.403133 0.112291
C15   C     C_R   0.054078 0.598401 0.309293 -0.171847
C16   C     C_R   0.960893 0.599501 0.310140 -0.191461
C17   C     C_R   0.181771 0.460717 0.596329 -0.148421
C18   C     C_R   0.232280 0.502228 0.498541 -0.025997
C19   C     C_R   0.190514 0.548726 0.402979 -0.182422
C20   C     C_R   0.423092 0.798808 0.524657 0.556039
C21   C     C_R   0.423259 0.201579 0.523359 0.576900
C22   C     C_R   0.578207 0.791474 0.466646 0.002499
C23   C     C_R   0.578511 0.207695 0.467906 -0.023503
C24   C     C_R   0.583701 0.895113 0.463527 -0.078073
C25   C     C_R   0.583611 0.103929 0.460835 -0.073204
C26   C     C_R   0.671112 0.500066 0.497993 0.794243
C27   C     C_R   0.503901 0.948151 0.475856 0.060886
C28   C     C_R   0.503900 0.051368 0.474267 0.068446
C29   C     C_R   0.422790 0.898225 0.494091 -0.090302
C30   C     C_R   0.422922 0.101923 0.491920 -0.089634
C31   C     C_R   0.665282 0.947078 0.444045 -0.055491
C32   C     C_R   0.665160 0.051196 0.442073 -0.054604
C33   C     C_R   0.342861 0.050229 0.483972 -0.093827
C34   C     C_R   0.342765 0.950124 0.485272 -0.092789
C35   C     C_R   0.503987 0.500423 0.740627 0.824652
C36   C     C_3   0.420635 0.552065 0.080239 -0.428187
C37   C     C_3   0.496602 0.393116 0.074506 -0.425837
C38   C     C_3   0.433441 0.572365 0.940735 0.287455
C39   C     C_3   0.491160 0.393628 0.932823 0.276176
C40   C     C_3   0.593055 0.540037 0.069206 -0.347107
C41   C     C_3   0.502935 0.497328 0.123798 0.025954
C42   C     C_3   0.507570 0.500676 0.880131 -0.150866
Cu1   Cu    Cu3+1 0.499990 0.597420 0.500010 1.046357
Cu2   Cu    Cu3+1 0.499990 0.402580 0.500010 1.046653
H1    H     H_    0.407144 0.619145 0.135814 0.240690
H2    H     H_    0.556020 0.353628 0.104305 0.243192
H3    H     H_    0.070790 0.377169 0.764706 0.161863
H4    H     H_    0.214400 0.429888 0.673046 0.162258
H5    H     H_    0.230616 0.582654 0.329020 0.137605
H6    H     H_    0.092265 0.634622 0.235518 0.163134
H7    H     H_    0.928605 0.636702 0.237117 0.165258
H8    H     H_    0.637123 0.748978 0.443815 0.175761
H9    H     H_    0.638336 0.249506 0.451894 0.181888
H10   H     H_    0.279152 0.086665 0.481315 0.207027
H11   H     H_    0.278923 0.914228 0.482943 0.207502
H12   H     H_    0.359496 0.507441 0.097697 0.108227
H13   H     H_    0.436829 0.355606 0.116800 0.168970
H14   H     H_    0.369173 0.556097 0.898545 0.066940
H15   H     H_    0.421189 0.374964 0.914708 0.099685
H16   H     H_    0.602055 0.615354 0.102157 0.239187
H17   H     H_    0.649894 0.498206 0.103768 0.150155
H18   H     H_    0.616932 0.607275 0.887320 0.228418
H19   H     H_    0.652944 0.485507 0.893095 0.216509
H20   H     H_    0.782641 0.588917 0.333725 0.135577
H21   H     H_    0.771381 0.415362 0.661234 0.179665
H22   H     H_    0.907756 0.372213 0.760668 0.168961
N1    N     N_R   0.499930 0.743810 0.499950 -0.234296
N2    N     N_R   0.499930 0.256190 0.499950 -0.230181
O1    O     O_R   0.370250 0.582280 0.500040 -0.529619
O2    O     O_R   0.370250 0.417720 0.500040 -0.517651
O3    O     O_R   0.499970 0.582270 0.317700 -0.591205
O4    O     O_R   0.499970 0.417730 0.317700 -0.600037
O5    O     O_R   0.629730 0.582260 0.499980 -0.595742
O6    O     O_R   0.629730 0.417740 0.499980 -0.592413
O7    O     O_R   0.500000 0.582270 0.682320 -0.494389
O8    O     O_R   0.500000 0.417730 0.682320 -0.474571
S1    S     S_3+6 0.326390 0.758418 0.615650 0.068547
O9    O     O_2   0.294490 0.839407 0.701107 -0.223129
O10   O     O_2   0.253630 0.735866 0.529826 -0.345398
O11   O     O_3   0.342380 0.662200 0.704570 -0.472786
H23   H     H_    0.281734 0.642176 0.735029 0.349549
S2    S     S_3+6 0.329262 0.241461 0.620425 0.034245
O12   O     O_2   0.254422 0.266550 0.539793 -0.329794
O13   O     O_2   0.298850 0.159301 0.702635 -0.265383
O14   O     O_3   0.350135 0.335203 0.713623 -0.531291
H24   H     H_    0.306242 0.329453 0.785037 0.338726
C43   C     C_2   0.750954 0.893231 0.425794 0.864688
O15   O     O_2   0.800577 0.908495 0.334582 -0.553828
O16   O     O_R   0.775147 0.825908 0.513560 -0.738456
H25   H     H_    0.834511 0.793460 0.490305 0.345980
C44   C     C_2   0.750854 0.104364 0.425182 0.868532
O17   O     O_2   0.810752 0.089632 0.494822 -0.545968
O18   O     O_R   0.763183 0.170452 0.328833 -0.743769
H26   H     H_    0.824056 0.202349 0.327193 0.346417
S3    S     S_3+6 0.452295 0.703577 0.926951 0.046361
O19   O     O_2   0.502903 0.733038 0.809863 -0.219430
O20   O     O_2   0.362394 0.752149 0.932979 -0.222288
O21   O     O_3   0.508295 0.746741 0.046072 -0.563700
H27   H     H_    0.504405 0.818094 0.040088 0.390651
S4    S     S_3+6 0.559930 0.294091 0.865760 0.038092
O22   O     O_2   0.596926 0.231369 0.963485 -0.255153
O23   O     O_2   0.502315 0.231267 0.789170 -0.224914
O24   O     O_3   0.645995 0.334491 0.774916 -0.575265
H28   H     H_    0.666378 0.277680 0.724226 0.373216

loop_
_geom_bond_atom_site_label_1
_geom_bond_atom_site_label_2
_ccdc_geom_bond_type
Cu1   O5    S    
C43   O15   D    
O18   H26   S    
C40   H16   S    
C27   C29   A    
C20   N1    A    
S3    O19   D    
C17   H4    S    
C6    C9    A    
S3    O21   S    
C7    C8    A    
S1    O9    D    
C25   C28   A    
C35   O7    A    
C1    C18   S    
C20   S1    S    
C38   C42   S    
O14   H24   S    
C5    C6    A    
C32   C44   S    
C15   C16   A    
C26   O5    A    
C18   C19   A    
C8    C16   A    
C15   H6    S    
Cu2   O8    S    
C35   C42   S    
C9    H22   S    
C38   H14   S    
C38   S3    S    
C24   C27   A    
Cu2   O2    S    
C9    C10   A    
C25   C32   A    
C12   O4    A    
C34   H11   S    
Cu1   O1    S    
C13   C14   A    
C36   C41   S    
C17   C18   A    
C39   C42   S    
C20   C29   A    
S1    O10   D    
Cu1   O7    S    
C35   O8    A    
C31   C43   S    
C5    H21   S    
C3    C8    A    
C44   O17   D    
C4    C5    A    
C3    H20   S    
C29   C34   A    
S4    O24   S    
C1    O1    A    
C40   H17   S    
C23   N2    A    
Cu1   Cu2   S    
C12   C41   S    
C36   H12   S    
C44   O18   S    
C19   H5    S    
C31   C32   A    
C39   H15   S    
S4    O23   D    
C33   C34   A    
C36   H1    S    
Cu2   O6    S    
C40   C41   S    
C12   O3    A    
S2    O12   D    
S2    O13   D    
C43   O16   S    
C21   N2    A    
C22   C24   A    
Cu2   N2    S    
C3    C4    A    
O24   H28   S    
C2    H19   S    
C22   H8    S    
S1    O11   S    
C33   H10   S    
C11   C17   A    
C16   H7    S    
Cu1   O3    S    
C30   C33   A    
C14   C19   A    
O11   H23   S    
C4    C26   S    
S3    O20   D    
C6    C7    A    
S2    O14   S    
C21   C30   A    
C1    O2    A    
C36   C38   S    
O16   H25   S    
C24   C31   A    
C37   C39   S    
C11   C13   A    
C39   S4    S    
C2    C42   S    
C23   H9    S    
C28   C30   A    
S4    O22   D    
C26   O6    A    
Cu2   O4    S    
C23   C25   A    
C37   C41   S    
C22   N1    A    
C10   C11   A    
C2    C40   S    
C7    C13   A    
C21   S2    S    
Cu1   N1    S    
O21   H27   S    
C10   H3    S    
C14   C15   A    
C37   H2    S    
C37   H13   S    
C2    H18   S    
C27   C28   A    
