data_mof_unit_61179.cif
_audit_creation_date              2013-03-05T16:21:19-0500
_audit_creation_method            fapswitch 2.2
_symmetry_space_group_name_H-M    P1
_symmetry_Int_Tables_number       1
_space_group_crystal_system       triclinic
_cell_length_a                    15.750606
_cell_length_b                    14.958567
_cell_length_c                    23.439725
_cell_angle_alpha                 89.961862
_cell_angle_beta                  90.170608
_cell_angle_gamma                 90.457408
_cell_volume                      5522.34985196

loop_
_atom_site_label
_atom_site_type_symbol
_atom_site_description
_atom_site_fract_x
_atom_site_fract_y
_atom_site_fract_z
_atom_type_partial_charge
O1    O     O_R   0.377210 0.574260 0.500060 -0.604841
O2    O     O_R   0.377210 0.425740 0.500060 -0.597568
C1    C     C_R   0.338045 0.499587 0.499705 0.919848
O3    O     O_R   0.500050 0.574250 0.416220 -0.628169
O4    O     O_R   0.500050 0.425750 0.416220 -0.578741
C2    C     C_R   0.501366 0.499953 0.388965 0.900946
Zn1   Zn    Zn3+2 0.500090 0.599130 0.500080 0.983332
Zn2   Zn    Zn3+2 0.500090 0.400870 0.500080 1.046830
O5    O     O_R   0.622930 0.574200 0.500060 -0.624688
O6    O     O_R   0.622930 0.425800 0.500060 -0.594655
O7    O     O_R   0.500100 0.574210 0.583900 -0.610472
O8    O     O_R   0.500100 0.425790 0.583900 -0.579661
C3    C     C_R   0.662154 0.500428 0.500026 0.908137
C4    C     C_R   0.498316 0.500063 0.611018 0.937226
C5    C     C_R   0.540897 0.434294 0.877717 0.531251
N1    N     N_R   0.473879 0.474820 0.851994 -0.355867
C6    C     C_R   0.406938 0.506524 0.882161 0.525980
C7    C     C_R   0.402294 0.491417 0.941133 -0.090387
C8    C     C_R   0.476722 0.462490 0.969328 -0.080090
C9    C     C_R   0.548679 0.436025 0.937409 -0.093882
C10   C     C_R   0.327522 0.507890 0.972418 0.166504
C11   C     C_R   0.331304 0.513841 0.032480 0.100525
C12   C     C_R   0.406984 0.486222 0.061133 -0.051084
C13   C     C_R   0.479836 0.462198 0.029160 -0.081754
C14   C     C_R   0.556537 0.439560 0.057196 -0.041464
C15   C     C_R   0.625756 0.404331 0.025673 0.107765
C16   C     C_R   0.624709 0.411669 0.965718 0.161027
C17   C     C_R   0.413055 0.479597 0.120996 0.526167
N2    N     N_R   0.490542 0.472951 0.146663 -0.341307
C18   C     C_R   0.562152 0.457431 0.115890 0.518197
O9    O     O_2   0.598490 0.392551 0.845018 -0.507042
O10   O     O_2   0.347150 0.554458 0.854880 -0.503455
O11   O     O_2   0.342938 0.477780 0.153751 -0.551367
O12   O     O_2   0.638402 0.462919 0.141951 -0.560284
C19   C     C_R   0.537039 0.417638 0.239844 -0.109934
H1    H     H_    0.564871 0.360268 0.219133 0.172760
C20   C     C_R   0.543031 0.426080 0.298557 0.120409
C21   C     C_R   0.502687 0.498335 0.326423 -0.129641
C22   C     C_R   0.461687 0.565417 0.293294 0.088535
C23   C     C_R   0.461617 0.557363 0.233916 -0.125766
H2    H     H_    0.431632 0.607978 0.207830 0.143364
C24   C     C_R   0.496616 0.482747 0.207363 0.233948
C25   C     C_R   0.427914 0.427941 0.756816 0.137703
C26   C     C_R   0.430761 0.438836 0.697499 0.104413
C27   C     C_R   0.489741 0.499414 0.673179 -0.174208
C28   C     C_R   0.539054 0.558072 0.708035 0.085535
C29   C     C_R   0.527287 0.555037 0.767941 0.161551
C30   C     C_R   0.475578 0.486640 0.791530 0.189959
C31   C     C_3   0.055612 0.605211 0.517095 0.214440
C32   C     C_3   0.048000 0.429955 0.553031 0.242336
C33   C     C_3   0.945714 0.422821 0.546103 0.245546
C34   C     C_3   0.953253 0.604728 0.526997 0.248357
C35   C     C_1   0.750686 0.502292 0.502066 -0.182205
C36   C     C_3   0.083206 0.501298 0.504495 -0.070194
C37   C     C_3   0.917450 0.507070 0.507096 0.017112
C38   C     C_3   0.949839 0.490211 0.444257 -0.554076
C39   C     C_3   0.046644 0.473000 0.443129 0.243217
C40   C     C_1   0.825835 0.506464 0.504341 0.048405
C41   C     C_1   0.174479 0.498504 0.501979 0.031144
C42   C     C_1   0.249569 0.498487 0.500495 -0.107201
H3    H     H_    0.935197 0.548292 0.416844 0.207761
H4    H     H_    0.914919 0.434937 0.422806 0.219212
C43   C     C_3   0.405302 0.053170 0.476033 0.228417
C44   C     C_3   0.402615 0.943660 0.481975 0.149778
C45   C     C_3   0.520131 0.052694 0.561285 0.216679
C46   C     C_3   0.528768 0.945773 0.558313 0.235538
N3    N     N_1   0.498630 0.731150 0.498860 -0.089199
N4    N     N_1   0.498630 0.268850 0.498860 -0.059900
C47   C     C_3   0.497069 0.090401 0.499184 -0.127877
C48   C     C_3   0.497382 0.909482 0.497585 -0.049243
C49   C     C_3   0.558348 0.950619 0.448962 -0.051254
C50   C     C_3   0.568112 0.055330 0.456325 -0.120342
C51   C     C_1   0.498682 0.809061 0.497966 0.198994
C52   C     C_1   0.498061 0.190959 0.499066 0.169887
H5    H     H_    0.554524 0.085084 0.414310 0.213025
H6    H     H_    0.522846 0.945283 0.408583 0.201221
I1    I     I_    0.205394 0.501611 0.930321 -0.223331
I2    I     I_    0.339404 0.368543 0.644947 -0.319780
C53   C     C_3   0.606308 0.619941 0.681555 -0.404785
C54   C     C_3   0.682921 0.567533 0.660617 -0.729679
H7    H     H_    0.664686 0.517234 0.628049 0.241223
H8    H     H_    0.729433 0.614382 0.641133 0.268577
H9    H     H_    0.713813 0.532996 0.697047 0.288300
H10   H     H_    0.579301 0.660778 0.646711 0.256468
H11   H     H_    0.631088 0.671148 0.711170 0.230699
C55   C     C_3   0.568995 0.623895 0.807400 -0.405151
C56   C     C_3   0.524222 0.714001 0.803322 -0.767638
H12   H     H_    0.522868 0.739571 0.758909 0.273204
H13   H     H_    0.457827 0.707103 0.818663 0.288675
H14   H     H_    0.557824 0.763705 0.830560 0.258187
H15   H     H_    0.566733 0.604101 0.852854 0.214429
H16   H     H_    0.637877 0.630588 0.798543 0.225506
I3    I     I_    0.923917 0.642285 0.615368 -0.240614
I4    I     I_    0.872879 0.419038 0.627067 -0.282411
I5    I     I_    0.138136 0.668999 0.584099 -0.261895
I6    I     I_    0.086207 0.470882 0.640351 -0.178206
C57   C     C_3   0.094183 0.335511 0.549544 -0.357959
C58   C     C_3   0.092794 0.273709 0.602348 -0.747735
H17   H     H_    0.147154 0.288971 0.631065 0.287301
H18   H     H_    0.033289 0.280094 0.626906 0.289346
H19   H     H_    0.100086 0.202882 0.589065 0.226758
H20   H     H_    0.068372 0.294300 0.515471 0.226306
H21   H     H_    0.162232 0.343873 0.538948 0.230728
C59   C     C_3   0.084026 0.668919 0.465962 -0.367303
C60   C     C_3   0.085762 0.772177 0.472924 -0.818469
H22   H     H_    0.063605 0.796460 0.514827 0.276085
H23   H     H_    0.151460 0.797846 0.467011 0.263437
H24   H     H_    0.045853 0.804157 0.439590 0.244087
H25   H     H_    0.149681 0.651287 0.453416 0.241421
H26   H     H_    0.043631 0.657334 0.428662 0.214513
C61   C     C_3   0.909871 0.332734 0.516782 -0.383561
C62   C     C_3   0.908879 0.241776 0.548337 -0.761825
H27   H     H_    0.965643 0.201630 0.538534 0.245165
H28   H     H_    0.901025 0.245971 0.594969 0.289962
H29   H     H_    0.854477 0.201049 0.532295 0.248438
H30   H     H_    0.842220 0.342830 0.505625 0.223243
H31   H     H_    0.939415 0.319575 0.475591 0.216753
C63   C     C_3   0.907407 0.685118 0.494392 -0.383167
C64   C     C_3   0.811156 0.700044 0.501036 -0.779109
H32   H     H_    0.785346 0.676279 0.542239 0.287228
H33   H     H_    0.797294 0.772604 0.497775 0.253553
H34   H     H_    0.776056 0.667867 0.465342 0.246173
H35   H     H_    0.935339 0.747988 0.510564 0.244173
H36   H     H_    0.917687 0.684174 0.447904 0.196390
I7    I     I_    0.103735 0.527346 0.365363 -0.364932
I8    I     I_    0.078585 0.342928 0.408246 -0.356737
C65   C     C_3   0.328837 0.896332 0.518567 -0.328534
C66   C     C_3   0.291717 0.931443 0.574432 -0.788230
H37   H     H_    0.269741 0.874121 0.600892 0.280850
H38   H     H_    0.337074 0.969144 0.599800 0.293700
H39   H     H_    0.234605 0.972631 0.566807 0.249275
H40   H     H_    0.271039 0.887922 0.492054 0.219248
H41   H     H_    0.347068 0.826144 0.527030 0.227021
C67   C     C_3   0.327564 0.103293 0.503250 -0.329314
C68   C     C_3   0.240009 0.086648 0.475390 -0.757174
H42   H     H_    0.227736 0.136935 0.441539 0.287260
H43   H     H_    0.234616 0.019563 0.455972 0.280844
H44   H     H_    0.188983 0.094430 0.507581 0.225562
H45   H     H_    0.320986 0.090725 0.548574 0.227001
H46   H     H_    0.338106 0.176638 0.501067 0.219280
C69   C     C_3   0.258144 0.558868 0.063934 -0.316453
C70   C     C_3   0.285507 0.648525 0.089871 -0.778713
H47   H     H_    0.337065 0.640870 0.121664 0.261827
H48   H     H_    0.307896 0.694369 0.055670 0.255402
H49   H     H_    0.230499 0.679646 0.111480 0.258030
H50   H     H_    0.204605 0.575261 0.035481 0.220446
H51   H     H_    0.229282 0.513959 0.096169 0.262518
I9    I     I_    0.628091 0.121198 0.602102 -0.252902
I10   I     I_    0.656558 0.896345 0.575509 -0.339139
I11   I     I_    0.441360 0.106624 0.628821 -0.325211
I12   I     I_    0.477073 0.872117 0.630779 -0.310087
C71   C     C_3   0.660353 0.092017 0.467469 -0.345026
C72   C     C_3   0.716747 0.103100 0.414344 -0.853283
H52   H     H_    0.757723 0.044011 0.408202 0.247262
H53   H     H_    0.679210 0.115492 0.375034 0.281695
H54   H     H_    0.760490 0.161013 0.420456 0.268071
H55   H     H_    0.656282 0.160363 0.485356 0.240802
H56   H     H_    0.694642 0.050105 0.498645 0.251592
C73   C     C_3   0.641489 0.902406 0.429705 -0.356701
C74   C     C_3   0.632139 0.805119 0.410244 -0.842417
H57   H     H_    0.639533 0.759055 0.446907 0.275503
H58   H     H_    0.570491 0.793468 0.388285 0.267309
H59   H     H_    0.683764 0.788807 0.379865 0.245948
H60   H     H_    0.663544 0.937848 0.390846 0.227241
H61   H     H_    0.693976 0.907733 0.460748 0.239029
I13   I     I_    0.392493 0.103604 0.386495 -0.324366
I14   I     I_    0.367454 0.876954 0.399411 -0.451798
C75   C     C_3   0.696565 0.351151 0.054577 -0.324597
C76   C     C_3   0.661768 0.270420 0.087499 -0.785609
H62   H     H_    0.621889 0.290824 0.124007 0.265735
H63   H     H_    0.623367 0.227152 0.058636 0.256467
H64   H     H_    0.715405 0.230606 0.104520 0.257449
H65   H     H_    0.741008 0.322408 0.023327 0.222141
H66   H     H_    0.736639 0.394211 0.082275 0.263495
I15   I     I_    0.744889 0.409477 0.921486 -0.222337
I16   I     I_    0.619680 0.327774 0.339558 -0.334627
C77   C     C_3   0.414249 0.644032 0.318546 -0.390980
C78   C     C_3   0.329983 0.614406 0.344844 -0.703524
H67   H     H_    0.339516 0.564192 0.378992 0.243147
H68   H     H_    0.297401 0.673016 0.363529 0.262859
H69   H     H_    0.288371 0.584882 0.311346 0.281259
H70   H     H_    0.454002 0.681054 0.349756 0.240176
H71   H     H_    0.399359 0.694093 0.284949 0.214143
C79   C     C_3   0.376281 0.351830 0.783051 -0.368940
C80   C     C_3   0.421689 0.262725 0.776098 -0.724954
H72   H     H_    0.434241 0.248532 0.730502 0.297397
H73   H     H_    0.483020 0.264145 0.799586 0.282995
H74   H     H_    0.381604 0.207950 0.793690 0.255109
H75   H     H_    0.364825 0.361231 0.829177 0.215088
H76   H     H_    0.311870 0.348191 0.763953 0.247532

loop_
_geom_bond_atom_site_label_1
_geom_bond_atom_site_label_2
_geom_bond_distance
_ccdc_geom_bond_type
C68   H44   1.110872 S    
C37   C38   1.581270 S    
C35   C40   1.185840 T    
N2    C24   1.433254 S    
C7    C10   1.412602 A    
C76   H62   1.107512 S    
C61   C62   1.548204 S    
C67   H45   1.083902 S    
C56   H12   1.109036 S    
C66   H37   1.111539 S    
N1    C30   1.428443 S    
C31   C59   1.593675 S    
C62   H28   1.102277 S    
C57   C58   1.544459 S    
C68   H42   1.110568 S    
C46   C48   1.599337 S    
C27   C28   1.423719 A    
C79   C80   1.526714 S    
Zn1   O7    1.999524 S    
C60   H23   1.109893 S    
C15   C75   1.531231 S    
C15   C16   1.409596 A    
C32   C36   1.653298 S    
C17   N2    1.363399 A    
C19   C20   1.384955 A    
C44   I14   2.243877 S    
C55   H15   1.106216 S    
C54   H9    1.110750 S    
C73   C74   1.531222 S    
C39   I7    2.188208 S    
O4    C2    1.280370 A    
O7    C4    1.278158 A    
C80   H73   1.110509 S    
N4    C52   1.165108 T    
C5    N1    1.360582 A    
C25   C79   1.524152 S    
C38   C39   1.548645 S    
C68   H43   1.104726 S    
C7    C8    1.414694 A    
C45   I11   2.173822 S    
C19   C24   1.392688 A    
O5    C3    1.268995 A    
C63   C64   1.542485 S    
C62   H27   1.105774 S    
C65   H40   1.107118 S    
C43   I13   2.238818 S    
C28   C53   1.533409 S    
C8    C9    1.419019 A    
N1    C6    1.359959 A    
C50   C71   1.570161 S    
C12   C13   1.421094 A    
C2    C21   1.466393 S    
C48   C49   1.611147 S    
N3    C51   1.165609 T    
C44   C48   1.622320 S    
C72   H53   1.109583 S    
N2    C18   1.362205 A    
C25   C30   1.408342 A    
C33   C37   1.620918 S    
C57   H20   1.085300 S    
C34   C37   1.629652 S    
C1    C42   1.393690 S    
C44   C65   1.605998 S    
C23   C24   1.396369 A    
C41   C42   1.183341 T    
C10   C11   1.411771 A    
C76   H63   1.111004 S    
C70   H49   1.110537 S    
C5    C9    1.404397 A    
C50   H5    1.101563 S    
C59   C60   1.553306 S    
C22   C77   1.519572 S    
C6    C7    1.402512 A    
C4    C27   1.463700 S    
C3    C35   1.395161 S    
C36   C41   1.439918 S    
C64   H33   1.111375 S    
C75   H65   1.104392 S    
C60   H24   1.111671 S    
C71   H56   1.105074 S    
C70   H47   1.107112 S    
C18   O12   1.347733 S    
C43   C67   1.577444 S    
C43   C47   1.636047 S    
C34   I3    2.197991 S    
C21   C22   1.425927 A    
C13   C14   1.416869 A    
C46   I10   2.186064 S    
C54   H8    1.108937 S    
C16   I15   2.161429 S    
C39   I8    2.174297 S    
C55   C56   1.528980 S    
C80   H74   1.110327 S    
O3    Zn1   2.000821 S    
C14   C15   1.423655 A    
C77   H71   1.112138 S    
C43   C44   1.644144 S    
O1    C1    1.271725 A    
C19   H1    1.082639 S    
C74   H58   1.110229 S    
C47   C50   1.597896 S    
C75   H66   1.107431 S    
C25   C26   1.400605 A    
C74   H59   1.111117 S    
C20   C21   1.418803 A    
C29   C30   1.415773 A    
Zn2   O8    2.000011 S    
C31   C34   1.629481 S    
C48   C51   1.502472 S    
C32   C33   1.621427 S    
C47   C52   1.504156 S    
C38   H3    1.105654 S    
C63   H36   1.102245 S    
C12   C17   1.409618 A    
C31   I5    2.244254 S    
C45   I9    2.195611 S    
C5    O9    1.346859 S    
C57   H21   1.107022 S    
C69   H50   1.102618 S    
O3    C2    1.282625 A    
C23   H2    1.083300 S    
O8    C4    1.280907 A    
C17   O11   1.347010 S    
C77   C78   1.527437 S    
C58   H18   1.106167 S    
C56   H13   1.110876 S    
C76   H64   1.110539 S    
C38   H4    1.109326 S    
C37   C40   1.444200 S    
C65   C66   1.530609 S    
C66   H39   1.108359 S    
C49   H6    1.100502 S    
C53   H11   1.102382 S    
C70   H48   1.111030 S    
C26   C27   1.413538 A    
C77   H70   1.107328 S    
C64   H34   1.109422 S    
C14   C18   1.404072 A    
Zn1   O5    1.973338 S    
C28   C29   1.417573 A    
C75   C76   1.531312 S    
C32   C57   1.596435 S    
C33   C61   1.610528 S    
C53   H10   1.105699 S    
O1    Zn1   1.967944 S    
C8    C13   1.403164 A    
C11   C12   1.430159 A    
O2    Zn2   1.973777 S    
C65   H41   1.108296 S    
C54   H7    1.107866 S    
O6    C3    1.271554 A    
C66   H38   1.083267 S    
O4    Zn2   2.000336 S    
C78   H68   1.110331 S    
C64   H32   1.106336 S    
Zn2   N4    1.975004 S    
C67   C68   1.542587 S    
C9    C16   1.417398 A    
C58   H19   1.111388 S    
C49   C73   1.567726 S    
C60   H22   1.105880 S    
C61   H31   1.091723 S    
C61   H30   1.107907 S    
C74   H57   1.107597 S    
C26   I2    2.158807 S    
O2    C1    1.269515 A    
C49   C50   1.582148 S    
C55   H16   1.108960 S    
C69   C70   1.531101 S    
C20   I16   2.136142 S    
C59   H26   1.092872 S    
C32   I6    2.216875 S    
C80   H72   1.108438 S    
C59   H25   1.109818 S    
C45   C47   1.602502 S    
C11   C69   1.530743 S    
C72   H54   1.111633 S    
C71   H55   1.107651 S    
C79   H76   1.108612 S    
C63   H35   1.102063 S    
C45   C46   1.607814 S    
C78   H69   1.110809 S    
C69   H51   1.106943 S    
C33   I4    2.220950 S    
Zn1   N3    1.975333 S    
C53   C54   1.526664 S    
C22   C23   1.397061 A    
C73   H61   1.102125 S    
C46   I12   2.180232 S    
C67   H46   1.109488 S    
Zn2   O6    1.967491 S    
C58   H17   1.109941 S    
C56   H14   1.110324 S    
C10   I1    2.160699 S    
C29   C55   1.527996 S    
C6    O10   1.347735 S    
C73   H60   1.108908 S    
C71   C72   1.539807 S    
C72   H52   1.108319 S    
C79   H75   1.105919 S    
C62   H29   1.112114 S    
C31   C36   1.644514 S    
C78   H67   1.108017 S    
C36   C39   1.603677 S    
C34   C63   1.600299 S    
