data_mof_unit_5367.cif
_audit_creation_date              2012-10-26T19:10:49-0400
_audit_creation_method            fapswitch 2.2
_symmetry_space_group_name_H-M    P1
_symmetry_Int_Tables_number       1
_space_group_crystal_system       triclinic
_cell_length_a                    10.729553
_cell_length_b                    9.40689
_cell_length_c                    23.529929
_cell_angle_alpha                 89.820262
_cell_angle_beta                  89.884894
_cell_angle_gamma                 89.987639
_cell_volume                      2374.89978859

loop_
_atom_site_label
_atom_site_type_symbol
_atom_type_description
_atom_site_fract_x
_atom_site_fract_y
_atom_site_fract_z
_atom_type_partial_charge
C1    C     C_R   0.259623 0.499799 0.500090 0.549975
C2    C     C_R   0.600804 0.558693 0.119431 0.404362
C3    C     C_R   0.538820 0.371804 0.240190 -0.074239
C4    C     C_R   0.498996 0.500186 0.390877 0.570308
C5    C     C_R   0.536225 0.375471 0.299369 -0.197841
C6    C     C_R   0.499205 0.499471 0.328133 0.005740
C7    C     C_R   0.461861 0.619851 0.296227 0.250342
C8    C     C_R   0.468161 0.616028 0.236779 -0.038049
C9    C     C_R   0.505520 0.492244 0.208812 0.195641
C10   C     C_R   0.490003 0.624558 0.761458 -0.057363
C11   C     C_R   0.489000 0.626126 0.702187 -0.150841
C12   C     C_R   0.317770 0.348486 0.970706 -0.122267
C13   C     C_R   0.501305 0.498700 0.671660 -0.000151
C14   C     C_R   0.515076 0.369927 0.701466 -0.150833
C15   C     C_R   0.516743 0.368738 0.760688 -0.057700
C16   C     C_R   0.740130 0.499786 0.500083 0.551217
C17   C     C_R   0.503992 0.495911 0.790970 0.239001
C18   C     C_3   0.071542 0.578753 0.553083 -0.232039
C19   C     C_3   0.071240 0.344176 0.501670 -0.232033
C20   C     C_3   0.927665 0.577964 0.553276 -0.232175
C21   C     C_3   0.928571 0.344181 0.501241 -0.233494
C22   C     C_3   0.072006 0.573133 0.445804 -0.235420
C23   C     C_R   0.318730 0.346637 0.029993 -0.122813
C24   C     C_3   0.121678 0.499035 0.500170 0.051571
C25   C     C_3   0.878060 0.499058 0.500166 0.049104
C26   C     C_3   0.928160 0.574270 0.446037 -0.231202
C27   C     C_3   0.622764 0.083568 0.518752 -0.105240
C28   C     C_3   0.622855 0.916072 0.518625 -0.108289
C29   C     C_3   0.405618 0.083611 0.541061 -0.104067
C30   C     C_3   0.405866 0.915851 0.541194 -0.106737
C31   C     C_3   0.472068 0.084018 0.444211 -0.103103
C32   C     C_3   0.471629 0.916838 0.444305 -0.090610
C33   C     C_R   0.500179 0.499738 0.609107 0.553897
C34   C     C_R   0.413262 0.416871 0.060103 0.029236
C35   C     C_R   0.599103 0.562196 0.880356 0.400836
C36   C     C_R   0.412016 0.424284 0.880686 0.400616
C37   C     C_R   0.411532 0.420249 0.940292 0.029848
C38   C     C_R   0.507102 0.490401 0.970051 -0.028161
C39   C     C_R   0.601731 0.562308 0.939977 0.029860
C40   C     C_3   0.291116 0.746789 0.321267 -0.126216
C41   C     C_R   0.507838 0.488986 0.030035 -0.028547
C42   C     C_R   0.602869 0.560155 0.059810 0.028795
C43   C     C_R   0.696972 0.631275 0.029397 -0.122650
C44   C     C_R   0.696505 0.632174 0.970098 -0.122023
C45   C     C_R   0.415315 0.418002 0.119710 0.403175
Cu1   Cu    Cu3+1 0.499860 0.642410 0.500030 0.889067
Cu2   Cu    Cu3+1 0.499860 0.357590 0.500030 0.869397
H1    H     H_    0.243317 0.293612 0.948830 0.169402
H2    H     H_    0.893706 0.287116 0.539647 0.116819
H3    H     H_    0.892877 0.689457 0.553790 0.117283
H4    H     H_    0.895243 0.285070 0.463260 0.117315
H5    H     H_    0.107111 0.684333 0.443260 0.113160
H6    H     H_    0.106129 0.516052 0.407451 0.106849
H7    H     H_    0.894466 0.686138 0.444390 0.118870
H8    H     H_    0.892865 0.519616 0.407387 0.117658
H9    H     H_    0.647845 0.123072 0.561757 0.113331
H10   H     H_    0.648277 0.875580 0.561543 0.116544
H11   H     H_    0.244961 0.290489 0.052110 0.168878
H12   H     H_    0.478025 0.726849 0.680351 0.115226
H13   H     H_    0.696975 0.120936 0.489262 0.112611
H14   H     H_    0.696919 0.879345 0.488988 0.112646
H15   H     H_    0.423187 0.122302 0.584905 0.117544
H16   H     H_    0.424077 0.877100 0.585065 0.115794
H17   H     H_    0.380232 0.124186 0.429233 0.117985
H18   H     H_    0.379192 0.877770 0.429977 0.136063
H19   H     H_    0.542809 0.121217 0.412939 0.120745
H20   H     H_    0.541558 0.879236 0.412821 0.163246
H21   H     H_    0.311098 0.121762 0.529259 0.111292
H22   H     H_    0.311309 0.877355 0.529725 0.110682
H23   H     H_    0.525223 0.270143 0.679087 0.116784
H24   H     H_    0.771144 0.686615 0.051284 0.168783
H25   H     H_    0.770392 0.688124 0.947983 0.169443
H26   H     H_    0.567633 0.275663 0.218646 0.145895
H27   H     H_    0.564388 0.281330 0.322627 0.128924
H28   H     H_    0.442113 0.708974 0.212237 0.137313
H29   H     H_    0.479524 0.723284 0.784523 0.134978
H30   H     H_    0.250240 0.653982 0.344053 0.111712
H31   H     H_    0.255691 0.751793 0.276888 0.128805
H32   H     H_    0.258861 0.844345 0.343167 0.121178
H33   H     H_    0.528212 0.268930 0.783134 0.134758
H34   H     H_    0.105351 0.690623 0.553002 0.116681
H35   H     H_    0.106024 0.283727 0.464229 0.119525
H36   H     H_    0.106697 0.527226 0.592571 0.118098
H37   H     H_    0.104696 0.288453 0.540585 0.116884
H38   H     H_    0.893105 0.524952 0.592621 0.119081
N1    N     N_R   0.505005 0.494245 0.852000 -0.397663
N2    N     N_R   0.507826 0.488662 0.147961 -0.396729
N3    N     N_3   0.500250 0.143650 0.501250 -0.225490
N4    N     N_3   0.500250 0.856350 0.501250 -0.234912
O1    O     O_R   0.317570 0.620260 0.500030 -0.516228
O2    O     O_2   0.319702 0.359955 0.851599 -0.499217
O3    O     O_2   0.325026 0.350396 0.149259 -0.498181
O4    O     O_2   0.690903 0.626410 0.148721 -0.494544
O5    O     O_3   0.422480 0.742797 0.322756 -0.575087
O6    O     O_R   0.317570 0.379740 0.500030 -0.514797
O7    O     O_R   0.499840 0.620290 0.417900 -0.460475
O8    O     O_R   0.499840 0.379710 0.417900 -0.523106
O9    O     O_R   0.682190 0.620260 0.500010 -0.517352
O10   O     O_R   0.682190 0.379740 0.500010 -0.516164
O11   O     O_R   0.499920 0.620230 0.582140 -0.509271
O12   O     O_R   0.499920 0.379770 0.582140 -0.508392
O13   O     O_2   0.690381 0.628374 0.850924 -0.499061

loop_
_geom_bond_atom_site_label_1
_geom_bond_atom_site_label_2
_ccdc_geom_bond_type
C23   H11   S    
C1    O1    A    
Cu2   O12   S    
C31   H19   S    
C41   C42   A    
C12   H1    S    
C35   O13   S    
C26   H8    S    
C21   H2    S    
C7    C8    A    
Cu1   N4    S    
C28   H10   S    
C12   C23   A    
C29   C30   S    
C18   C24   S    
C22   C24   S    
C36   C37   A    
C45   N2    A    
C27   H13   S    
C38   C39   A    
C35   N1    A    
C20   C25   S    
C10   C17   A    
C12   C37   A    
C18   H34   S    
Cu2   O10   S    
C5    H27   S    
C45   O3    S    
C29   N3    S    
C21   C25   S    
C29   H15   S    
C10   H29   S    
C32   N4    S    
C8    C9    A    
C20   H3    S    
C28   N4    S    
C19   H35   S    
C28   H14   S    
Cu1   O9    S    
C4    O7    A    
C13   C14   A    
C14   H23   S    
C34   C41   A    
C30   N4    S    
C11   H12   S    
C26   H7    S    
C22   H6    S    
C2    O4    S    
C17   N1    S    
C38   C41   A    
C4    C6    S    
C27   H9    S    
C36   N1    A    
C25   C26   S    
C8    H28   S    
C35   C39   A    
C43   C44   A    
C13   C33   S    
C37   C38   A    
C3    C9    A    
C4    O8    A    
C29   H21   S    
C15   H33   S    
C1    O6    A    
C23   C34   A    
C20   H38   S    
C18   H36   S    
C40   H32   S    
C2    N2    A    
C34   C45   A    
C39   C44   A    
C32   H20   S    
C36   O2    S    
C40   H31   S    
C42   C43   A    
C19   H37   S    
C21   H4    S    
C30   H22   S    
C22   H5    S    
C16   C25   S    
C15   C17   A    
C7    O5    S    
Cu1   O11   S    
Cu1   Cu2   S    
C43   H24   S    
C31   N3    S    
C19   C21   S    
C40   H30   S    
C31   H17   S    
C31   C32   S    
C40   O5    S    
C3    C5    A    
C16   O10   A    
C6    C7    A    
Cu1   O1    S    
Cu2   O8    S    
C33   O11   A    
Cu2   N3    S    
C33   O12   A    
C19   C24   S    
C9    N2    S    
C11   C13   A    
C16   O9    A    
C5    C6    A    
C2    C42   A    
C44   H25   S    
C18   C20   S    
C27   N3    S    
C3    H26   S    
C10   C11   A    
Cu1   O7    S    
C1    C24   S    
C22   C26   S    
C27   C28   S    
Cu2   O6    S    
C14   C15   A    
C30   H16   S    
C32   H18   S    
