data_mof_unit_5320.cif
_audit_creation_date              2013-03-05T16:04:42-0500
_audit_creation_method            fapswitch 2.2
_symmetry_space_group_name_H-M    P1
_symmetry_Int_Tables_number       1
_space_group_crystal_system       triclinic
_cell_length_a                    6.949267
_cell_length_b                    23.152738
_cell_length_c                    23.59171
_cell_angle_alpha                 112.538827
_cell_angle_beta                  90.856058
_cell_angle_gamma                 91.551712
_cell_volume                      3503.25248273

loop_
_atom_site_label
_atom_site_type_symbol
_atom_site_description
_atom_site_fract_x
_atom_site_fract_y
_atom_site_fract_z
_atom_type_partial_charge
O1    O     O_R   0.505740 0.453370 0.547760 -0.600496
O2    O     O_R   0.169520 0.427650 0.423350 -0.605147
O3    O     O_R   0.005620 0.546630 0.452240 -0.589694
C1    C     C_R   0.335157 0.408423 0.399369 0.919771
O4    O     O_R   0.175610 0.445960 0.545510 -0.603540
O5    O     O_R   0.011740 0.565080 0.575280 -0.585153
C2    C     C_R   0.343488 0.433533 0.561881 0.916202
O6    O     O_R   0.499610 0.434920 0.424720 -0.596803
O7    O     O_3   0.341310 0.539060 0.509620 -0.235945
V1    V     V_3+5 0.063960 0.492750 0.498220 1.167654
O8    O     O_R   0.682400 0.572350 0.576650 -0.559743
C3    C     C_R   0.855406 0.590714 0.600581 1.010926
O9    O     O_R   0.676320 0.554040 0.454490 -0.582879
C4    C     C_R   0.845410 0.565839 0.437684 0.949489
V2    V     V_3+5 0.564740 0.507250 0.501780 1.202656
O10   O     O_3   0.837250 0.460940 0.490380 -0.293673
C5    C     C_R   0.901409 0.925005 0.162180 -0.170898
H1    H     H_    0.872416 0.974428 0.182048 0.112620
C6    C     C_R   0.891941 0.889954 0.199014 -0.140286
H2    H     H_    0.860881 0.913498 0.247039 0.121931
C7    C     C_R   0.925959 0.825533 0.174523 -0.002243
C8    C     C_R   0.975850 0.797045 0.112158 0.573040
C9    C     C_R   0.993288 0.833226 0.076164 -0.317866
H3    H     H_    0.034354 0.811161 0.028724 0.130851
C10   C     C_R   0.952715 0.896955 0.100651 -0.142842
C11   C     C_R   0.064057 0.751730 0.217750 -0.179319
H4    H     H_    0.194656 0.751384 0.193132 0.190628
C12   C     C_R   0.054980 0.717009 0.254849 -0.214907
H5    H     H_    0.181219 0.692102 0.258171 0.128050
C13   C     C_R   0.888333 0.715600 0.287673 0.080407
C14   C     C_R   0.732975 0.751684 0.283044 -0.342999
H6    H     H_    0.599196 0.750046 0.305223 0.131102
C15   C     C_R   0.745772 0.790057 0.248910 0.560577
C16   C     C_R   0.910672 0.788497 0.214127 -0.035224
C17   C     C_R   0.752745 0.692521 0.376660 -0.156798
H7    H     H_    0.666323 0.733502 0.389594 0.116609
C18   C     C_R   0.740223 0.655919 0.412070 -0.117567
H8    H     H_    0.642579 0.668944 0.449963 0.168911
C19   C     C_R   0.856464 0.604158 0.399887 -0.132012
C20   C     C_R   0.982752 0.588889 0.350872 -0.155520
H9    H     H_    0.072316 0.548664 0.340078 0.117357
C21   C     C_R   0.990406 0.624010 0.313999 -0.144967
H10   H     H_    0.083952 0.608632 0.275189 0.108129
C22   C     C_R   0.876875 0.676967 0.326470 0.146383
C23   C     C_R   0.883941 0.645231 0.659874 -0.305406
C24   C     C_R   0.924767 0.857501 0.838716 -0.129024
C25   C     C_R   0.721078 0.807882 0.746595 -0.130975
C26   C     C_R   0.770617 0.859287 0.800188 -0.163563
C27   C     C_R   0.032321 0.803361 0.821815 -0.247874
C28   C     C_R   0.981396 0.750769 0.768146 0.182554
C29   C     C_R   0.822746 0.752406 0.730174 0.029836
C30   C     C_R   0.772826 0.699256 0.676071 0.273184
C31   C     C_R   0.038831 0.644650 0.698796 -0.130612
C32   C     C_R   0.086421 0.696439 0.752177 -0.153536
H11   H     H_    0.125758 0.603761 0.687430 0.140235
H12   H     H_    0.601773 0.812004 0.718561 0.172053
H13   H     H_    0.207557 0.694193 0.780644 0.123518
H14   H     H_    0.685846 0.900701 0.812061 0.133273
H15   H     H_    0.150421 0.801324 0.851475 0.126332
C33   C     C_R   0.333935 0.351671 0.340573 -0.130460
C34   C     C_R   0.475444 0.148564 0.159217 -0.132737
C35   C     C_R   0.650429 0.221418 0.250678 -0.233820
C36   C     C_R   0.643935 0.167300 0.196645 -0.162522
C37   C     C_R   0.312596 0.185885 0.177475 -0.288471
C38   C     C_R   0.319516 0.241144 0.231396 0.217783
C39   C     C_R   0.489942 0.259157 0.268311 0.216318
C40   C     C_R   0.496836 0.314391 0.322253 -0.284204
C41   C     C_R   0.165486 0.332972 0.303116 -0.161400
C42   C     C_R   0.159040 0.278892 0.249036 -0.235464
H16   H     H_    0.627727 0.327626 0.350482 0.140189
H17   H     H_    0.037833 0.360463 0.315491 0.133564
H18   H     H_    0.781568 0.233837 0.278719 0.131541
H19   H     H_    0.027919 0.266488 0.220983 0.130824
H20   H     H_    0.771570 0.139796 0.184299 0.133788
H21   H     H_    0.181715 0.172638 0.149239 0.138216
C43   C     C_R   0.269791 0.111008 0.876152 -0.236185
H22   H     H_    0.141645 0.094463 0.891430 0.213798
C44   C     C_R   0.247023 0.140793 0.835445 -0.182131
H23   H     H_    0.100768 0.148396 0.826351 0.192388
C45   C     C_R   0.406061 0.158910 0.808628 0.170756
C46   C     C_R   0.590155 0.153489 0.832406 -0.323551
H24   H     H_    0.718375 0.171278 0.818494 0.164907
C47   C     C_R   0.613390 0.128165 0.877765 0.584975
C48   C     C_R   0.451998 0.102418 0.896977 -0.308263
C49   C     C_R   0.540529 0.196950 0.727784 -0.382136
H25   H     H_    0.675696 0.176670 0.730151 0.225153
C50   C     C_R   0.524341 0.229196 0.688131 0.560014
C51   C     C_R   0.356655 0.263476 0.689994 -0.381435
C52   C     C_R   0.193755 0.250354 0.718638 0.423295
C53   C     C_R   0.200707 0.204113 0.743454 0.426629
C54   C     C_R   0.381851 0.187185 0.760168 -0.180432
C55   C     C_R   0.195914 0.307235 0.619388 -0.125372
H26   H     H_    0.079756 0.272612 0.610243 0.161879
C56   C     C_R   0.193813 0.348092 0.588570 -0.205014
H27   H     H_    0.074114 0.344388 0.557279 0.138659
C57   C     C_R   0.346894 0.391686 0.596333 -0.111552
C58   C     C_R   0.500258 0.394487 0.636930 -0.204990
H28   H     H_    0.619573 0.427830 0.644124 0.129768
C59   C     C_R   0.499726 0.354547 0.669121 -0.137295
H29   H     H_    0.619213 0.357575 0.700193 0.138126
C60   C     C_R   0.348803 0.309789 0.659995 0.197779
O11   O     O_R   0.309730 0.065160 0.075230 -0.592207
O12   O     O_R   0.633800 0.053970 0.954410 -0.570440
O13   O     O_R   0.797580 0.934860 0.924760 -0.592196
C61   C     C_R   0.465266 0.066020 0.937356 0.950782
O14   O     O_R   0.639820 0.072410 0.076610 -0.605706
O15   O     O_R   0.803650 0.953440 0.047830 -0.588287
C62   C     C_R   0.474176 0.091717 0.100520 0.925355
O16   O     O_R   0.303670 0.046590 0.952160 -0.598405
O17   O     O_3   0.468000 0.960960 0.990410 -0.266097
V3    V     V_3+5 0.745380 0.007240 0.001780 1.155586
O18   O     O_R   0.132940 0.946010 0.045600 -0.588301
C63   C     C_R   0.963868 0.934422 0.062393 0.949693
O19   O     O_R   0.126920 0.927560 0.923400 -0.592650
C64   C     C_R   0.954008 0.910014 0.899034 0.939333
V4    V     V_3+5 0.244590 0.992720 0.998240 1.154955
O20   O     O_3   0.972110 0.039040 0.009600 -0.283502
N1    N     N_R   0.616685 0.701265 0.636488 0.231464
O21   O     O_R   0.650000 0.698137 0.581288 -0.421144
O22   O     O_R   0.440548 0.704923 0.655145 -0.411193
O23   O     O_3   0.796337 0.127508 0.901172 -0.687261
C65   C     C_3   0.821790 0.177480 0.959183 0.222271
H30   H     H_    0.937502 0.164647 0.984755 0.138151
H31   H     H_    0.691403 0.184920 0.987865 0.064945
C66   C     C_3   0.884681 0.238467 0.952244 -0.357975
H32   H     H_    0.013155 0.230536 0.923204 0.216858
H33   H     H_    0.767003 0.254163 0.929749 0.202204
C67   C     C_3   0.933995 0.290328 0.014490 -0.985484
H34   H     H_    0.806750 0.299838 0.044255 0.265757
H35   H     H_    0.977583 0.333818 0.007954 0.274426
H36   H     H_    0.055181 0.276724 0.037480 0.263390
O24   O     O_3   0.014427 0.734163 0.086627 -0.677023
C68   C     C_3   0.843278 0.700342 0.058719 0.175059
H37   H     H_    0.798404 0.712126 0.018977 0.101012
H38   H     H_    0.724629 0.710777 0.092197 0.113427
C69   C     C_3   0.879984 0.630408 0.035659 -0.241102
H39   H     H_    0.999003 0.619185 0.002571 0.202579
H40   H     H_    0.924193 0.618219 0.075090 0.205951
C70   C     C_3   0.700418 0.591119 0.004154 -1.027369
H41   H     H_    0.580289 0.600830 0.036724 0.273779
H42   H     H_    0.731963 0.540662 0.988092 0.275556
H43   H     H_    0.655790 0.601704 0.963847 0.267312
O25   O     O_3   0.677368 0.227389 0.650115 -0.620303
C71   C     C_3   0.614573 0.209781 0.587875 0.212244
H44   H     H_    0.620047 0.252086 0.576506 0.138132
H45   H     H_    0.465303 0.188606 0.577873 0.066865
C72   C     C_3   0.749018 0.162162 0.545024 -0.312703
H46   H     H_    0.901438 0.176800 0.559260 0.209802
H47   H     H_    0.719443 0.115812 0.547386 0.197969
C73   C     C_3   0.718385 0.155336 0.478516 -1.017472
H48   H     H_    0.566685 0.140560 0.463094 0.269355
H49   H     H_    0.814440 0.119329 0.448532 0.271463
H50   H     H_    0.753114 0.200401 0.473843 0.266845
O26   O     O_3   0.021040 0.278266 0.717752 -0.603845
C74   C     C_3   0.013656 0.334744 0.770120 0.248305
H51   H     H_    0.929037 0.367836 0.756883 0.112284
H52   H     H_    0.157998 0.358320 0.786367 0.061225
C75   C     C_3   0.911705 0.323540 0.822411 -0.282772
H53   H     H_    0.767763 0.300843 0.805823 0.222701
H54   H     H_    0.996988 0.292065 0.837776 0.203238
C76   C     C_3   0.886359 0.384731 0.877239 -1.053713
H55   H     H_    0.028783 0.408007 0.895292 0.274674
H56   H     H_    0.813086 0.374877 0.914250 0.280096
H57   H     H_    0.797012 0.416670 0.863708 0.270365
O27   O     O_3   0.028140 0.174852 0.747235 -0.681754
C77   C     C_3   0.026789 0.110527 0.707572 0.142488
H58   H     H_    0.913798 0.085724 0.723413 0.130012
H59   H     H_    0.163950 0.087497 0.709493 0.119236
C78   C     C_3   0.977336 0.101338 0.641233 -0.287988
H60   H     H_    0.832033 0.119039 0.639649 0.228727
H61   H     H_    0.082946 0.127934 0.624831 0.190973
C79   C     C_3   0.978013 0.032413 0.598646 -1.020079
H62   H     H_    0.123137 0.013575 0.599038 0.276188
H63   H     H_    0.940446 0.027337 0.551016 0.270187
H64   H     H_    0.870494 0.004891 0.613278 0.274206
O28   O     O_3   0.590411 0.824905 0.245137 -0.671172
C80   C     C_3   0.555098 0.872215 0.303365 0.158478
H65   H     H_    0.574207 0.918346 0.299530 0.122561
H66   H     H_    0.654770 0.873067 0.341342 0.082614
C81   C     C_3   0.347129 0.865685 0.320803 -0.265913
H67   H     H_    0.248249 0.868935 0.284796 0.210518
H68   H     H_    0.323177 0.819397 0.323899 0.201717
C82   C     C_3   0.300863 0.916862 0.382279 -1.019060
H69   H     H_    0.395320 0.913997 0.419451 0.273352
H70   H     H_    0.148552 0.910807 0.393158 0.270212
H71   H     H_    0.321305 0.963753 0.380192 0.266557

loop_
_geom_bond_atom_site_label_1
_geom_bond_atom_site_label_2
_geom_bond_distance
_ccdc_geom_bond_type
C75   H54   1.110471 S    
C50   C51   1.419373 A    
O27   C77   1.422788 S    
C68   H37   1.114770 S    
C74   H52   1.117796 S    
C78   H60   1.105424 S    
C17   H7    1.080936 S    
C1    O6    1.304002 A    
C67   H34   1.110890 S    
C43   C48   1.397913 A    
C58   H28   1.083021 S    
C49   C54   1.412392 A    
C31   C32   1.393382 A    
C81   H67   1.110764 S    
C38   C39   1.413872 A    
C2    C57   1.484677 S    
C24   C27   1.401909 A    
C11   H4    1.083346 S    
C28   C32   1.396980 A    
C24   C64   1.481921 S    
C12   H5    1.080875 S    
C17   C18   1.401610 A    
C43   C44   1.389933 A    
C69   C70   1.526275 S    
O5    C3    1.292873 A    
C13   C14   1.410946 A    
C45   C46   1.417145 A    
C70   H43   1.111053 S    
C44   C45   1.413116 A    
V2    O10   2.170792 S    
V4    O20   2.170766 S    
O12   V3    1.991774 S    
C34   C36   1.409531 A    
C15   O28   1.387040 S    
O17   V3    2.141968 S    
O15   C63   1.297183 A    
C34   C62   1.500591 S    
O16   V4    1.982680 S    
C58   C59   1.403640 A    
C4    C19   1.480854 S    
N1    O21   1.300908 A    
O8    V2    1.977209 S    
C11   C16   1.403673 A    
C72   H46   1.110061 S    
C33   C40   1.412405 A    
C81   H68   1.110085 S    
C41   C42   1.402902 A    
C80   H66   1.118046 S    
C73   H50   1.111019 S    
C66   C67   1.525309 S    
C9    H3    1.083574 S    
C14   C15   1.411403 A    
C42   H19   1.082980 S    
O1    V2    1.980888 S    
O7    V1    2.142024 S    
C75   C76   1.525375 S    
C81   C82   1.525754 S    
C56   C57   1.406511 A    
C8    O24   1.381301 S    
C20   C21   1.400729 A    
C39   C40   1.415761 A    
C23   C31   1.408061 A    
C7    C8    1.415498 A    
C74   C75   1.533804 S    
C77   H59   1.113406 S    
C78   H61   1.110937 S    
C13   C22   1.506667 S    
C77   H58   1.111243 S    
C21   C22   1.412489 A    
C71   C72   1.529688 S    
C8    C9    1.407263 A    
O18   C63   1.299122 A    
C76   H56   1.110614 S    
C79   H63   1.110372 S    
C46   H24   1.078787 S    
O14   V3    1.996977 S    
C31   H11   1.083639 S    
C24   C26   1.406236 A    
C35   C39   1.402975 A    
C49   C50   1.407827 A    
C29   C30   1.422446 A    
C25   C26   1.394559 A    
C72   C73   1.526533 S    
C43   H22   1.080120 S    
C69   H40   1.112092 S    
C82   H71   1.110903 S    
C52   C53   1.404898 A    
C19   C20   1.402171 A    
O4    C2    1.297253 A    
C44   H23   1.068713 S    
C71   H44   1.110159 S    
C25   C29   1.405287 A    
C7    C16   1.493895 S    
C23   C30   1.414773 A    
C28   C29   1.420643 A    
C49   H25   1.071589 S    
C26   H14   1.083750 S    
C34   C37   1.412450 A    
O2    C1    1.302804 A    
C82   H69   1.110871 S    
O5    V1    1.989935 S    
C18   H8    1.083084 S    
C10   C63   1.473684 S    
C68   C69   1.527738 S    
O13   C64   1.291084 A    
C47   C48   1.415907 A    
O8    C3    1.308806 A    
C80   C81   1.527886 S    
C57   C58   1.405511 A    
C1    C33   1.500819 S    
C35   C36   1.402734 A    
C55   C56   1.396901 A    
C5    H1    1.083419 S    
O26   C74   1.416308 S    
C35   H18   1.082957 S    
O12   C61   1.304253 A    
C47   O23   1.381304 S    
O11   C62   1.303960 A    
C17   C22   1.412896 A    
O23   C65   1.417992 S    
O3    C4    1.299120 A    
C55   C60   1.404577 A    
C41   H17   1.083121 S    
C71   H45   1.117370 S    
O28   C80   1.420634 S    
C59   C60   1.408379 A    
C80   H65   1.110551 S    
O6    V2    1.978568 S    
O9    V2    1.981516 S    
C53   O27   1.382226 S    
C66   H32   1.109450 S    
C78   C79   1.525606 S    
C73   H49   1.110455 S    
C48   C61   1.497694 S    
C21   H10   1.080779 S    
C65   H31   1.116228 S    
O2    V1    1.996848 S    
C67   H36   1.110990 S    
O17   V4    1.717984 S    
O18   V4    1.981594 S    
C76   H57   1.110922 S    
C79   H62   1.110869 S    
C66   H33   1.110616 S    
C61   O16   1.300091 A    
C20   H9    1.083459 S    
C72   H47   1.109580 S    
O1    C2    1.301432 A    
O15   V3    1.986804 S    
C14   H6    1.080431 S    
C51   C60   1.495810 S    
C69   H39   1.111926 S    
C67   H35   1.110542 S    
C46   C47   1.412778 A    
O13   V3    1.989917 S    
O19   V4    1.977382 S    
C70   H41   1.111183 S    
C79   H64   1.110868 S    
O19   C64   1.308909 A    
C3    C23   1.487877 S    
C36   H20   1.083137 S    
C11   C12   1.398036 A    
C27   H15   1.084281 S    
C59   H29   1.082117 S    
V3    O20   1.697942 S    
C40   H16   1.084030 S    
C5    C10   1.400452 A    
C37   C38   1.415824 A    
C6    H2    1.080561 S    
C82   H70   1.110625 S    
O25   C71   1.423015 S    
O7    V2    1.718577 S    
O4    V1    1.991595 S    
C18   C19   1.402363 A    
O3    V1    1.987171 S    
C76   H55   1.110835 S    
C70   H42   1.110573 S    
C52   O26   1.382123 S    
C75   H53   1.109977 S    
O14   C62   1.302690 A    
C65   C66   1.535400 S    
C45   C54   1.528996 S    
C38   C42   1.403024 A    
C12   C13   1.409253 A    
C55   H26   1.080694 S    
C5    C6    1.399097 A    
C37   H21   1.084072 S    
C15   C16   1.412605 A    
O24   C68   1.411441 S    
C9    C10   1.401514 A    
C56   H27   1.083261 S    
N1    O22   1.300873 A    
O11   V4    1.978851 S    
C51   C52   1.411399 A    
C33   C41   1.409592 A    
C77   C78   1.528877 S    
C27   C28   1.411508 A    
C74   H51   1.110267 S    
C68   H38   1.116223 S    
C73   H48   1.111008 S    
V1    O10   1.697866 S    
C50   O25   1.392532 S    
C65   H30   1.111175 S    
O9    C4    1.300822 A    
C53   C54   1.422711 A    
C25   H12   1.081758 S    
C6    C7    1.406031 A    
C32   H13   1.083807 S    
C30   N1    1.434326 S    
