data_mof_unit_53800.cif
_audit_creation_date              2012-12-11T15:33:40-0500
_audit_creation_method            fapswitch 2.2
_symmetry_space_group_name_H-M    P1
_symmetry_Int_Tables_number       1
_space_group_crystal_system       triclinic
_cell_length_a                    27.492489
_cell_length_b                    7.202021
_cell_length_c                    22.264701
_cell_angle_alpha                 88.451115
_cell_angle_beta                  101.533198
_cell_angle_gamma                 88.713736
_cell_volume                      4316.10872641

loop_
_atom_site_label
_atom_site_type_symbol
_atom_type_description
_atom_site_fract_x
_atom_site_fract_y
_atom_site_fract_z
_atom_type_partial_charge
O1    O     O_R   0.207310 0.594030 0.676830 -0.520687
O2    O     O_R   0.792690 0.405970 0.323170 -0.525923
O3    O     O_R   0.292690 0.094030 0.823170 -0.539380
O4    O     O_R   0.707310 0.905970 0.176830 -0.513706
O5    O     O_R   0.197320 0.262370 0.795700 -0.556612
O6    O     O_R   0.802680 0.737630 0.204300 -0.549666
O7    O     O_R   0.302680 0.762370 0.704300 -0.546207
O8    O     O_R   0.697320 0.237630 0.295700 -0.548655
C1    C     C_R   0.184789 0.433352 0.812105 0.691259
C2    C     C_R   0.815235 0.567193 0.188078 0.726245
C3    C     C_R   0.315788 0.932751 0.688710 0.727820
C4    C     C_R   0.684106 0.067373 0.311150 0.745206
O9    O     O_R   0.201410 0.264250 0.675590 -0.516655
O10   O     O_R   0.798590 0.735750 0.324410 -0.520746
O11   O     O_R   0.298590 0.764250 0.824410 -0.513099
O12   O     O_R   0.701410 0.235750 0.175590 -0.531514
O13   O     O_R   0.296810 0.094940 0.702210 -0.508464
O14   O     O_R   0.703190 0.905060 0.297790 -0.512305
O15   O     O_R   0.203190 0.594940 0.797790 -0.511822
O16   O     O_R   0.796810 0.405060 0.202210 -0.510112
C5    C     C_R   0.190353 0.437369 0.651574 0.690504
C6    C     C_R   0.809907 0.562037 0.348196 0.689101
C7    C     C_R   0.310327 0.928205 0.848209 0.692153
C8    C     C_R   0.689770 0.070088 0.152104 0.698820
O17   O     O_3   0.281300 0.427390 0.758870 -0.369410
O18   O     O_3   0.718700 0.572610 0.241130 -0.375905
O19   O     O_3   0.218700 0.927390 0.741130 -0.369746
O20   O     O_3   0.781300 0.072610 0.258870 -0.374001
V1    V     V_3+5 0.244190 0.152150 0.748350 1.444861
V2    V     V_3+5 0.755810 0.847850 0.251650 1.467720
V3    V     V_3+5 0.255810 0.652150 0.751650 1.475213
V4    V     V_3+5 0.744190 0.347850 0.248350 1.461838
C9    C     C_R   0.653816 0.067531 0.091702 -0.132256
C10   C     C_R   0.347122 0.919268 0.908697 -0.166083
C11   C     C_R   0.845253 0.525441 0.409013 -0.132519
C12   C     C_R   0.156613 0.463647 0.589158 -0.142494
C13   C     C_R   0.635586 0.040584 0.980257 -0.044026
C14   C     C_R   0.375995 0.790313 0.013265 -0.041115
C15   C     C_R   0.865207 0.317937 0.500900 -0.044847
C16   C     C_R   0.141421 0.574649 0.481273 -0.053585
C17   C     C_R   0.669325 0.018975 0.037293 -0.078145
C18   C     C_R   0.343843 0.783550 0.955232 -0.092265
C19   C     C_R   0.830216 0.411303 0.454154 -0.046464
C20   C     C_R   0.173387 0.549312 0.539410 -0.073300
C21   C     C_R   0.602855 0.105077 0.088769 -0.151242
C22   C     C_R   0.389177 0.032453 0.918086 -0.124024
C23   C     C_R   0.896397 0.554658 0.414960 -0.134621
C24   C     C_R   0.106360 0.416769 0.580160 -0.139670
C25   C     C_R   0.566702 0.080151 0.033953 0.053445
C26   C     C_R   0.428828 0.004192 0.970380 0.058755
C27   C     C_R   0.933372 0.455439 0.460030 0.057330
C28   C     C_R   0.072555 0.445147 0.522391 0.055847
C29   C     C_R   0.584334 0.082121 0.978636 -0.037660
C30   C     C_R   0.416873 0.910943 0.021739 -0.029007
C31   C     C_R   0.917219 0.342362 0.505440 -0.035720
C32   C     C_R   0.089862 0.535144 0.473341 -0.043730
C33   C     C_R   0.514572 0.047326 0.031803 -0.060530
C34   C     C_R   0.479951 0.055604 0.973290 -0.061876
C35   C     C_R   0.986005 0.467474 0.461555 -0.071680
C36   C     C_R   0.021182 0.395705 0.513625 -0.070985
C37   C     C_R   0.499013 0.094974 0.919203 0.246806
C38   C     C_R   0.496703 0.987552 0.085087 0.255443
C39   C     C_R   0.004472 0.266856 0.553483 0.237223
C40   C     C_R   0.004857 0.536667 0.410863 0.244059
C41   C     C_R   0.550314 0.118490 0.922858 0.224404
C42   C     C_R   0.447360 0.931397 0.079930 0.243910
C43   C     C_R   0.953414 0.252058 0.552831 0.214762
C44   C     C_R   0.055213 0.583003 0.417911 0.216613
H1    H     H_    0.390739 0.137867 0.883272 0.179569
H2    H     H_    0.592381 0.152279 0.130056 0.154326
H3    H     H_    0.093464 0.372095 0.620754 0.138266
H4    H     H_    0.906210 0.655356 0.383106 0.150208
C45   C     C_R   0.646075 0.909393 0.393115 0.264752
C46   C     C_R   0.352472 0.091501 0.605599 0.259970
C47   C     C_R   0.851167 0.416893 0.104177 0.259113
C48   C     C_R   0.145345 0.592114 0.892607 0.296730
C49   C     C_R   0.610268 0.901384 0.429890 -0.184318
C50   C     C_R   0.387674 0.099433 0.567929 -0.174812
C51   C     C_R   0.886322 0.409556 0.066367 -0.177297
C52   C     C_R   0.108691 0.600165 0.928310 -0.192072
H5    H     H_    0.612724 0.787472 0.463242 0.155725
H6    H     H_    0.384908 0.213469 0.534571 0.155595
H7    H     H_    0.883379 0.302503 0.032675 0.156734
H8    H     H_    0.110178 0.709759 0.960959 0.149476
C53   C     C_R   0.571602 0.034824 0.423444 -0.018290
C54   C     C_R   0.426359 0.966171 0.573798 -0.017367
C55   C     C_R   0.925095 0.535022 0.072361 -0.018287
C56   C     C_R   0.070609 0.472049 0.922179 -0.015412
C57   C     C_R   0.569954 0.180310 0.379370 -0.127819
C58   C     C_R   0.428559 0.820718 0.617999 -0.121737
C59   C     C_R   0.927468 0.672050 0.116779 -0.126905
C60   C     C_R   0.069886 0.332486 0.878955 -0.132975
H9    H     H_    0.540617 0.286104 0.372954 0.148389
H10   H     H_    0.457938 0.715164 0.624009 0.147886
H11   H     H_    0.956888 0.771401 0.122866 0.148333
H12   H     H_    0.040819 0.231687 0.872507 0.147757
C61   C     C_R   0.606216 0.190600 0.342840 -0.255179
C62   C     C_R   0.392888 0.810167 0.655279 -0.253901
C63   C     C_R   0.891965 0.682096 0.154220 -0.248260
C64   C     C_R   0.106743 0.321417 0.843358 -0.254391
H13   H     H_    0.603661 0.303211 0.309050 0.129716
H14   H     H_    0.395934 0.697703 0.689198 0.127956
H15   H     H_    0.895176 0.787971 0.188293 0.128720
H16   H     H_    0.104591 0.214000 0.809913 0.130332
C65   C     C_R   0.644912 0.055644 0.349208 -0.089432
C66   C     C_R   0.354261 0.944948 0.649659 -0.093131
C67   C     C_R   0.853278 0.555181 0.148539 -0.091102
C68   C     C_R   0.145498 0.448538 0.850050 -0.066511
N1    N     N_R   0.495406 0.144406 0.457685 -0.280782
N2    N     N_R   0.502264 0.856732 0.539151 -0.279825
N3    N     N_R   0.000477 0.640515 0.037338 -0.280593
N4    N     N_R   0.994624 0.366603 0.956376 -0.280395
N5    N     N_R   0.461589 0.127211 0.492797 -0.282243
N6    N     N_R   0.536063 0.873919 0.504056 -0.282128
N7    N     N_R   0.034307 0.624900 0.002247 -0.282720
N8    N     N_R   0.960750 0.382262 0.991488 -0.281269
C69   C     C_R   0.464180 0.983087 0.534333 0.534697
C70   C     C_R   0.533509 0.018023 0.462545 0.535285
C71   C     C_R   0.032263 0.487719 0.960983 0.536219
C72   C     C_R   0.962864 0.519477 0.032793 0.535903
N9    N     N_2   0.568010 0.185061 0.870379 -0.526664
H17   H     H_    0.551396 0.134557 0.828665 0.274048
C73   C     C_3   0.575168 0.383308 0.868690 -0.467107
H18   H     H_    0.591916 0.421561 0.828801 0.219755
H19   H     H_    0.600742 0.425064 0.911091 0.231889
H20   H     H_    0.538965 0.459678 0.864152 0.173658
N10   N     N_2   0.427526 0.897819 0.133696 -0.524119
H21   H     H_    0.450867 0.833795 0.170749 0.271301
C74   C     C_3   0.398866 0.052555 0.149941 -0.481260
H22   H     H_    0.382126 0.010902 0.189525 0.206774
H23   H     H_    0.368357 0.094947 0.110884 0.224502
H24   H     H_    0.423181 0.172268 0.162852 0.200950
N11   N     N_2   0.938887 0.149204 0.601590 -0.513582
H25   H     H_    0.954187 0.016750 0.609937 0.274228
C75   C     C_3   0.939187 0.252936 0.656417 -0.520121
H26   H     H_    0.923909 0.166869 0.690013 0.214331
H27   H     H_    0.915641 0.381553 0.645274 0.229299
H28   H     H_    0.977629 0.290739 0.677588 0.174255
N12   N     N_2   0.070106 0.686300 0.369466 -0.508161
H29   H     H_    0.060267 0.631710 0.326550 0.279712
C76   C     C_3   0.061293 0.885061 0.370354 -0.541463
H30   H     H_    0.076050 0.954503 0.332888 0.218700
H31   H     H_    0.080676 0.940012 0.414619 0.219422
H32   H     H_    0.020908 0.918777 0.363778 0.174022
C77   C     C_2   0.310537 0.623446 0.943285 0.786522
O21   O     O_2   0.277496 0.603175 0.971980 -0.552993
O22   O     O_R   0.320466 0.485661 0.904021 -0.647803
H33   H     H_    0.296323 0.380452 0.901357 0.291601
C78   C     C_2   0.719076 0.931601 0.039764 0.729765
O23   O     O_2   0.747343 0.998250 0.009632 -0.547614
O24   O     O_R   0.732200 0.765472 0.073500 -0.652185
H34   H     H_    0.765700 0.713631 0.068610 0.286356
C79   C     C_2   0.223747 0.624580 0.547383 0.748553
O25   O     O_2   0.253823 0.557984 0.519770 -0.565109
O26   O     O_R   0.234305 0.786658 0.579773 -0.641024
H35   H     H_    0.267092 0.838940 0.574458 0.288554
C80   C     C_2   0.777111 0.383806 0.453209 0.743931
O27   O     O_2   0.755425 0.484744 0.483005 -0.544635
O28   O     O_R   0.754065 0.228697 0.425375 -0.657432
H36   H     H_    0.719308 0.215395 0.433430 0.285299
C81   C     C_2   0.652459 0.987978 0.923533 0.870173
O29   O     O_2   0.636369 0.849175 0.896816 -0.566438
O30   O     O_R   0.685749 0.099527 0.900216 -0.622153
H37   H     H_    0.694056 0.050221 0.861142 0.313320
C82   C     C_2   0.372195 0.646288 0.061191 0.838339
O31   O     O_2   0.405628 0.529339 0.076707 -0.576185
O32   O     O_R   0.330887 0.646935 0.088960 -0.626704
H38   H     H_    0.332752 0.542741 0.120951 0.303281
C83   C     C_2   0.845602 0.179011 0.539902 0.866840
O33   O     O_2   0.850565 0.013141 0.531450 -0.539723
O34   O     O_R   0.820375 0.238833 0.584800 -0.639726
H39   H     H_    0.808507 0.131535 0.608001 0.309706
C84   C     C_2   0.163939 0.636138 0.428958 0.894211
O35   O     O_2   0.166968 0.528645 0.388187 -0.532960
O36   O     O_R   0.182289 0.815256 0.427120 -0.650579
H40   H     H_    0.196794 0.840428 0.389366 0.312817
N13   N     N_2   0.468002 0.090279 0.859849 -0.544269
H41   H     H_    0.471600 0.199330 0.830241 0.260204
C85   C     C_3   0.465599 0.910381 0.831960 -0.565028
H42   H     H_    0.437523 0.917275 0.788473 0.194006
H43   H     H_    0.454386 0.802990 0.862901 0.215336
H44   H     H_    0.502171 0.868717 0.821819 0.206661
N14   N     N_2   0.529321 0.961455 0.143183 -0.548820
H45   H     H_    0.516590 0.015037 0.179845 0.260711
C86   C     C_3   0.552187 0.777428 0.155213 -0.549792
H46   H     H_    0.579785 0.775500 0.199114 0.190186
H47   H     H_    0.571818 0.739384 0.118063 0.221834
H48   H     H_    0.523809 0.672479 0.158636 0.203284
N15   N     N_2   0.038685 0.134340 0.588965 -0.537072
H49   H     H_    0.033145 0.100953 0.632314 0.254833
C87   C     C_3   0.050314 0.975097 0.555610 -0.513967
H50   H     H_    0.079102 0.885320 0.585635 0.204107
H51   H     H_    0.065165 0.020822 0.514955 0.212685
H52   H     H_    0.016594 0.892620 0.540591 0.187902
N16   N     N_2   0.974815 0.537166 0.350620 -0.543390
H53   H     H_    0.978537 0.647375 0.321590 0.259319
C88   C     C_3   0.972265 0.359302 0.321682 -0.556497
H54   H     H_    0.945627 0.370302 0.277008 0.198144
H55   H     H_    0.959086 0.251884 0.350979 0.208310
H56   H     H_    0.009406 0.316252 0.313516 0.201773
N17   N     N_2   0.683706 0.768788 0.401098 -0.506114
H57   H     H_    0.700986 0.748434 0.446324 0.301411
C89   C     C_3   0.667340 0.598150 0.371814 -0.425872
H58   H     H_    0.646034 0.517635 0.400554 0.179307
H59   H     H_    0.700107 0.515042 0.365700 0.216831
H60   H     H_    0.643900 0.626610 0.325495 0.173948
N18   N     N_2   0.315257 0.233679 0.599002 -0.519361
H61   H     H_    0.297001 0.256210 0.554197 0.292948
C90   C     C_3   0.332780 0.402741 0.628491 -0.406687
H62   H     H_    0.355203 0.479617 0.600243 0.185825
H63   H     H_    0.355527 0.372241 0.675074 0.176127
H64   H     H_    0.300593 0.490463 0.633905 0.214015
N19   N     N_2   0.813422 0.283911 0.096984 -0.518158
H65   H     H_    0.794804 0.275545 0.052184 0.293902
C91   C     C_3   0.830349 0.104152 0.124760 -0.416184
H66   H     H_    0.853160 0.031000 0.096309 0.183771
H67   H     H_    0.797874 0.020200 0.128426 0.210973
H68   H     H_    0.852547 0.118540 0.171883 0.177719
N20   N     N_2   0.182735 0.727104 0.901847 -0.499932
H69   H     H_    0.195978 0.747248 0.947815 0.293804
C92   C     C_3   0.167276 0.903648 0.870922 -0.483010
H70   H     H_    0.137578 0.969419 0.891093 0.176462
H71   H     H_    0.153274 0.885927 0.821117 0.205643
H72   H     H_    0.199465 0.996347 0.877080 0.202415

loop_
_geom_bond_atom_site_label_1
_geom_bond_atom_site_label_2
_ccdc_geom_bond_type
O17   V3    S    
C14   C82   S    
C63   H15   S    
O34   H39   S    
O1    C5    A    
C82   O31   D    
C55   C59   A    
O19   V1    S    
C9    C21   A    
C83   O33   D    
O3    C7    A    
O22   H33   S    
C10   C18   A    
C60   H12   S    
N14   H45   S    
C11   C23   A    
C51   C55   A    
C81   O29   D    
C86   H46   S    
C25   C33   A    
C73   H18   S    
C5    C12   S    
C84   O35   D    
C1    C68   S    
O7    C3    A    
C6    C11   S    
C89   H59   S    
C35   C40   A    
C80   O27   D    
C36   C39   A    
C20   C79   S    
C40   C44   A    
O9    V1    S    
C43   N11   S    
C14   C18   A    
C92   H72   S    
C78   O24   S    
C77   O21   D    
C16   C84   S    
O4    C8    A    
C73   H19   S    
C17   C78   S    
C48   N20   S    
C40   N16   S    
O1    V3    S    
C90   H64   S    
O13   V1    S    
C42   N10   S    
O2    V4    S    
N17   H57   S    
O3    V1    S    
C22   H1    S    
C28   C36   A    
C53   C70   S    
C77   O22   S    
C38   N14   S    
C1    O15   A    
C64   H16   S    
C15   C31   A    
C56   C60   A    
C2    O16   A    
C19   C80   S    
C16   C32   A    
O2    C6    A    
O24   H34   S    
C10   C22   A    
C41   N9    S    
C79   O26   S    
C11   C19   A    
N2    N6    A    
C16   C20   A    
C91   H67   S    
N1    N5    A    
C85   H44   S    
C13   C29   A    
C50   C54   A    
C34   C37   A    
O11   C7    A    
O15   V3    S    
C35   C36   A    
C48   C68   A    
C75   H27   S    
C52   C56   A    
C57   H9    S    
N17   C89   S    
C2    C67   S    
N15   H49   S    
O10   V2    S    
N2    C69   A    
C81   O30   S    
N1    C70   A    
C58   H10   S    
O5    V1    S    
C46   N18   S    
C84   O36   S    
C89   H60   S    
C39   C43   A    
C64   C68   A    
O7    V3    S    
C38   C42   A    
C87   H50   S    
C26   C34   A    
C47   C67   A    
C75   H26   S    
C90   H62   S    
C54   C58   A    
C91   H68   S    
O32   H38   S    
C53   C57   A    
O18   V4    S    
C86   H48   S    
C15   C19   A    
N13   C85   S    
C32   C44   A    
C45   N17   S    
C47   N19   S    
C76   H32   S    
N8    C72   A    
C57   C61   A    
N3    C72   A    
C76   H31   S    
O8    V4    S    
C80   O28   S    
C88   H56   S    
C91   H66   S    
N10   C74   S    
O5    C1    A    
C92   H70   S    
C46   C66   A    
N14   C86   S    
C50   H6    S    
C45   C65   A    
O28   H36   S    
C14   C30   A    
N19   H65   S    
C37   N13   S    
O8    C4    A    
C7    C10   S    
C3    C66   S    
C87   H51   S    
O9    C5    A    
C26   C30   A    
C56   C71   S    
N9    H17   S    
N6    C70   A    
C75   H28   S    
N5    C69   A    
C55   C72   S    
O6    V2    S    
N13   H41   S    
N7    C71   A    
N11   H25   S    
N16   C88   S    
C12   C20   A    
C27   C35   A    
C33   C38   A    
C24   H3    S    
N10   H21   S    
N4    N8    A    
N9    C73   S    
C29   C41   A    
C60   C64   A    
C13   C81   S    
C74   H22   S    
O16   V4    S    
N20   H69   S    
C3    O13   A    
C45   C49   A    
C21   H2    S    
C48   C52   A    
C39   N15   S    
C73   H20   S    
C82   O32   S    
O6    C2    A    
N4    C71   A    
C23   C27   A    
N12   H29   S    
O11   V3    S    
C30   C42   A    
C85   H42   S    
O12   V4    S    
C63   C67   A    
C22   C26   A    
C8    C9    S    
C62   C66   A    
C92   H71   S    
C9    C17   A    
C74   H24   S    
C88   H55   S    
C79   O25   D    
N19   C91   S    
C61   C65   A    
C31   C43   A    
C15   C83   S    
O36   H40   S    
C62   H14   S    
C76   H30   S    
C52   H8    S    
C51   H7    S    
N12   C76   S    
O10   C6    A    
C33   C34   A    
C4    C65   S    
C25   C29   A    
O20   V2    S    
C90   H63   S    
C21   C25   A    
C12   C24   A    
C54   C69   S    
C27   C31   A    
N20   C92   S    
C13   C17   A    
C88   H54   S    
C61   H13   S    
C23   H4    S    
C87   H52   S    
O30   H37   S    
C86   H47   S    
O14   V2    S    
C49   C53   A    
N16   H53   S    
C37   C41   A    
C24   C28   A    
C59   H11   S    
O12   C8    A    
C49   H5    S    
C46   C50   A    
C4    O14   A    
O26   H35   S    
N18   C90   S    
N11   C75   S    
N18   H61   S    
C44   N12   S    
N3    N7    A    
C89   H58   S    
C74   H23   S    
C59   C63   A    
C78   O23   D    
C18   C77   S    
C47   C51   A    
C58   C62   A    
O4    V2    S    
C28   C32   A    
N15   C87   S    
C85   H43   S    
C83   O34   S    
