data_mof_unit_36013.cif
_audit_creation_date              2012-12-11T15:53:47-0500
_audit_creation_method            fapswitch 2.2
_symmetry_space_group_name_H-M    P1
_symmetry_Int_Tables_number       1
_space_group_crystal_system       triclinic
_cell_length_a                    10.669224
_cell_length_b                    10.671598
_cell_length_c                    16.873282
_cell_angle_alpha                 80.911309
_cell_angle_beta                  99.346838
_cell_angle_gamma                 118.584468
_cell_volume                      1657.434497

loop_
_atom_site_label
_atom_site_type_symbol
_atom_type_description
_atom_site_fract_x
_atom_site_fract_y
_atom_site_fract_z
_atom_type_partial_charge
C1    C     C_R   0.360807 0.228093 0.627130 0.541619
C2    C     C_R   0.517273 0.710880 0.736138 -0.155007
C3    C     C_R   0.494578 0.726897 0.812457 -0.136469
C4    C     C_3   0.098097 0.480478 0.774220 -0.255006
C5    C     C_3   0.123134 0.461888 0.691842 -0.248845
C6    C     C_R   0.402512 0.615462 0.686946 0.006216
C7    C     C_1   0.852491 0.670651 0.702147 -0.056375
C8    C     C_1   0.899970 0.704965 0.769125 -0.058984
C9    C     C_1   0.345452 0.187504 0.709731 -0.036663
C10   C     C_1   0.321239 0.160735 0.778467 -0.035655
C11   C     C_1   0.317977 0.682633 0.280575 -0.038406
C12   C     C_R   0.414922 0.619489 0.601716 0.572172
C13   C     C_1   0.296921 0.706701 0.209770 -0.030908
C14   C     C_R   0.790991 0.645000 0.147457 0.009620
C15   C     C_R   0.767506 0.517258 0.195311 0.059747
C16   C     C_R   0.728155 0.493121 0.271751 0.042353
C17   C     C_R   0.700841 0.707635 0.250022 -0.122196
C18   C     C_R   0.740839 0.731951 0.171269 -0.144588
C19   C     C_3   0.863032 0.447786 0.219408 -0.264454
C20   C     C_3   0.820551 0.422507 0.303648 -0.264737
C21   C     C_R   0.710169 0.595498 0.303509 -0.000970
C22   C     C_R   0.268623 0.053692 0.182600 -0.054282
C23   C     C_R   0.782220 0.621721 0.625795 0.554310
C24   C     C_R   0.154464 0.041245 0.218844 -0.078823
C25   C     C_R   0.172455 0.073250 0.296738 0.039449
C26   C     C_R   0.407295 0.088972 0.316179 0.259529
C27   C     C_R   0.393358 0.065067 0.234577 0.221553
C28   C     C_3   0.049530 0.098663 0.192807 -0.210274
C29   C     C_3   0.065738 0.129411 0.279748 0.164587
C30   C     C_R   0.306252 0.119554 0.341817 -0.052079
C31   C     C_R   0.949203 0.725437 0.851783 0.557460
C32   C     C_R   0.316642 0.705029 0.899029 0.544693
C33   C     C_R   0.285076 0.115704 0.858196 0.556360
C34   C     C_R   0.347747 0.218563 0.402915 0.543806
C35   C     C_R   0.881294 0.688240 0.081874 0.541092
C36   C     C_R   0.284817 0.738891 0.125538 0.555530
C37   C     C_R   0.248528 0.040193 0.095697 0.571152
C38   C     C_R   0.362252 0.657046 0.361948 0.537551
C39   C     C_R   0.699533 0.582138 0.389617 0.581677
C40   C     C_R   0.356298 0.648719 0.839211 0.014938
C41   C     C_R   0.254848 0.532158 0.797662 0.016171
C42   C     C_R   0.277911 0.515546 0.722633 0.020424
Cr1   Cr    Cr6+3 0.608440 0.389080 0.519680 1.014365
Cr2   Cr    Cr6+3 0.288640 0.400090 0.490760 1.000446
Cr3   Cr    Cr6+3 0.602940 0.710800 0.489510 0.996460
Cr4   Cr    Cr6+3 0.052530 0.947560 0.964210 1.006675
Cr5   Cr    Cr6+3 0.059970 0.626800 0.992920 1.009569
Cr6   Cr    Cr6+3 0.373320 0.938440 0.995370 1.063927
H1    H     H_    0.619847 0.781711 0.713117 0.141513
H2    H     H_    0.822767 0.348006 0.189626 0.181860
H3    H     H_    0.757020 0.307731 0.323536 0.209031
H4    H     H_    0.912315 0.484752 0.347170 0.151357
H5    H     H_    0.941651 0.015753 0.172577 0.163943
H6    H     H_    0.092395 0.198176 0.151058 0.124686
H7    H     H_    0.111842 0.245912 0.286993 0.123720
H8    H     H_    0.580259 0.811859 0.845694 0.150555
H9    H     H_    0.065738 0.565425 0.772527 0.146531
H10   H     H_    0.031588 0.377348 0.808568 0.153971
H11   H     H_    0.071424 0.347905 0.678752 0.154235
H12   H     H_    0.104248 0.535834 0.642906 0.156316
H13   H     H_    0.674223 0.782302 0.270599 0.188126
H14   H     H_    0.743237 0.823485 0.132122 0.142075
H15   H     H_    0.978767 0.523596 0.215705 0.139695
O1    O     O_R   0.754020 0.497590 0.609930 -0.503309
O2    O     O_R   0.295080 0.533620 0.397890 -0.505478
O3    O     O_R   0.485280 0.746620 0.388440 -0.527537
O4    O     O_R   0.720550 0.696220 0.420010 -0.477535
O5    O     O_3   0.500010 0.499990 0.499980 -0.296670
O6    O     O_R   0.163320 0.092900 0.874450 -0.511260
O7    O     O_R   0.934650 0.822080 0.882840 -0.488448
O8    O     O_R   0.915520 0.604140 0.893670 -0.498860
O9    O     O_R   0.191760 0.638110 0.923230 -0.507851
O10   O     O_R   0.406180 0.826930 0.920660 -0.517281
O11   O     O_R   0.358620 0.062870 0.901950 -0.489497
O12   O     O_R   0.481420 0.271390 0.600630 -0.501899
O13   O     O_R   0.163910 0.085460 0.050210 -0.512314
O14   O     O_R   0.935200 0.815170 0.045770 -0.518119
O15   O     O_R   0.916120 0.596690 0.069430 -0.515630
O16   O     O_R   0.192310 0.631200 0.086170 -0.509431
O17   O     O_R   0.406770 0.819480 0.096420 -0.455524
O18   O     O_R   0.359170 0.055960 0.064880 -0.440457
O19   O     O_3   0.161940 0.837600 0.984160 -0.319265
O20   O     O_R   0.263810 0.254550 0.589590 -0.516477
O21   O     O_R   0.300820 0.531200 0.560890 -0.501135
O22   O     O_R   0.491480 0.744020 0.564270 -0.548028
O23   O     O_R   0.726290 0.693800 0.583010 -0.510312
O24   O     O_R   0.747830 0.500190 0.434090 -0.511092
O25   O     O_R   0.475680 0.273800 0.437630 -0.486429
O26   O     O_R   0.257620 0.257160 0.413750 -0.515533
O27   O     O_3   0.530536 0.103694 0.364998 -0.562725
C43   C     C_3   0.494615 0.006590 0.435176 -0.054896
H16   H     H_    0.393180 0.905540 0.425631 0.127646
H17   H     H_    0.486237 0.056273 0.485570 0.132459
H18   H     H_    0.583354 0.979079 0.455312 0.160222
Cl1   Cl    Cl    0.542158 0.066102 0.201017 -0.621997
O28   O     O_3   0.943276 0.034923 0.319998 -0.548320
C44   C     C_3   0.860859 0.104027 0.323530 -0.093909
H19   H     H_    0.832586 0.144966 0.262297 0.154432
H20   H     H_    0.918666 0.192332 0.363679 0.109913
H21   H     H_    0.759588 0.025235 0.349203 0.196208

loop_
_geom_bond_atom_site_label_1
_geom_bond_atom_site_label_2
_ccdc_geom_bond_type
C5    C42   S    
C16   C21   A    
C41   C42   A    
C14   C18   A    
C27   Cl1   S    
C19   C20   S    
Cr5   O16   S    
Cr2   O20   S    
Cr4   O13   S    
C44   H19   S    
C7    C8    T    
C32   O9    A    
C15   C19   S    
C26   C27   A    
C12   O22   A    
Cr1   O25   S    
C28   C29   S    
C20   H3    S    
C6    C12   S    
C4    C41   S    
C15   C16   A    
Cr6   O18   S    
C12   O21   A    
Cr5   O19   S    
Cr4   O6    S    
C17   H13   S    
Cr4   O19   S    
C31   O7    A    
C38   O3    A    
C19   H15   S    
Cr1   O5    S    
C23   O23   A    
C4    H9    S    
Cr3   O4    S    
C39   O24   A    
C9    C10   T    
C33   O6    A    
C31   O8    A    
Cr1   O12   S    
C37   O18   A    
Cr2   O2    S    
C2    C6    A    
C44   H20   S    
Cr1   O1    S    
C25   C29   S    
C5    H11   S    
C1    O12   A    
Cr6   O11   S    
C1    C9    S    
C24   C25   A    
C13   C36   S    
C36   O17   A    
C43   H16   S    
C30   C34   S    
C18   H14   S    
C29   H7    S    
C22   C37   S    
C35   O14   A    
C17   C21   A    
C11   C38   S    
Cr3   O22   S    
C2    H1    S    
C43   H17   S    
C3    H8    S    
C21   C39   S    
C38   O2    A    
C16   C20   S    
O28   C44   S    
Cr3   O5    S    
C17   C18   A    
C34   O25   A    
Cr5   O8    S    
C23   O1    A    
C37   O13   A    
C3    C40   A    
C26   C30   A    
C22   C27   A    
C22   C24   A    
Cr2   O5    S    
C26   O27   S    
C14   C35   S    
C44   H21   S    
C25   C30   A    
C40   C41   A    
C28   H6    S    
C5    H12   S    
C8    C31   S    
C39   O4    A    
Cr6   O10   S    
C24   C28   S    
C4    C5    S    
Cr2   O21   S    
C36   O16   A    
C29   O28   S    
C28   H5    S    
C1    O20   A    
Cr4   O14   S    
C35   O15   A    
Cr1   O24   S    
Cr6   O17   S    
C2    C3    A    
C34   O26   A    
C20   H4    S    
C43   H18   S    
C11   C13   T    
C19   H2    S    
O27   C43   S    
C7    C23   S    
Cr6   O19   S    
Cr3   O23   S    
C10   C33   S    
C32   C40   S    
Cr5   O9    S    
Cr4   O7    S    
C33   O11   A    
C6    C42   A    
C4    H10   S    
Cr3   O3    S    
C14   C15   A    
Cr5   O15   S    
C32   O10   A    
Cr2   O26   S    
