data_mof_unit_47155.cif
_audit_creation_date              2012-12-10T17:33:40-0500
_audit_creation_method            fapswitch 2.2
_symmetry_space_group_name_H-M    P1
_symmetry_Int_Tables_number       1
_space_group_crystal_system       triclinic
_cell_length_a                    11.678219
_cell_length_b                    12.387707
_cell_length_c                    13.185437
_cell_angle_alpha                 116.676836
_cell_angle_beta                  77.8129
_cell_angle_gamma                 100.805525
_cell_volume                      1656.62032131

loop_
_atom_site_label
_atom_site_type_symbol
_atom_type_description
_atom_site_fract_x
_atom_site_fract_y
_atom_site_fract_z
_atom_type_partial_charge
C1    C     C_R   0.506662 0.854963 0.286860 0.776871
C2    C     C_R   0.460452 0.228282 0.835096 -0.047069
C3    C     C_R   0.554980 0.816560 0.081824 -0.181261
C4    C     C_R   0.570692 0.738367 0.966045 -0.151218
C5    C     C_R   0.539624 0.614261 0.930277 -0.180960
C6    C     C_R   0.485691 0.566016 0.010141 0.080403
C7    C     C_R   0.456760 0.648136 0.126659 0.084836
C8    C     C_R   0.456933 0.439105 0.977658 0.070680
C9    C     C_R   0.388014 0.397267 0.057908 0.170794
C10   C     C_R   0.347021 0.480531 0.167473 -0.251169
C11   C     C_R   0.379492 0.603947 0.201012 -0.199414
C12   C     C_R   0.715552 0.999399 0.499706 0.818037
C13   C     C_R   0.495662 0.352211 0.867910 -0.238288
C14   C     C_R   0.393431 0.188261 0.915462 -0.192908
C15   C     C_R   0.503281 0.772509 0.164048 -0.111697
C16   C     C_R   0.703332 0.361406 0.350286 -0.340072
C17   C     C_R   0.345759 0.762991 0.649258 0.085742
C18   C     C_R   0.319081 0.672909 0.688801 -0.290903
C19   C     C_R   0.380636 0.570801 0.635377 -0.172814
C20   C     C_R   0.467319 0.556003 0.539249 0.002931
C21   C     C_R   0.497179 0.654700 0.507167 0.273263
C22   C     C_R   0.529373 0.449861 0.477332 -0.111938
C23   C     C_R   0.483278 0.145066 0.713411 0.796014
C24   C     C_R   0.632523 0.455664 0.401216 0.094829
C25   C     C_R   0.663504 0.554462 0.373954 -0.235505
C26   C     C_R   0.594335 0.649531 0.422298 -0.173868
C27   C     C_R   0.491249 0.335960 0.483019 0.562634
C28   C     C_R   0.672034 0.259278 0.372296 0.105372
C29   C     C_R   0.284440 0.000396 0.500104 0.809725
C30   C     C_1   0.837254 0.998735 0.499611 -0.150643
C31   C     C_1   0.939968 0.999095 0.499496 0.012957
C32   C     C_1   0.060033 0.999928 0.499530 -0.007273
C33   C     C_1   0.162707 0.000453 0.499731 -0.199433
C34   C     C_R   0.358204 0.272401 0.026648 -0.187961
Cu1   Cu    Cu3+1 0.526510 0.098270 0.475420 0.988668
Cu2   Cu    Cu3+1 0.473490 0.901730 0.524580 0.923423
H1    H     H_    0.365146 0.092648 0.891503 0.150243
H2    H     H_    0.740709 0.557105 0.312401 0.152438
H3    H     H_    0.784335 0.367785 0.294033 0.158709
H4    H     H_    0.298467 0.842638 0.691830 0.129262
H5    H     H_    0.361160 0.505975 0.672100 0.198598
H6    H     H_    0.251641 0.682956 0.761817 0.153858
H7    H     H_    0.622583 0.718729 0.392829 0.205212
H8    H     H_    0.289191 0.450226 0.227618 0.154757
H9    H     H_    0.305289 0.239962 0.087398 0.130288
H10   H     H_    0.553473 0.378683 0.805759 0.151685
H11   H     H_    0.584471 0.911781 0.106658 0.206855
H12   H     H_    0.554895 0.559213 0.839083 0.132757
H13   H     H_    0.610096 0.773873 0.903593 0.151585
H14   H     H_    0.338762 0.663690 0.284456 0.180929
N1    N     N_R   0.566700 0.246290 0.438210 -0.259862
N2    N     N_R   0.434010 0.754320 0.561170 -0.208515
O1    O     O_R   0.533340 0.972510 0.318140 -0.548636
O2    O     O_R   0.488570 0.806530 0.359650 -0.613144
O3    O     O_R   0.685190 0.083000 0.479260 -0.558161
O4    O     O_R   0.640410 0.917020 0.520770 -0.596333
O5    O     O_R   0.511430 0.193470 0.640350 -0.565820
O6    O     O_R   0.466660 0.027490 0.681860 -0.591047
O7    O     O_R   0.359590 0.082980 0.479230 -0.552201
O8    O     O_R   0.314810 0.917000 0.520740 -0.587126
O9    O     O_3   0.374428 0.310510 0.522046 -0.609363
C35   C     C_3   0.306747 0.265163 0.430228 0.097167
H15   H     H_    0.237330 0.195797 0.442158 0.190730
H16   H     H_    0.358410 0.218336 0.343657 0.117627
C36   C     C_3   0.242959 0.363764 0.432318 -0.427816
H17   H     H_    0.200815 0.417133 0.521100 0.251325
H18   H     H_    0.306724 0.425263 0.402056 0.218264
C37   C     C_3   0.147358 0.308267 0.354713 -0.864050
H19   H     H_    0.185886 0.252213 0.265381 0.239280
H20   H     H_    0.104931 0.381700 0.355375 0.262374
H21   H     H_    0.079059 0.250359 0.385945 0.297873
C38   C     C_2   0.756761 0.168169 0.320240 0.912417
O10   O     O_2   0.851961 0.192733 0.354498 -0.629434
O11   O     O_R   0.732778 0.058485 0.226909 -0.781716
H22   H     H_    0.798929 0.004604 0.197940 0.316206

loop_
_geom_bond_atom_site_label_1
_geom_bond_atom_site_label_2
_ccdc_geom_bond_type
C16   C28   A    
C23   O6    A    
C21   C26   A    
C8    C13   A    
Cu1   O1    S    
Cu1   Cu2   S    
C7    C11   A    
Cu2   O6    S    
C18   H6    S    
C5    C6    A    
C28   N1    A    
C29   C33   S    
Cu1   O7    S    
C18   C19   A    
C2    C13   A    
C1    O1    A    
C35   H16   S    
C27   O9    S    
C37   H19   S    
C19   C20   A    
C8    C9    A    
C36   H18   S    
C1    C15   S    
C9    C10   A    
Cu2   N2    S    
C7    C15   A    
C16   C24   A    
C28   C38   S    
C17   N2    A    
C27   N1    A    
C26   H7    S    
C5    H12   S    
O11   H22   S    
Cu1   O3    S    
C29   O7    A    
C24   C25   A    
C38   O11   S    
C4    C5    A    
C6    C8    A    
C25   C26   A    
C10   H8    S    
C17   H4    S    
C1    O2    A    
C35   H15   S    
Cu2   O4    S    
C25   H2    S    
C31   C32   S    
C29   O8    A    
C36   C37   S    
C17   C18   A    
C34   H9    S    
C12   O4    A    
C20   C22   A    
C22   C27   A    
Cu1   N1    S    
C9    C34   A    
C22   C24   A    
C3    C4    A    
C3    C15   A    
C23   O5    A    
C35   C36   S    
C12   C30   S    
C38   O10   D    
Cu2   O8    S    
C14   C34   A    
C6    C7    A    
C4    H13   S    
Cu1   O5    S    
C32   C33   T    
C11   H14   S    
C14   H1    S    
C30   C31   T    
C37   H21   S    
C3    H11   S    
O9    C35   S    
C2    C14   A    
C12   O3    A    
Cu2   O2    S    
C10   C11   A    
C16   H3    S    
C20   C21   A    
C37   H20   S    
C36   H17   S    
C2    C23   S    
C13   H10   S    
C21   N2    A    
C19   H5    S    
