data_mof_unit_45821.cif
_audit_creation_date              2012-12-11T17:04:42-0500
_audit_creation_method            fapswitch 2.2
_symmetry_space_group_name_H-M    P1
_symmetry_Int_Tables_number       1
_space_group_crystal_system       triclinic
_cell_length_a                    17.37507
_cell_length_b                    24.320248
_cell_length_c                    14.885173
_cell_angle_alpha                 89.853983
_cell_angle_beta                  125.160474
_cell_angle_gamma                 90.201802
_cell_volume                      5142.28250148

loop_
_atom_site_label
_atom_site_type_symbol
_atom_type_description
_atom_site_fract_x
_atom_site_fract_y
_atom_site_fract_z
_atom_type_partial_charge
C1    C     C_R   0.852840 0.652614 0.906848 -0.162938
C2    C     C_R   0.150366 0.651853 0.094408 -0.150396
C3    C     C_R   0.352840 0.152614 0.906848 -0.162936
C4    C     C_R   0.650368 0.151853 0.094409 -0.150399
C5    C     C_R   0.819714 0.358389 0.006415 0.073392
C6    C     C_R   0.177843 0.353717 0.997049 0.071554
C7    C     C_R   0.319717 0.858385 0.006415 0.073397
C8    C     C_R   0.677844 0.853717 0.997049 0.071552
C9    C     C_R   0.066677 0.502575 0.368513 0.080024
C10   C     C_R   0.039404 0.503179 0.712750 0.072609
C11   C     C_R   0.566677 0.002578 0.368511 0.080022
C12   C     C_R   0.539404 0.003180 0.712752 0.072596
C13   C     C_R   0.674922 0.501840 0.703301 0.092731
C14   C     C_R   0.309165 0.500447 0.355258 0.122274
C15   C     C_R   0.174922 0.001840 0.703310 0.092703
C16   C     C_R   0.809167 0.000447 0.355257 0.122266
C17   C     C_3   0.499371 0.469463 0.619132 -0.348153
C18   C     C_3   0.463926 0.448559 0.502912 -0.369219
C19   C     C_3   0.999363 0.969478 0.619148 -0.348187
C20   C     C_3   0.963918 0.948557 0.502940 -0.369112
C21   C     C_3   0.435948 0.520718 0.567688 0.668978
C22   C     C_3   0.540338 0.482075 0.506391 0.669580
C23   C     C_3   0.935949 0.020736 0.567677 0.668969
C24   C     C_3   0.040339 0.982057 0.506408 0.669558
C25   C     C_3   0.401744 0.500128 0.453976 0.036928
C26   C     C_3   0.575909 0.502605 0.620934 0.020426
C27   C     C_3   0.901746 0.000128 0.453976 0.036932
C28   C     C_3   0.075910 0.002605 0.620939 0.020435
C29   C     C_3   0.478693 0.533199 0.456703 -0.344596
C30   C     C_3   0.513550 0.554247 0.572305 -0.365690
C31   C     C_3   0.978703 0.033183 0.456692 -0.344693
C32   C     C_3   0.013559 0.054250 0.572282 -0.365643
C33   C     C_R   0.769109 0.309380 0.110425 0.164801
C34   C     C_R   0.231044 0.306945 0.893574 0.162950
C35   C     C_R   0.269103 0.809382 0.110422 0.164798
C36   C     C_R   0.731049 0.806947 0.893576 0.162947
C37   C     C_R   0.747492 0.331045 0.011243 0.034734
C38   C     C_R   0.250305 0.326461 0.993044 0.036158
C39   C     C_R   0.247493 0.831042 0.011239 0.034733
C40   C     C_R   0.750307 0.826461 0.993046 0.036154
C41   C     C_R   0.659297 0.318160 0.914276 -0.206432
C42   C     C_R   0.338835 0.314391 0.090222 -0.205344
C43   C     C_R   0.159300 0.818156 0.914270 -0.206431
C44   C     C_R   0.838835 0.814390 0.090225 -0.205344
C45   C     C_R   0.906207 0.375655 0.095936 -0.146614
C46   C     C_R   0.089362 0.368026 0.906846 -0.144062
C47   C     C_R   0.406209 0.875652 0.095936 -0.146614
C48   C     C_R   0.589363 0.868026 0.906847 -0.144058
C49   C     C_R   0.108255 0.773351 0.913502 -0.200919
C50   C     C_R   0.892651 0.771824 0.090251 -0.202268
C51   C     C_R   0.608255 0.273353 0.913508 -0.200916
C52   C     C_R   0.392651 0.271825 0.090247 -0.202270
C53   C     C_R   0.145736 0.742186 0.009915 0.032107
C54   C     C_R   0.857452 0.742052 0.992974 0.030714
C55   C     C_R   0.645740 0.242186 0.009918 0.032109
C56   C     C_R   0.357451 0.242052 0.992972 0.030717
C57   C     C_R   0.218682 0.765383 0.109773 0.155940
C58   C     C_R   0.784600 0.765449 0.893450 0.163552
C59   C     C_R   0.718690 0.265380 0.109776 0.155934
C60   C     C_R   0.284595 0.265446 0.893447 0.163553
C61   C     C_3   0.304734 0.739999 0.208460 -0.516738
C62   C     C_3   0.701011 0.739983 0.791844 -0.523821
C63   C     C_3   0.804745 0.239993 0.208454 -0.516737
C64   C     C_3   0.201004 0.239978 0.791848 -0.523826
C65   C     C_3   0.859811 0.288091 0.209010 -0.521049
C66   C     C_3   0.142522 0.285119 0.792458 -0.527606
C67   C     C_3   0.359802 0.788095 0.209015 -0.521044
C68   C     C_3   0.642528 0.785125 0.792455 -0.527604
C69   C     C_R   0.096631 0.555115 0.618629 0.153491
C70   C     C_R   0.104286 0.554991 0.531599 0.175791
C71   C     C_R   0.596583 0.055123 0.618594 0.153484
C72   C     C_R   0.604239 0.055000 0.531565 0.175758
C73   C     C_R   0.088069 0.505381 0.659610 0.035021
C74   C     C_R   0.104037 0.505115 0.484575 0.069314
C75   C     C_R   0.588060 0.005389 0.659602 0.035025
C76   C     C_R   0.604030 0.005123 0.484570 0.069304
C77   C     C_R   0.115299 0.456792 0.634098 -0.218373
C78   C     C_R   0.123393 0.456644 0.545966 -0.194847
C79   C     C_R   0.615316 0.956804 0.634110 -0.218367
C80   C     C_R   0.623413 0.956657 0.545980 -0.194846
C81   C     C_3   0.043896 0.605147 0.481895 -0.528967
C82   C     C_3   0.035677 0.605255 0.577208 -0.518824
C83   C     C_3   0.543794 0.105133 0.481820 -0.528945
C84   C     C_3   0.535574 0.105240 0.577131 -0.518814
C85   C     C_R   0.049971 0.547393 0.303213 -0.133667
C86   C     C_R   0.016662 0.547978 0.749251 -0.143179
C87   C     C_R   0.549971 0.047394 0.303211 -0.133663
C88   C     C_R   0.516662 0.047979 0.749253 -0.143184
C89   C     C_R   0.729550 0.455464 0.732116 -0.076602
C90   C     C_R   0.259376 0.454584 0.298420 -0.168076
C91   C     C_R   0.229550 0.955464 0.732127 -0.076553
C92   C     C_R   0.759377 0.954584 0.298420 -0.168093
C93   C     C_R   0.051325 0.456074 0.306546 -0.139595
C94   C     C_R   0.005690 0.456655 0.734006 -0.114433
C95   C     C_R   0.551326 0.956076 0.306548 -0.139601
C96   C     C_R   0.505693 0.956655 0.734009 -0.114441
C97   C     C_R   0.730801 0.547699 0.739559 -0.128402
C98   C     C_R   0.260601 0.546718 0.298629 -0.126099
C99   C     C_R   0.230802 0.047699 0.739564 -0.128435
C100  C     C_R   0.760602 0.046718 0.298628 -0.126065
C101  C     C_R   0.816289 0.370007 0.912726 -0.136076
C102  C     C_R   0.184817 0.371175 0.090181 -0.129611
C103  C     C_R   0.316293 0.870003 0.912726 -0.136087
C104  C     C_R   0.684817 0.871175 0.090181 -0.129610
C105  C     C_R   0.940867 0.652655 0.089729 -0.124795
C106  C     C_R   0.059503 0.653303 0.911646 -0.141099
C107  C     C_R   0.440867 0.152655 0.089728 -0.124797
C108  C     C_R   0.559504 0.153303 0.911647 -0.141097
C109  C     C_R   0.880966 0.684354 0.997228 0.080991
C110  C     C_R   0.121943 0.684228 0.004583 0.081094
C111  C     C_R   0.380966 0.184354 0.997227 0.080989
C112  C     C_R   0.621945 0.184228 0.004583 0.081092
H1    H     H_    0.821355 0.666730 0.823819 0.103485
H2    H     H_    0.184647 0.665157 0.178387 0.099857
H3    H     H_    0.321356 0.166730 0.823818 0.103484
H4    H     H_    0.684649 0.165156 0.178388 0.099858
H5    H     H_    0.511146 0.444528 0.688579 0.143731
H6    H     H_    0.442492 0.405745 0.472744 0.136636
H7    H     H_    0.011132 0.944556 0.688606 0.143739
H8    H     H_    0.942480 0.905740 0.472793 0.136653
H9    H     H_    0.468001 0.558328 0.387975 0.143779
H10   H     H_    0.535332 0.596912 0.603371 0.139406
H11   H     H_    0.968017 0.058300 0.387953 0.143762
H12   H     H_    0.035349 0.096917 0.603329 0.139402
H13   H     H_    0.635520 0.337543 0.836864 0.126283
H14   H     H_    0.361413 0.332479 0.168116 0.121795
H15   H     H_    0.135527 0.837537 0.836858 0.126288
H16   H     H_    0.861412 0.832477 0.168120 0.121811
H17   H     H_    0.047166 0.759536 0.835416 0.124763
H18   H     H_    0.953878 0.758071 0.168243 0.125545
H19   H     H_    0.547164 0.259539 0.835422 0.124761
H20   H     H_    0.453881 0.258073 0.168240 0.125539
H21   H     H_    0.325210 0.700466 0.190384 0.202563
H22   H     H_    0.681290 0.698910 0.805837 0.198114
H23   H     H_    0.825216 0.200461 0.190368 0.202564
H24   H     H_    0.181287 0.198905 0.805848 0.198114
H25   H     H_    0.301780 0.739352 0.281112 0.190183
H26   H     H_    0.705794 0.742503 0.720606 0.190609
H27   H     H_    0.801799 0.239342 0.281112 0.190182
H28   H     H_    0.205782 0.242496 0.720605 0.190608
H29   H     H_    0.911188 0.275645 0.191044 0.200716
H30   H     H_    0.091142 0.268878 0.807835 0.199521
H31   H     H_    0.411185 0.775648 0.191060 0.200714
H32   H     H_    0.591145 0.768882 0.807826 0.199521
H33   H     H_    0.888541 0.315070 0.281980 0.191808
H34   H     H_    0.113078 0.313479 0.721197 0.187089
H35   H     H_    0.388525 0.815079 0.281979 0.191811
H36   H     H_    0.613088 0.813486 0.721198 0.187090
H37   H     H_    0.118271 0.417963 0.671637 0.128566
H38   H     H_    0.131799 0.417575 0.518114 0.126010
H39   H     H_    0.618308 0.917976 0.671664 0.128570
H40   H     H_    0.631844 0.917589 0.518144 0.126014
H41   H     H_    0.975234 0.597075 0.402303 0.202514
H42   H     H_    0.070981 0.641204 0.632492 0.192672
H43   H     H_    0.475141 0.097034 0.402234 0.202522
H44   H     H_    0.570836 0.141205 0.632383 0.192660
H45   H     H_    0.932317 0.374299 0.181328 0.110272
H46   H     H_    0.057097 0.356791 0.823293 0.099614
H47   H     H_    0.432319 0.874297 0.181328 0.110271
H48   H     H_    0.557097 0.856791 0.823293 0.099614
H49   H     H_    0.083851 0.641068 0.482287 0.192108
H50   H     H_    0.962500 0.597161 0.551232 0.202299
H51   H     H_    0.583707 0.141069 0.482181 0.192098
H52   H     H_    0.462406 0.097119 0.551162 0.202307
H53   H     H_    0.070821 0.589431 0.329417 0.102901
H54   H     H_    0.032956 0.590563 0.747893 0.110570
H55   H     H_    0.570819 0.089433 0.329414 0.102905
H56   H     H_    0.532953 0.090564 0.747892 0.110574
H57   H     H_    0.705031 0.414522 0.700716 0.105329
H58   H     H_    0.273763 0.412464 0.326800 0.096326
H59   H     H_    0.205030 0.914522 0.700734 0.105358
H60   H     H_    0.773764 0.912464 0.326801 0.096323
H61   H     H_    0.071041 0.414419 0.336604 0.086507
H62   H     H_    0.001404 0.416063 0.703140 0.085459
H63   H     H_    0.571041 0.914420 0.336609 0.086510
H64   H     H_    0.501410 0.916064 0.703142 0.085467
H65   H     H_    0.709954 0.590394 0.723579 0.097713
H66   H     H_    0.277158 0.589029 0.325696 0.105313
H67   H     H_    0.209955 0.090394 0.723584 0.097715
H68   H     H_    0.777159 0.089029 0.325695 0.105322
H69   H     H_    0.762150 0.357403 0.830360 0.088718
H70   H     H_    0.243114 0.365641 0.174814 0.088788
H71   H     H_    0.262158 0.857396 0.830361 0.088719
H72   H     H_    0.743114 0.865642 0.174815 0.088791
H73   H     H_    0.985440 0.666653 0.173888 0.084130
H74   H     H_    0.013548 0.668471 0.828474 0.084730
H75   H     H_    0.485440 0.166653 0.173888 0.084129
H76   H     H_    0.513549 0.168471 0.828475 0.084727
N1    N     N_R   0.892620 0.603790 0.941770 -0.039196
N2    N     N_R   0.107380 0.603790 0.058230 -0.038903
N3    N     N_R   0.392620 0.103790 0.941770 -0.039195
N4    N     N_R   0.607380 0.103790 0.058230 -0.038903
N5    N     N_R   0.952270 0.397640 0.058010 -0.041134
N6    N     N_R   0.047730 0.397640 0.941990 -0.040648
N7    N     N_R   0.452270 0.897640 0.058010 -0.041133
N8    N     N_R   0.547730 0.897640 0.941990 -0.040648
N9    N     N_R   0.026310 0.529110 0.206760 -0.040591
N10   N     N_R   0.973690 0.529110 0.793240 -0.040174
N11   N     N_R   0.526310 0.029110 0.206760 -0.040592
N12   N     N_R   0.473690 0.029110 0.793240 -0.040176
N13   N     N_R   0.818570 0.472310 0.793020 -0.047355
N14   N     N_R   0.181430 0.472310 0.206980 -0.038482
N15   N     N_R   0.318570 0.972310 0.793020 -0.047359
N16   N     N_R   0.681430 0.972310 0.206980 -0.038481
N17   N     N_R   0.026930 0.472300 0.207330 -0.038922
N18   N     N_R   0.973070 0.472300 0.792670 -0.038679
N19   N     N_R   0.526930 0.972300 0.207330 -0.038922
N20   N     N_R   0.473070 0.972300 0.792670 -0.038677
N21   N     N_R   0.817960 0.529130 0.792460 -0.043309
N22   N     N_R   0.182040 0.529130 0.207540 -0.043726
N23   N     N_R   0.317960 0.029130 0.792460 -0.043309
N24   N     N_R   0.682040 0.029130 0.207540 -0.043731
N25   N     N_R   0.894850 0.397640 0.943830 -0.042068
N26   N     N_R   0.105150 0.397640 0.056170 -0.040298
N27   N     N_R   0.394850 0.897640 0.943830 -0.042069
N28   N     N_R   0.605150 0.897640 0.056170 -0.040298
N29   N     N_R   0.950040 0.603780 0.055950 -0.039883
N30   N     N_R   0.049960 0.603780 0.944050 -0.038952
N31   N     N_R   0.450040 0.103780 0.055950 -0.039883
N32   N     N_R   0.549960 0.103780 0.944050 -0.038951
Ni1   Ni    Ni4+2 0.934160 0.565860 0.869070 0.210173
Ni2   Ni    Ni4+2 0.065840 0.565860 0.130930 0.206660
Ni3   Ni    Ni4+2 0.434160 0.065860 0.869070 0.210166
Ni4   Ni    Ni4+2 0.565840 0.065860 0.130930 0.206661
Ni5   Ni    Ni4+2 0.067260 0.435560 0.132230 0.209298
Ni6   Ni    Ni4+2 0.932740 0.435560 0.867770 0.221082
Ni7   Ni    Ni4+2 0.567260 0.935560 0.132230 0.209298
Ni8   Ni    Ni4+2 0.432740 0.935560 0.867770 0.221089
O1    O     O_3   0.371568 0.539741 0.589297 -0.639738
C113  C     C_3   0.421436 0.558803 0.698483 0.258673
H77   H     H_    0.463464 0.596008 0.709269 0.088838
H78   H     H_    0.468909 0.526472 0.757833 0.089635
C114  C     C_3   0.351608 0.574195 0.724670 -0.885366
H79   H     H_    0.310197 0.537428 0.717225 0.259344
H80   H     H_    0.389914 0.590176 0.809946 0.207883
H81   H     H_    0.302881 0.606449 0.666937 0.252745
O2    O     O_3   0.601852 0.462347 0.480705 -0.639688
C115  C     C_3   0.548935 0.444563 0.370414 0.263089
H82   H     H_    0.507563 0.479067 0.313373 0.092565
H83   H     H_    0.500442 0.410417 0.356715 0.080586
C116  C     C_3   0.615640 0.423358 0.343419 -0.887591
H84   H     H_    0.657368 0.388413 0.398289 0.252147
H85   H     H_    0.574708 0.409066 0.256792 0.210172
H86   H     H_    0.664343 0.456668 0.354594 0.258742
O3    O     O_3   0.871568 0.039777 0.589270 -0.639741
C117  C     C_3   0.921433 0.058847 0.698449 0.258675
H87   H     H_    0.963468 0.096047 0.709229 0.088840
H88   H     H_    0.968899 0.026517 0.757811 0.089634
C118  C     C_3   0.851603 0.074252 0.724627 -0.885381
H89   H     H_    0.810186 0.037490 0.717187 0.259344
H90   H     H_    0.889910 0.090238 0.809898 0.207883
H91   H     H_    0.802883 0.106506 0.666885 0.252744
O4    O     O_3   0.101851 0.962302 0.480739 -0.639705
C119  C     C_3   0.048939 0.944551 0.370427 0.263149
H92   H     H_    0.007725 0.979098 0.313425 0.092597
H93   H     H_    0.000299 0.910474 0.356618 0.080542
C120  C     C_3   0.115635 0.923234 0.343506 -0.887659
H94   H     H_    0.157207 0.888247 0.398346 0.252131
H95   H     H_    0.074707 0.908970 0.256862 0.210183
H96   H     H_    0.164482 0.956474 0.354785 0.258756

loop_
_geom_bond_atom_site_label_1
_geom_bond_atom_site_label_2
_ccdc_geom_bond_type
C53   C110  S    
C58   C62   S    
C89   N13   A    
N8    Ni8   S    
N22   Ni2   S    
C22   C29   S    
C5    C37   S    
C55   C112  S    
N10   N18   A    
C2    N2    A    
N21   Ni1   S    
C4    N4    A    
N9    N17   A    
C19   C20   S    
C94   N18   A    
C87   N11   A    
C88   N12   A    
C72   C76   A    
C93   N17   A    
C34   C66   S    
C63   C65   S    
C81   C82   S    
C15   C28   S    
C33   C65   S    
C47   H47   S    
C77   C78   A    
C99   H67   S    
C48   H48   S    
C115  C116  S    
C118  H89   S    
C50   C54   A    
C97   N21   A    
C83   C84   S    
C103  H71   S    
C17   C26   S    
C47   N7    A    
C38   C42   A    
C82   H42   S    
C55   C59   A    
C11   C76   S    
N2    Ni2   S    
C64   H28   S    
O4    C119  S    
N8    N28   A    
C10   C73   S    
N1    Ni1   S    
C96   N20   A    
C83   H43   S    
C8    C104  A    
C10   C94   A    
C11   C95   A    
C46   H46   S    
C107  H75   S    
C116  H84   S    
C81   H41   S    
C113  C114  S    
C120  H94   S    
C103  N27   A    
C105  H73   S    
C57   C61   S    
C70   C81   S    
N26   Ni5   S    
C95   H63   S    
C14   C90   A    
C119  H93   S    
C69   C82   S    
C50   H18   S    
C120  H96   S    
C9    C85   A    
N31   Ni4   S    
C115  H82   S    
C32   H12   S    
C102  N26   A    
C87   H55   S    
C30   H10   S    
C101  N25   A    
C88   H56   S    
C29   H9    S    
C70   C74   A    
N27   Ni8   S    
C6    C38   S    
C69   C73   A    
C1    H1    S    
N25   Ni6   S    
C23   C27   S    
C98   H66   S    
C24   C28   S    
C114  H79   S    
C18   H6    S    
C56   C111  S    
N7    N27   A    
C68   H36   S    
C6    C46   A    
C17   H5    S    
C22   O2    S    
C1    C109  A    
C16   C27   S    
C4    C112  A    
C19   H7    S    
C33   C59   A    
C7    C103  A    
O2    C115  S    
C48   N8    A    
C34   C60   A    
N5    Ni5   S    
N15   N23   A    
C67   H31   S    
C69   C70   A    
C18   C25   S    
N3    N31   A    
N16   N24   A    
N14   N22   A    
N2    N30   A    
N13   N21   A    
N17   Ni5   S    
N11   Ni4   S    
O1    C113  S    
N1    N29   A    
C14   C98   A    
N14   Ni5   S    
C115  H83   S    
C25   C29   S    
N13   Ni6   S    
C117  H88   S    
C118  H90   S    
N28   Ni7   S    
C12   C88   A    
C27   C31   S    
C102  H70   S    
C89   H57   S    
C41   H13   S    
C36   C40   A    
N10   Ni1   S    
C45   H45   S    
C15   C91   A    
C104  N28   A    
N9    Ni2   S    
C61   H21   S    
C77   H37   S    
C2    C110  A    
C53   C57   A    
C16   C100  A    
C39   C43   A    
C82   H50   S    
C119  C120  S    
N15   Ni8   S    
C100  N24   A    
C33   C37   A    
C56   C60   A    
C46   N6    A    
C84   H44   S    
C116  H85   S    
C45   N5    A    
C63   H23   S    
C23   O3    S    
C19   C23   S    
C8    C48   A    
N18   Ni6   S    
C29   C30   S    
C3    N3    A    
C98   N22   A    
C61   C67   S    
C95   N19   A    
C97   H65   S    
C31   C32   S    
C28   C32   S    
C21   O1    S    
C52   H20   S    
N23   Ni3   S    
C90   H58   S    
C105  C109  A    
N11   N19   A    
C17   C18   S    
C13   C97   A    
C62   H26   S    
N16   Ni7   S    
C113  H78   S    
C19   C28   S    
C114  H80   S    
C106  H74   S    
C22   C26   S    
C83   H51   S    
C86   N10   A    
C107  N31   A    
N19   Ni7   S    
C104  H72   S    
C41   C51   A    
C94   H62   S    
C26   C30   S    
C105  N29   A    
C91   H59   S    
C67   H35   S    
C54   C58   A    
N24   Ni4   S    
C13   C26   S    
C16   C92   A    
C9    C74   S    
N4    N32   A    
C43   H15   S    
C100  H68   S    
C9    C93   A    
C72   C83   S    
C20   H8    S    
C101  H69   S    
C78   H38   S    
N30   Ni1   S    
C79   H39   S    
C71   C84   S    
C106  C110  A    
C44   C50   A    
N29   Ni2   S    
C80   H40   S    
C21   C25   S    
C117  H87   S    
C44   H16   S    
C118  H91   S    
C51   H19   S    
C96   H64   S    
C13   C89   A    
C62   H22   S    
C34   C38   A    
N12   Ni3   S    
C107  C111  A    
C4    H4    S    
C43   C49   A    
C76   C80   A    
C15   C99   A    
C92   N16   A    
C99   N23   A    
N6    N26   A    
C108  H76   S    
C11   C87   A    
C36   C68   S    
C10   C86   A    
N5    N25   A    
C66   H30   S    
C20   C27   S    
C63   H27   S    
N3    Ni3   S    
C21   C30   S    
C36   C58   A    
C5    C101  A    
N7    Ni7   S    
C60   C64   S    
C116  H86   S    
C85   H53   S    
C23   C32   S    
N6    Ni6   S    
C119  H92   S    
C18   C22   S    
C24   C31   S    
C31   H11   S    
C71   C72   A    
C64   C66   S    
C3    H3    S    
N20   Ni8   S    
C108  N32   A    
C71   C75   A    
C2    H2    S    
C61   H25   S    
C84   H52   S    
C5    C45   A    
C92   H60   S    
C49   H17   S    
C35   C39   A    
C65   H33   S    
C93   H61   S    
C59   C63   S    
N4    Ni4   S    
C68   H32   S    
C51   C55   A    
C62   C68   S    
C6    C102  A    
C14   C25   S    
C37   C41   A    
C113  H77   S    
C114  H81   S    
C17   C21   S    
C66   H34   S    
C49   C53   A    
C35   C67   S    
C42   H14   S    
C3    C111  A    
C79   C80   A    
C106  N30   A    
C108  C112  A    
C40   C44   A    
C86   H54   S    
C54   C109  S    
C73   C77   A    
N12   N20   A    
C35   C57   A    
C74   C78   A    
C12   C75   S    
C42   C52   A    
C24   O4    S    
C7    C39   S    
C85   N9    A    
C12   C96   A    
C81   H49   S    
C64   H24   S    
C8    C40   S    
C120  H95   S    
O3    C117  S    
C75   C79   A    
C20   C24   S    
N32   Ni3   S    
C91   N15   A    
C65   H29   S    
C52   C56   A    
C7    C47   A    
C90   N14   A    
C117  C118  S    
C1    N1    A    
