data_mof_unit_29568.cif
_audit_creation_date              2012-12-10T20:26:30-0500
_audit_creation_method            fapswitch 2.2
_symmetry_space_group_name_H-M    P1
_symmetry_Int_Tables_number       1
_space_group_crystal_system       triclinic
_cell_length_a                    10.66438
_cell_length_b                    10.700711
_cell_length_c                    9.893837
_cell_angle_alpha                 89.001003
_cell_angle_beta                  90.206592
_cell_angle_gamma                 90.739825
_cell_volume                      1128.77736379

loop_
_atom_site_label
_atom_site_type_symbol
_atom_type_description
_atom_site_fract_x
_atom_site_fract_y
_atom_site_fract_z
_atom_type_partial_charge
C1    C     C_R   0.504424 0.259788 0.500638 0.878679
C2    C     C_R   0.588731 0.565348 0.069113 0.182181
C3    C     C_R   0.589974 0.562253 0.925861 -0.143672
C4    C     C_R   0.262267 0.501349 0.499378 0.924174
C5    C     C_R   0.398638 0.455165 0.929727 0.215007
C6    C     C_3   0.343642 0.326904 0.926626 -0.493198
C7    C     C_3   0.345036 0.325327 0.080222 -0.490294
C8    C     C_R   0.505238 0.739910 0.498935 0.892565
C9    C     C_R   0.736985 0.488928 0.500773 0.907431
C10   C     C_2   0.932888 0.459119 0.390946 -0.197074
C11   C     C_2   0.864794 0.449251 0.503898 0.004249
C12   C     C_R   0.526520 0.128401 0.499379 -0.106200
C13   C     C_2   0.067205 0.450662 0.395436 -0.127298
C14   C     C_2   0.129352 0.504905 0.496278 -0.286809
C15   C     C_R   0.546869 0.061151 0.619049 0.163052
C16   C     C_R   0.533580 0.066936 0.375156 -0.210104
C17   C     C_R   0.533872 0.937776 0.373866 -0.189674
C18   C     C_R   0.528314 0.871136 0.496825 -0.109983
C19   C     C_R   0.547975 0.933368 0.617573 0.139616
C20   C     C_3   0.480892 0.920352 0.749248 -0.459941
C21   C     C_3   0.478754 0.061567 0.750553 -0.503469
C22   C     C_R   0.399427 0.453749 0.071798 0.184004
H1    H     H_    0.892070 0.488046 0.294986 0.194966
H2    H     H_    0.528081 0.891376 0.277605 0.193433
H3    H     H_    0.386009 0.876982 0.739404 0.212403
H4    H     H_    0.541119 0.878934 0.829872 0.217503
H5    H     H_    0.382336 0.098998 0.740154 0.209980
H6    H     H_    0.082129 0.552641 0.577242 0.174095
H7    H     H_    0.537810 0.100848 0.832702 0.214808
H8    H     H_    0.662825 0.611454 0.869834 0.180340
H9    H     H_    0.247718 0.325301 0.882295 0.226086
H10   H     H_    0.410000 0.260810 0.883518 0.211837
H11   H     H_    0.249629 0.323745 0.124950 0.204344
H12   H     H_    0.411121 0.256400 0.124660 0.211007
H13   H     H_    0.115152 0.409352 0.310778 0.166778
H14   H     H_    0.528913 0.117066 0.279339 0.171303
I1    I     I_    0.722907 0.687118 0.156318 -0.389250
I2    I     I_    0.925403 0.353183 0.684944 -0.379146
N1    N     N_R   0.499170 0.499140 0.142800 -0.126723
N2    N     N_R   0.499170 0.499180 0.857150 -0.122917
O1    O     O_R   0.500020 0.316790 0.614690 -0.611039
O2    O     O_R   0.500000 0.316760 0.385350 -0.628978
O3    O     O_R   0.319080 0.500020 0.614640 -0.608832
O4    O     O_R   0.319070 0.499980 0.385300 -0.614917
O5    O     O_R   0.500000 0.683240 0.614650 -0.624867
O6    O     O_R   0.499980 0.683210 0.385310 -0.599679
O7    O     O_R   0.680930 0.500020 0.614700 -0.596781
O8    O     O_R   0.680920 0.499980 0.385360 -0.602925
Zn1   Zn    Zn3+2 0.500010 0.500020 0.653130 0.969127
Zn2   Zn    Zn3+2 0.499990 0.499980 0.346870 0.974800

loop_
_geom_bond_atom_site_label_1
_geom_bond_atom_site_label_2
_ccdc_geom_bond_type
C11   I2    S    
C6    H10   S    
C9    O7    A    
C6    C7    S    
C4    O3    A    
C10   H1    S    
C3    H8    S    
C7    C22   S    
C9    C11   S    
O6    Zn2   S    
C19   C20   S    
C12   C15   A    
O5    Zn1   S    
O8    Zn2   S    
C2    C3    A    
C21   H5    S    
O7    Zn1   S    
C13   C14   D    
C16   H14   S    
C15   C19   A    
C7    H11   S    
C2    I1    S    
C1    C12   S    
C20   H4    S    
O2    Zn2   S    
C22   N1    A    
C1    O1    A    
C3    N2    A    
C13   H13   S    
C4    C14   S    
C5    C6    S    
C7    H12   S    
C8    O6    A    
C17   H2    S    
C10   C11   D    
O4    Zn2   S    
N2    Zn1   S    
C1    O2    A    
C15   C21   S    
N1    Zn2   S    
C20   C21   S    
C9    O8    A    
C17   C18   A    
C18   C19   A    
C20   H3    S    
C5    N2    A    
O1    Zn1   S    
C8    O5    A    
O3    Zn1   S    
C6    H9    S    
C4    O4    A    
C14   H6    S    
C21   H7    S    
C2    N1    A    
C8    C18   S    
C5    C22   A    
C12   C16   A    
C16   C17   A    
C10   C13   S    
