data_mof_unit_35151.cif
_audit_creation_date              2012-12-10T20:02:20-0500
_audit_creation_method            fapswitch 2.2
_symmetry_space_group_name_H-M    P1
_symmetry_Int_Tables_number       1
_space_group_crystal_system       triclinic
_cell_length_a                    10.846636
_cell_length_b                    14.925676
_cell_length_c                    14.207732
_cell_angle_alpha                 91.035528
_cell_angle_beta                  90.424512
_cell_angle_gamma                 90.74011
_cell_volume                      2299.50296823

loop_
_atom_site_label
_atom_site_type_symbol
_atom_type_description
_atom_site_fract_x
_atom_site_fract_y
_atom_site_fract_z
_atom_type_partial_charge
C1    C     C_R   0.498074 0.327328 0.499412 0.904211
C2    C     C_R   0.499976 0.671921 0.500780 0.859453
C3    C     C_R   0.873840 0.513276 0.501962 -0.313522
C4    C     C_R   0.129336 0.524903 0.500839 -0.321104
C5    C     C_R   0.940803 0.504728 0.587050 -0.104912
C6    C     C_R   0.063488 0.542262 0.417061 -0.095905
C7    C     C_R   0.467160 0.090722 0.414068 -0.264138
C8    C     C_R   0.570071 0.910275 0.460524 -0.261076
C9    C     C_R   0.480713 0.182718 0.413676 -0.169166
C10   C     C_R   0.582443 0.818714 0.462479 -0.232218
C11   C     C_R   0.486214 0.230687 0.499001 -0.090131
C12   C     C_R   0.489945 0.766999 0.502534 -0.049537
C13   C     C_R   0.476894 0.186225 0.584828 -0.350201
C14   C     C_R   0.383468 0.805480 0.539180 -0.334723
C15   C     C_R   0.462645 0.093156 0.586217 0.600551
C16   C     C_R   0.369993 0.898699 0.538645 0.622218
C17   C     C_R   0.460222 0.046337 0.499648 0.063410
C18   C     C_R   0.464792 0.949875 0.498171 0.042729
C19   C     C_R   0.441852 0.430902 0.104086 -0.244498
C20   C     C_R   0.480724 0.573055 0.899899 -0.291434
C21   C     C_R   0.437835 0.434343 0.202704 0.117175
C22   C     C_R   0.481149 0.575939 0.801645 0.136156
C23   C     C_R   0.260736 0.508562 0.499899 0.944014
C24   C     C_R   0.740696 0.502119 0.500493 0.930098
C25   C     C_R   0.563024 0.564901 0.206927 -0.045551
C26   C     C_R   0.514779 0.420289 0.791627 -0.070540
C27   C     C_R   0.567285 0.565592 0.108098 -0.023378
C28   C     C_R   0.515070 0.414723 0.890822 -0.040546
C29   C     C_R   0.507468 0.495956 0.054028 0.124000
C30   C     C_R   0.503009 0.493725 0.947273 0.107442
C31   C     C_R   0.222149 0.684201 0.233021 0.440156
C32   C     C_R   0.834178 0.364846 0.792640 0.415457
C33   C     C_R   0.173208 0.655828 0.319181 -0.366418
C34   C     C_R   0.873728 0.389091 0.701822 -0.347901
C35   C     C_R   0.123890 0.569287 0.327780 0.102757
C36   C     C_R   0.885641 0.479356 0.678243 0.154309
C37   C     C_R   0.121937 0.511233 0.249218 -0.225537
C38   C     C_R   0.860379 0.545913 0.745390 -0.303175
C39   C     C_R   0.169809 0.537305 0.162265 0.382184
C40   C     C_R   0.833901 0.523388 0.839078 0.415340
C41   C     C_R   0.220721 0.625346 0.154050 0.385481
C42   C     C_R   0.819539 0.432469 0.861910 0.391212
C43   C     C_R   0.935184 0.539501 0.418967 0.481069
C44   C     C_R   0.066895 0.519404 0.587331 0.480936
H1    H     H_    0.387733 0.380060 0.066675 0.169398
H2    H     H_    0.460338 0.633680 0.939430 0.186306
H3    H     H_    0.607911 0.617630 0.248074 0.131503
H4    H     H_    0.527409 0.360065 0.749897 0.135118
H5    H     H_    0.170013 0.701984 0.378785 0.161363
H6    H     H_    0.896605 0.338462 0.649580 0.164686
H7    H     H_    0.083139 0.444387 0.255738 0.189600
H8    H     H_    0.865090 0.615257 0.724788 0.152700
H9    H     H_    0.465836 0.053546 0.347804 0.162589
H10   H     H_    0.643237 0.950679 0.430686 0.167559
H11   H     H_    0.488807 0.215857 0.346839 0.176544
H12   H     H_    0.663933 0.788589 0.433195 0.132783
H13   H     H_    0.483585 0.223708 0.650435 0.153470
H14   H     H_    0.310585 0.762278 0.564463 0.125005
N1    N     N_R   0.500000 0.499980 0.252470 -0.128230
N2    N     N_R   0.500000 0.500020 0.747530 -0.111779
O1    O     O_R   0.500010 0.369070 0.579480 -0.641518
O2    O     O_R   0.499990 0.630930 0.420520 -0.654805
O3    O     O_R   0.500010 0.369060 0.420520 -0.625358
O4    O     O_R   0.499990 0.630940 0.579480 -0.614708
O5    O     O_R   0.316760 0.500010 0.579480 -0.564070
O6    O     O_R   0.683240 0.499990 0.420520 -0.563103
O7    O     O_R   0.316760 0.500000 0.420520 -0.620713
O8    O     O_R   0.683240 0.500000 0.579480 -0.623619
Zn1   Zn    Zn3+2 0.500000 0.500010 0.606140 0.966423
Zn2   Zn    Zn3+2 0.500000 0.499990 0.393860 0.961047
O9    O     O_3   0.282953 0.649477 0.073359 -0.623360
C45   C     C_3   0.221378 0.719409 0.027235 -0.293833
H15   H     H_    0.266687 0.784665 0.045014 0.232189
H16   H     H_    0.120895 0.722739 0.042843 0.135889
H17   H     H_    0.230215 0.708505 0.950125 0.145983
O10   O     O_3   0.774381 0.409569 0.949107 -0.587134
C46   C     C_3   0.872195 0.403391 0.013891 -0.172931
H18   H     H_    0.908716 0.471070 0.032993 0.187382
H19   H     H_    0.945889 0.358456 0.987451 0.163185
H20   H     H_    0.835963 0.373805 0.079354 0.189217
O11   O     O_3   0.466402 0.045045 0.669303 -0.612920
C47   C     C_3   0.393997 0.084931 0.740435 -0.294626
H21   H     H_    0.305224 0.110853 0.712655 0.171936
H22   H     H_    0.447200 0.138681 0.778296 0.162354
H23   H     H_    0.370844 0.033137 0.792683 0.191910
O12   O     O_3   0.263529 0.941916 0.568370 -0.609300
C48   C     C_3   0.210626 0.901563 0.647895 -0.310316
H24   H     H_    0.281287 0.883086 0.701152 0.184102
H25   H     H_    0.152984 0.842524 0.626395 0.149061
H26   H     H_    0.148755 0.950660 0.682249 0.188709
C49   C     C_1   0.360419 0.370886 0.250107 0.245470
N3    N     N_1   0.296820 0.320032 0.287425 -0.214683
C50   C     C_1   0.460355 0.662388 0.762525 0.188009
N4    N     N_1   0.443449 0.733603 0.734776 -0.226404
C51   C     C_1   0.628716 0.641258 0.066769 0.227036
N5    N     N_1   0.676110 0.703535 0.035041 -0.190747
C52   C     C_1   0.532841 0.327684 0.931163 0.224244
N6    N     N_1   0.547313 0.257817 0.963192 -0.190006
O13   O     O_3   0.262130 0.771806 0.221583 -0.606887
C53   C     C_3   0.363922 0.790802 0.280810 -0.245796
H27   H     H_    0.433747 0.736800 0.278220 0.170574
H28   H     H_    0.332314 0.803687 0.353531 0.171308
H29   H     H_    0.409702 0.853098 0.256732 0.182794
O14   O     O_3   0.817782 0.276314 0.819732 -0.572585
C54   C     C_3   0.766583 0.221811 0.746763 -0.268590
H30   H     H_    0.840256 0.197215 0.699377 0.165614
H31   H     H_    0.694121 0.256665 0.706011 0.141731
H32   H     H_    0.722198 0.162355 0.778601 0.207292
O15   O     O_3   0.173447 0.470735 0.092117 -0.623951
C55   C     C_3   0.155675 0.503055 0.000389 -0.262824
H33   H     H_    0.244535 0.524046 0.969469 0.219835
H34   H     H_    0.086768 0.557330 0.997994 0.157091
H35   H     H_    0.120960 0.447264 0.954651 0.163626
O16   O     O_3   0.815092 0.587546 0.909407 -0.573108
C56   C     C_3   0.897335 0.661374 0.902020 -0.339099
H36   H     H_    0.857898 0.712180 0.854662 0.184700
H37   H     H_    0.990885 0.641762 0.878059 0.130898
H38   H     H_    0.909221 0.693234 0.972629 0.194605
O17   O     O_3   0.870998 0.559443 0.337467 -0.576912
C57   C     C_3   0.843883 0.651658 0.339571 -0.302935
H39   H     H_    0.925339 0.694679 0.358242 0.152678
H40   H     H_    0.768247 0.664989 0.389671 0.154790
H41   H     H_    0.812986 0.671285 0.268398 0.180047
O18   O     O_3   0.128937 0.519448 0.673125 -0.570940
C58   C     C_3   0.154957 0.609149 0.700834 -0.301138
H42   H     H_    0.071120 0.651140 0.701417 0.122864
H43   H     H_    0.224711 0.640073 0.654321 0.168942
H44   H     H_    0.193203 0.609678 0.773470 0.172020

loop_
_geom_bond_atom_site_label_1
_geom_bond_atom_site_label_2
_ccdc_geom_bond_type
C28   C52   S    
C48   H24   S    
C15   O11   S    
C50   N4    T    
C27   C29   A    
C27   C51   S    
C51   N5    T    
C1    C11   S    
C2    C12   S    
O16   C56   S    
C39   C41   A    
C20   C30   A    
C46   H18   S    
C54   H31   S    
C3    C43   A    
O11   C47   S    
C21   N1    A    
C22   N2    A    
C37   H7    S    
C38   H8    S    
C33   H5    S    
C56   H36   S    
C5    C36   S    
C6    C35   S    
O2    Zn2   S    
C15   C17   A    
C23   O7    A    
C55   H33   S    
C40   O16   S    
C57   H40   S    
O8    Zn1   S    
C56   H37   S    
C58   H44   S    
C31   C33   A    
C9    H11   S    
C31   O13   S    
C10   H12   S    
C25   H3    S    
C57   H41   S    
C24   O6    A    
C41   O9    S    
C40   C42   A    
C16   O12   S    
C3    C24   S    
C45   H17   S    
C1    O3    A    
C53   H28   S    
O14   C54   S    
C2    O4    A    
C52   N6    T    
C46   H19   S    
C14   H14   S    
C54   H32   S    
C34   H6    S    
O10   C46   S    
C4    C6    A    
C8    H10   S    
C49   N3    T    
C4    C23   S    
O12   C48   S    
C4    C44   A    
C7    C17   A    
C44   O18   S    
C53   H29   S    
C8    C18   A    
C32   C34   A    
C29   C30   S    
O13   C53   S    
O3    Zn2   S    
C56   H38   S    
C32   O14   S    
C17   C18   S    
C16   C18   A    
O4    Zn1   S    
C9    C11   A    
C55   H35   S    
C10   C12   A    
C45   H16   S    
C5    C44   A    
C12   C14   A    
C47   H22   S    
C6    C43   A    
C13   C15   A    
C58   H42   S    
C22   C50   S    
C14   C16   A    
C7    H9    S    
C19   C29   A    
C57   H39   S    
C21   C49   S    
C46   H20   S    
O1    Zn1   S    
C7    C9    A    
C31   C41   A    
C35   C37   A    
C42   O10   S    
C20   C22   A    
C45   H15   S    
C3    C5    A    
C1    O1    A    
O17   C57   S    
C19   H1    S    
C26   H4    S    
C25   C27   A    
C47   H23   S    
C54   H30   S    
C26   C28   A    
O7    Zn2   S    
C23   O5    A    
C28   C30   A    
O9    C45   S    
C37   C39   A    
O15   C55   S    
C38   C40   A    
C11   C13   A    
O6    Zn2   S    
N2    Zn1   S    
O5    Zn1   S    
C36   C38   A    
C53   H27   S    
C33   C35   A    
C34   C36   A    
C55   H34   S    
C24   O8    A    
N1    Zn2   S    
C39   O15   S    
C13   H13   S    
C8    C10   A    
C47   H21   S    
C48   H26   S    
C58   H43   S    
C48   H25   S    
C32   C42   A    
C25   N1    A    
C26   N2    A    
C20   H2    S    
C2    O2    A    
C43   O17   S    
O18   C58   S    
C19   C21   A    
