data_mof_unit_62315.cif
_audit_creation_date              2012-12-10T21:02:22-0500
_audit_creation_method            fapswitch 2.2
_symmetry_space_group_name_H-M    P1
_symmetry_Int_Tables_number       1
_space_group_crystal_system       triclinic
_cell_length_a                    15.076264
_cell_length_b                    15.846234
_cell_length_c                    16.829683
_cell_angle_alpha                 89.993838
_cell_angle_beta                  83.880106
_cell_angle_gamma                 90.004348
_cell_volume                      3997.73130466

loop_
_atom_site_label
_atom_site_type_symbol
_atom_type_description
_atom_site_fract_x
_atom_site_fract_y
_atom_site_fract_z
_atom_type_partial_charge
C1    C     C_R   0.500024 0.661115 0.499972 0.974063
C2    C     C_R   0.499976 0.338865 0.500029 0.896197
C3    C     C_R   0.511454 0.043667 0.570524 -0.170891
C4    C     C_R   0.488542 0.956195 0.429480 -0.160202
C5    C     C_R   0.499979 0.086800 0.500018 0.161678
C6    C     C_R   0.500022 0.913081 0.499986 0.148600
C7    C     C_R   0.488525 0.043701 0.429496 -0.170872
C8    C     C_R   0.511480 0.956161 0.570507 -0.160198
C9    C     C_1   0.499969 0.175600 0.500030 -0.056357
C10   C     C_1   0.500031 0.824315 0.499973 -0.027847
C11   C     C_1   0.500031 0.749489 0.499969 -0.090900
C12   C     C_1   0.499969 0.250452 0.500033 -0.159430
C13   C     C_R   0.038296 0.499453 0.572117 -0.156636
C14   C     C_R   0.961704 0.500956 0.427883 -0.156575
C15   C     C_R   0.094962 0.500188 0.499985 0.071664
C16   C     C_R   0.905038 0.500168 0.500015 0.071711
C17   C     C_R   0.055444 0.500973 0.427866 -0.144706
C18   C     C_R   0.944556 0.499451 0.572134 -0.144782
C19   C     C_1   0.192839 0.500098 0.499975 0.071181
C20   C     C_1   0.807161 0.500064 0.500025 0.071193
C21   C     C_R   0.486688 0.501065 0.653141 0.919293
C22   C     C_R   0.513313 0.501035 0.346859 0.919317
C23   C     C_R   0.475134 0.514195 0.738124 -0.126093
C24   C     C_R   0.524869 0.514156 0.261873 -0.126073
C25   C     C_R   0.430605 0.452883 0.786970 -0.284411
C26   C     C_R   0.569334 0.452816 0.213040 -0.284399
C27   C     C_R   0.419857 0.463832 0.869327 0.336115
C28   C     C_R   0.580086 0.463761 0.130680 0.336127
C29   C     C_R   0.451858 0.538030 0.901964 -0.050634
C30   C     C_R   0.548156 0.537985 0.098027 -0.050639
C31   C     C_R   0.490687 0.601807 0.852356 -0.231009
C32   C     C_R   0.509390 0.601785 0.147620 -0.231004
C33   C     C_R   0.503797 0.589807 0.770500 0.273830
C34   C     C_R   0.496274 0.589789 0.229479 0.273807
C35   C     C_2   0.458773 0.544365 0.987847 0.393798
C36   C     C_2   0.541247 0.544333 0.012142 0.393812
H1    H     H_    0.407276 0.395368 0.761215 0.175942
H2    H     H_    0.592610 0.395283 0.238808 0.175942
H3    H     H_    0.515062 0.658966 0.877975 0.166951
H4    H     H_    0.485068 0.658963 0.121989 0.166954
H5    H     H_    0.520356 0.922210 0.625011 0.168620
H6    H     H_    0.479657 0.077633 0.374986 0.154389
H7    H     H_    0.520308 0.077573 0.625045 0.154379
H8    H     H_    0.479680 0.922270 0.374964 0.168614
H9    H     H_    0.902856 0.498867 0.628678 0.144249
H10   H     H_    0.097144 0.501580 0.371323 0.144274
H11   H     H_    0.066556 0.498861 0.628649 0.140776
H12   H     H_    0.933444 0.501542 0.371352 0.140713
N1    N     N_1   0.729450 0.499980 0.500020 -0.077840
N2    N     N_1   0.270550 0.500020 0.499980 -0.077840
O1    O     O_R   0.426350 0.621980 0.500000 -0.592974
O2    O     O_R   0.573650 0.378020 0.500000 -0.612321
O3    O     O_R   0.573690 0.621980 0.499960 -0.592959
O4    O     O_R   0.426310 0.378020 0.500040 -0.612317
O5    O     O_R   0.417630 0.500010 0.615820 -0.619246
O6    O     O_R   0.582370 0.499990 0.384180 -0.619231
O7    O     O_R   0.564960 0.500010 0.615780 -0.580181
O8    O     O_R   0.435040 0.499990 0.384220 -0.580186
Zn1   Zn    Zn3+2 0.401630 0.500000 0.500020 1.017080
Zn2   Zn    Zn3+2 0.598370 0.500000 0.499980 1.017094
Br1   Br    Br    0.439279 0.678275 0.294040 -0.545763
Br2   Br    Br    0.560871 0.678261 0.705918 -0.545643
O9    O     O_3   0.615992 0.537712 0.956077 -0.622100
C37   C     C_3   0.686738 0.587764 0.978458 0.084820
H13   H     H_    0.717038 0.557585 0.028829 0.172034
H14   H     H_    0.663151 0.652513 0.996171 0.122110
C38   C     C_3   0.757955 0.595161 0.907123 -0.285423
H15   H     H_    0.782031 0.531103 0.888529 0.244527
H16   H     H_    0.728315 0.624830 0.856207 0.244324
C39   C     C_3   0.836905 0.648199 0.927550 -0.944532
H17   H     H_    0.814608 0.713064 0.944909 0.271494
H18   H     H_    0.887312 0.652261 0.874543 0.271741
H19   H     H_    0.868509 0.618850 0.977461 0.268379
O10   O     O_3   0.384022 0.537789 0.043914 -0.622089
C40   C     C_3   0.313327 0.587900 0.021526 0.084876
H20   H     H_    0.282996 0.557753 0.971159 0.172030
H21   H     H_    0.336980 0.652635 0.003804 0.122105
C41   C     C_3   0.242117 0.595337 0.092861 -0.285479
H22   H     H_    0.217976 0.531295 0.111463 0.244543
H23   H     H_    0.271790 0.624973 0.143772 0.244300
C42   C     C_3   0.163222 0.648442 0.072428 -0.944592
H24   H     H_    0.185586 0.713293 0.055062 0.271514
H25   H     H_    0.112819 0.652532 0.125435 0.271675
H26   H     H_    0.131587 0.619128 0.022521 0.268403
Br3   Br    Br    0.631060 0.373128 0.065311 -0.431428
Br4   Br    Br    0.368791 0.373230 0.934715 -0.431437

loop_
_geom_bond_atom_site_label_1
_geom_bond_atom_site_label_2
_ccdc_geom_bond_type
C35   O10   S    
O5    Zn1   S    
C27   C29   A    
C35   C36   D    
C1    C11   S    
C2    C12   S    
C42   H24   S    
C21   O7    A    
C3    H7    S    
N1    Zn2   S    
C13   C18   A    
N2    Zn1   S    
C24   C26   A    
C41   H23   S    
C7    H6    S    
C1    O3    A    
O2    Zn2   S    
C25   H1    S    
C13   H11   S    
C33   Br2   S    
C23   C33   A    
C31   C33   A    
C39   H17   S    
C36   O9    S    
C41   C42   S    
C32   H4    S    
C14   C17   A    
C4    C7    A    
C42   H25   S    
O3    Zn2   S    
O4    Zn1   S    
O10   C40   S    
C38   H15   S    
C37   C38   S    
C17   H10   S    
C4    C6    A    
C3    C8    A    
C2    O4    A    
C21   O5    A    
C41   H22   S    
C26   H2    S    
O7    Zn2   S    
C6    C8    A    
C4    H8    S    
O8    Zn1   S    
C34   Br1   S    
C24   C34   A    
O6    Zn2   S    
C38   H16   S    
C32   C34   A    
C27   Br4   S    
C15   C19   S    
C40   H20   S    
C5    C9    S    
C20   N1    T    
C1    O1    A    
C16   C20   S    
C39   H19   S    
C8    H5    S    
C40   H21   S    
C22   O8    A    
C2    O2    A    
C13   C15   A    
C22   C24   S    
O1    Zn1   S    
C18   H9    S    
C42   H26   S    
C5    C7    A    
C15   C17   A    
C9    C12   T    
C3    C5    A    
C6    C10   S    
C22   O6    A    
C25   C27   A    
C29   C35   S    
C26   C28   A    
C30   C36   S    
C38   C39   S    
C37   H13   S    
C21   C23   S    
C29   C31   A    
C30   C32   A    
C19   N2    T    
C28   C30   A    
C31   H3    S    
C14   C16   A    
C23   C25   A    
C40   C41   S    
C10   C11   T    
O9    C37   S    
C16   C18   A    
C28   Br3   S    
C14   H12   S    
C39   H18   S    
C37   H14   S    
