data_mof_unit_16565.cif
_audit_creation_date              2012-12-11T14:36:05-0500
_audit_creation_method            fapswitch 2.2
_symmetry_space_group_name_H-M    P1
_symmetry_Int_Tables_number       1
_space_group_crystal_system       triclinic
_cell_length_a                    13.472268
_cell_length_b                    13.47505
_cell_length_c                    27.522704
_cell_angle_alpha                 90.837395
_cell_angle_beta                  90.085474
_cell_angle_gamma                 60.09242
_cell_volume                      4330.52385797

loop_
_atom_site_label
_atom_site_type_symbol
_atom_type_description
_atom_site_fract_x
_atom_site_fract_y
_atom_site_fract_z
_atom_type_partial_charge
C1    C     C_R   0.620120 0.101462 0.570259 0.546318
C2    C     C_1   0.630623 0.733063 0.616601 -0.015291
C3    C     C_3   0.698887 0.561420 0.767659 -0.101666
C4    C     C_3   0.679254 0.654738 0.805538 0.052659
C5    C     C_3   0.589502 0.649231 0.740908 -0.099159
C6    C     C_3   0.662800 0.684361 0.710936 0.052666
C7    C     C_3   0.570078 0.742097 0.779500 -0.101913
C8    C     C_3   0.643179 0.777692 0.748806 -0.103164
C9    C     C_1   0.688300 0.633608 0.857899 -0.058812
C10   C     C_1   0.648810 0.706048 0.658633 -0.057973
C11   C     C_3   0.091066 0.133171 0.738111 -0.101514
C12   C     C_R   0.599473 0.779853 0.568875 0.543260
C13   C     C_3   0.182991 0.060086 0.776117 -0.100234
C14   C     C_1   0.096753 0.201197 0.901740 -0.015997
C15   C     C_1   0.229950 0.138188 0.617719 -0.014764
C16   C     C_3   0.054903 0.241941 0.769872 -0.101584
C17   C     C_3   0.147254 0.168684 0.807035 0.052629
C18   C     C_3   0.143450 0.263450 0.743277 -0.099077
C19   C     C_3   0.179216 0.154967 0.712281 0.052532
C20   C     C_3   0.235334 0.190455 0.781136 -0.101831
C21   C     C_3   0.271599 0.081669 0.749421 -0.103104
C22   C     C_1   0.124481 0.181994 0.859506 -0.058510
C23   C     C_R   0.277820 0.121885 0.569767 0.544384
C24   C     C_1   0.202055 0.147189 0.659875 -0.057992
C25   C     C_3   0.629652 0.277123 0.740125 -0.101612
C26   C     C_3   0.555173 0.259348 0.778100 -0.099877
C27   C     C_1   0.691674 0.207630 0.902896 -0.015588
C28   C     C_1   0.635050 0.133745 0.618441 -0.015126
C29   C     C_3   0.737630 0.203989 0.771006 -0.101609
C30   C     C_3   0.662995 0.185945 0.808151 0.052774
C31   C     C_3   0.758281 0.094321 0.743392 -0.099083
C32   C     C_3   0.650548 0.167604 0.713276 0.052568
C33   C     C_3   0.683886 0.076493 0.781252 -0.102141
C34   C     C_R   0.622073 0.098880 0.430967 0.547116
C35   C     C_3   0.575878 0.149561 0.750397 -0.103231
C36   C     C_1   0.674806 0.196582 0.860654 -0.058335
C37   C     C_1   0.643363 0.152709 0.660752 -0.058143
C38   C     C_R   0.734677 0.703754 0.359108 -0.137007
C39   C     C_R   0.746745 0.686796 0.308749 0.015376
C40   C     C_R   0.763742 0.663201 0.207140 0.014435
C41   C     C_R   0.855382 0.655694 0.234314 -0.132055
C42   C     C_R   0.846474 0.668580 0.284853 -0.135076
C43   C     C_R   0.774623 0.640993 0.157167 -0.135326
C44   C     C_R   0.684484 0.640957 0.131447 -0.005431
C45   C     C_R   0.601594 0.776185 0.430180 0.543240
C46   C     C_R   0.548435 0.715999 0.355023 -0.127119
C47   C     C_R   0.555767 0.707014 0.304959 0.006623
C48   C     C_R   0.654894 0.693017 0.281531 0.065443
C49   C     C_R   0.462928 0.717354 0.278005 -0.129629
C50   C     C_R   0.468339 0.713327 0.227622 -0.128051
C51   C     C_R   0.567989 0.695377 0.203977 0.008075
C52   C     C_R   0.661863 0.685095 0.230847 0.065150
C53   C     C_R   0.578363 0.678570 0.154119 -0.129529
C54   C     C_R   0.633386 0.722992 0.381950 -0.004882
C55   C     C_R   0.198976 0.059961 0.359701 -0.027712
C56   C     C_R   0.276884 0.120690 0.431208 0.544558
C57   C     C_R   0.172022 0.074129 0.309724 -0.046296
C58   C     C_R   0.131844 0.099310 0.208558 0.011377
C59   C     C_R   0.138823 0.003619 0.232548 0.232751
C60   C     C_R   0.161950 0.990701 0.282174 -0.072466
C61   C     C_R   0.114664 0.113826 0.158266 -0.130595
C62   C     C_R   0.100597 0.213221 0.136301 -0.009452
C63   C     C_R   0.187656 0.246381 0.362193 -0.138432
C64   C     C_R   0.163608 0.260008 0.313124 0.019433
C65   C     C_R   0.158305 0.172807 0.286332 0.037350
C66   C     C_R   0.151375 0.357366 0.290095 -0.121351
C67   C     C_3   0.772064 0.596938 0.736915 -0.101317
C68   C     C_R   0.137046 0.367407 0.240203 -0.121398
C69   C     C_R   0.132380 0.281346 0.213025 0.018785
C70   C     C_R   0.140867 0.184221 0.235957 0.030617
C71   C     C_R   0.114588 0.293858 0.163421 -0.127788
C72   C     C_R   0.214432 0.143776 0.384989 -0.013039
C73   C     C_R   0.569293 0.237423 0.363177 -0.133416
C74   C     C_R   0.574847 0.255914 0.313552 0.014937
C75   C     C_R   0.585189 0.288725 0.213368 0.012902
C76   C     C_R   0.509766 0.380294 0.243630 -0.127166
C77   C     C_R   0.503692 0.363652 0.293345 -0.127685
C78   C     C_3   0.752669 0.689847 0.775636 -0.100252
C79   C     C_R   0.597541 0.305415 0.164175 -0.134334
C80   C     C_R   0.677963 0.213586 0.135265 -0.004712
C81   C     C_R   0.722445 0.040117 0.352524 -0.123789
C82   C     C_R   0.725620 0.055702 0.303066 0.008513
C83   C     C_R   0.651472 0.163757 0.283301 0.062001
C84   C     C_R   0.799676 0.963573 0.272965 -0.115748
C85   C     C_R   0.800671 0.978251 0.223169 -0.118495
C86   C     C_R   0.729578 0.085952 0.203253 0.009788
C87   C     C_R   0.654551 0.179365 0.233232 0.062899
C88   C     C_R   0.737691 0.103092 0.154242 -0.131223
C89   C     C_1   0.697319 0.607646 0.900069 -0.016163
C90   C     C_R   0.641788 0.128898 0.382512 -0.000941
C91   C     C_R   0.049257 0.236135 0.949715 0.545751
C92   C     C_R   0.711682 0.562776 0.948117 0.544613
C93   C     C_R   0.722268 0.225379 0.950868 0.544572
C94   C     C_R   0.047714 0.245531 0.088532 0.547694
C95   C     C_R   0.707428 0.576264 0.085963 0.546653
C96   C     C_R   0.718266 0.234299 0.089340 0.547439
Cr1   Cr    Cr6+3 0.417550 0.169090 0.500530 1.024697
Cr2   Cr    Cr6+3 0.669180 0.913420 0.499920 1.026111
Cr3   Cr    Cr6+3 0.413260 0.917540 0.499520 1.055970
Cr4   Cr    Cr6+3 0.909170 0.177380 0.020380 1.022428
Cr5   Cr    Cr6+3 0.912710 0.429210 0.018220 1.021818
Cr6   Cr    Cr6+3 0.657170 0.432570 0.019030 1.023743
H1    H     H_    0.819414 0.706973 0.790498 0.104285
H2    H     H_    0.294903 0.213584 0.799225 0.103463
H3    H     H_    0.126727 0.347224 0.729275 0.104549
H4    H     H_    0.965385 0.308237 0.778836 0.099297
H5    H     H_    0.471557 0.326862 0.792951 0.104606
H6    H     H_    0.607828 0.359362 0.722774 0.103032
H7    H     H_    0.509041 0.127101 0.741329 0.100468
H8    H     H_    0.705776 0.994196 0.798568 0.103193
H9    H     H_    0.841966 0.026777 0.728600 0.104957
H10   H     H_    0.804547 0.226356 0.780042 0.099487
H11   H     H_    0.856166 0.613895 0.139394 0.123161
H12   H     H_    0.854881 0.537022 0.718960 0.103645
H13   H     H_    0.800715 0.708271 0.379947 0.118745
H14   H     H_    0.934044 0.639004 0.216538 0.101833
H15   H     H_    0.917709 0.663446 0.305243 0.101899
H16   H     H_    0.507601 0.681666 0.133983 0.133019
H17   H     H_    0.396141 0.720651 0.207232 0.139994
H18   H     H_    0.385846 0.729691 0.295876 0.119294
H19   H     H_    0.470525 0.729020 0.372378 0.153981
H20   H     H_    0.107556 0.051074 0.135911 0.132915
H21   H     H_    0.620181 0.867022 0.740471 0.100420
H22   H     H_    0.170226 0.914854 0.299022 0.145370
H23   H     H_    0.103799 0.370929 0.146613 0.129615
H24   H     H_    0.129161 0.442708 0.222878 0.100778
H25   H     H_    0.155647 0.424511 0.310525 0.103065
H26   H     H_    0.194957 0.312989 0.381683 0.135513
H27   H     H_    0.550968 0.390857 0.149459 0.128121
H28   H     H_    0.506687 0.305820 0.386312 0.119822
H29   H     H_    0.456181 0.464806 0.228929 0.112617
H30   H     H_    0.444414 0.435223 0.316049 0.110344
H31   H     H_    0.798385 0.031688 0.131748 0.127818
H32   H     H_    0.487202 0.802012 0.797419 0.103423
H33   H     H_    0.859074 0.906222 0.200428 0.116150
H34   H     H_    0.856637 0.880243 0.287948 0.114129
H35   H     H_    0.777927 0.955583 0.366932 0.135261
H36   H     H_    0.522714 0.632079 0.726111 0.104886
H37   H     H_    0.721796 0.472112 0.775984 0.098738
H38   H     H_    0.199673 0.976394 0.790192 0.104324
H39   H     H_    0.031493 0.110114 0.719980 0.103918
H40   H     H_    0.361134 0.015465 0.740427 0.100473
O1    O     O_R   0.301710 0.195650 0.554160 -0.508337
O2    O     O_R   0.658900 0.818120 0.449760 -0.504038
O3    O     O_R   0.503220 0.801620 0.445520 -0.507809
O4    O     O_R   0.319370 0.022040 0.450020 -0.479426
O5    O     O_3   0.499990 0.000010 0.499990 -0.250722
O6    O     O_R   0.818720 0.150820 0.967160 -0.507923
O7    O     O_R   0.006410 0.181720 0.970200 -0.494852
O8    O     O_R   0.027890 0.334070 0.964920 -0.506772
O9    O     O_R   0.809600 0.521790 0.967960 -0.495830
O10   O     O_R   0.635520 0.542770 0.964420 -0.507412
O11   O     O_R   0.665950 0.325030 0.970100 -0.494698
O12   O     O_R   0.522390 0.158990 0.550460 -0.495132
O13   O     O_R   0.816620 0.158530 0.074540 -0.521233
O14   O     O_R   0.004460 0.188870 0.069750 -0.501887
O15   O     O_R   0.025800 0.341780 0.072300 -0.521399
O16   O     O_R   0.807650 0.528950 0.067500 -0.502683
O17   O     O_R   0.633420 0.550490 0.071810 -0.521339
O18   O     O_R   0.664000 0.332180 0.069640 -0.500505
O19   O     O_3   0.826350 0.346390 0.019210 -0.243968
O20   O     O_R   0.694390 0.003530 0.554040 -0.504661
O21   O     O_R   0.657700 0.819660 0.549320 -0.495872
O22   O     O_R   0.501930 0.803280 0.552920 -0.505369
O23   O     O_R   0.318170 0.023580 0.549580 -0.492617
O24   O     O_R   0.303010 0.193990 0.446760 -0.523888
O25   O     O_R   0.523600 0.157450 0.450900 -0.499442
O26   O     O_R   0.695690 0.001860 0.446640 -0.519471
C97   C     C_1   0.212934 0.959231 0.384250 0.199851
N1    N     N_1   0.223920 0.878831 0.403729 -0.313893
O27   O     O_3   0.124470 0.920365 0.209235 -0.726001
H41   H     H_    0.063684 0.957554 0.184658 0.319277

loop_
_geom_bond_atom_site_label_1
_geom_bond_atom_site_label_2
_ccdc_geom_bond_type
C66   C68   A    
O27   H41   S    
C40   C41   A    
C95   O16   A    
C73   C74   A    
C29   H10   S    
C83   C87   A    
C74   C83   A    
C43   C44   A    
C2    C12   S    
Cr2   O21   S    
C5    H36   S    
C47   C49   A    
C85   C86   A    
C81   H35   S    
C11   C19   S    
C20   C21   S    
C95   O17   A    
C19   C21   S    
C67   H12   S    
C21   H40   S    
C5    C6    S    
C76   H29   S    
C86   C88   A    
C49   H18   S    
Cr2   O5    S    
Cr1   O24   S    
C79   H27   S    
C97   N1    T    
Cr5   O8    S    
C17   C20   S    
C66   H25   S    
C93   O6    A    
C69   C71   A    
C18   C19   S    
C41   C42   A    
C60   H22   S    
Cr1   O1    S    
C23   O23   A    
C44   C53   A    
C40   C43   A    
C31   C32   S    
C16   C17   S    
C56   C72   S    
C74   C77   A    
C92   O10   A    
C45   O2    A    
C31   C33   S    
C46   H19   S    
Cr4   O19   S    
C80   C96   S    
Cr1   O25   S    
C55   C72   A    
C35   H7    S    
C16   H4    S    
Cr4   O14   S    
C58   C61   A    
C15   C23   S    
Cr3   O3    S    
Cr5   O15   S    
C59   C60   A    
C8    C78   S    
Cr1   O5    S    
C23   O1    A    
C1    O12   A    
C67   C78   S    
C4    C7    S    
C59   O27   S    
Cr2   O20   S    
C81   C82   A    
C39   C42   A    
C25   C29   S    
C50   H17   S    
C32   C35   S    
C7    C8    S    
C76   C77   A    
C7    H32   S    
C9    C89   T    
C91   O7    A    
C53   H16   S    
C58   C70   A    
C57   C60   A    
C6    C8    S    
C25   C26   S    
C40   C52   A    
C93   O11   A    
Cr5   O9    S    
C51   C52   A    
C61   H20   S    
C51   C53   A    
C77   H30   S    
C64   C66   A    
Cr6   O17   S    
C75   C76   A    
C34   C90   S    
C4    C78   S    
C29   C30   S    
C12   O22   A    
C11   C16   S    
C47   C48   A    
C38   C54   A    
C29   C31   S    
C61   C62   A    
C46   C54   A    
C92   O9    A    
C50   C51   A    
C13   C21   S    
C8    H21   S    
C1    C28   S    
C46   C47   A    
C32   C37   S    
C84   C85   A    
C89   C92   S    
C11   H39   S    
Cr6   O11   S    
C85   H33   S    
C81   C90   A    
Cr4   O13   S    
C75   C87   A    
C15   C24   T    
C96   O18   A    
Cr3   O4    S    
C45   C54   S    
C26   C30   S    
C94   O15   A    
C82   C84   A    
C62   C94   S    
C27   C36   T    
C49   C50   A    
C45   O3    A    
C27   C93   S    
C3    H37   S    
Cr5   O16   S    
C13   H38   S    
Cr6   O18   S    
C3    C4    S    
C2    C10   T    
C68   H24   S    
C34   O26   A    
C5    C7    S    
Cr3   O5    S    
C73   H28   S    
C84   H34   S    
C30   C33   S    
Cr2   O2    S    
C78   H1    S    
C86   C87   A    
C68   C69   A    
C16   C18   S    
C3    C67   S    
C63   H26   S    
C57   C65   A    
C63   C64   A    
C3    C5    S    
Cr1   O12   S    
C26   H5    S    
C6    C10   S    
C91   O8    A    
C42   H15   S    
C20   H2    S    
C30   C36   S    
Cr4   O7    S    
C17   C22   S    
C13   C17   S    
C64   C65   A    
C14   C22   T    
C55   C57   A    
C19   C24   S    
C58   C59   A    
C18   H3    S    
C80   C88   A    
C44   C95   S    
C6    C67   S    
C43   H11   S    
C12   O21   A    
C38   H13   S    
C11   C13   S    
C38   C39   A    
C28   C37   T    
Cr4   O6    S    
Cr6   O19   S    
Cr5   O19   S    
Cr3   O22   S    
C33   C35   S    
C62   C71   A    
C18   C20   S    
C56   O4    A    
C69   C70   A    
C14   C91   S    
C1    O20   A    
C79   C80   A    
C96   O13   A    
C26   C35   S    
C48   C52   A    
C63   C72   A    
C73   C90   A    
C94   O14   A    
C82   C83   A    
C56   O24   A    
C31   H9    S    
C34   O25   A    
C71   H23   S    
C33   H8    S    
C41   H14   S    
C88   H31   S    
C4    C9    S    
C75   C79   A    
C55   C97   S    
Cr2   O26   S    
C65   C70   A    
C25   H6    S    
Cr6   O10   S    
C39   C48   A    
Cr3   O23   S    
C25   C32   S    
