data_mof_unit_33692.cif
_audit_creation_date              2012-12-11T14:08:13-0500
_audit_creation_method            fapswitch 2.2
_symmetry_space_group_name_H-M    P1
_symmetry_Int_Tables_number       1
_space_group_crystal_system       triclinic
_cell_length_a                    11.048592
_cell_length_b                    10.978508
_cell_length_c                    18.794388
_cell_angle_alpha                 89.703084
_cell_angle_beta                  89.876516
_cell_angle_gamma                 60.550424
_cell_volume                      1985.1136158

loop_
_atom_site_label
_atom_site_type_symbol
_atom_type_description
_atom_site_fract_x
_atom_site_fract_y
_atom_site_fract_z
_atom_type_partial_charge
C1    C     C_R   0.239274 0.643542 0.609442 0.526892
C2    C     C_3   0.677829 0.582652 0.803353 -0.242161
C3    C     C_3   0.718728 0.698925 0.807003 0.045856
C4    C     C_3   0.671762 0.654631 0.675601 0.013212
C5    C     C_3   0.824400 0.619546 0.684117 -0.235365
C6    C     C_3   0.648488 0.557940 0.726886 -0.244351
C7    C     C_2   0.667888 0.178043 0.676030 -0.148907
C8    C     C_2   0.689532 0.183714 0.832865 0.131127
C9    C     C_2   0.796607 0.156178 0.787920 0.129623
C10   C     C_2   0.766026 0.192973 0.711180 -0.127994
C11   C     C_2   0.197041 0.655900 0.684316 -0.119485
C12   C     C_R   0.651926 0.620584 0.602140 0.544348
C13   C     C_2   0.187135 0.665568 0.839590 -0.120155
C14   C     C_2   0.196707 0.553669 0.804166 0.168703
C15   C     C_2   0.195557 0.552251 0.724093 0.169685
C16   C     C_2   0.676166 0.692800 0.340292 0.362938
C17   C     C_2   0.645187 0.657623 0.156532 0.403279
C18   C     C_2   0.692787 0.691766 0.213628 0.357906
C19   C     C_2   0.702177 0.622616 0.280133 -0.067719
C20   C     C_2   0.637439 0.188759 0.322360 -0.002621
C21   C     C_2   0.636338 0.197778 0.164371 0.376661
C22   C     C_2   0.533591 0.211707 0.207648 0.148664
C23   C     C_R   0.625235 0.233679 0.603710 0.536138
C24   C     C_2   0.531726 0.264138 0.277676 0.413927
C25   C     C_2   0.194255 0.663664 0.324244 -0.037813
C26   C     C_2   0.183320 0.643708 0.171955 -0.039016
C27   C     C_2   0.244747 0.708297 0.201877 0.398269
C28   C     C_2   0.258504 0.711233 0.278709 0.162372
C29   C     C_R   0.706106 0.099388 0.896925 0.534191
C30   C     C_R   0.751611 0.710887 0.882897 0.536249
C31   C     C_R   0.119670 0.705820 0.908510 0.539214
C32   C     C_R   0.674643 0.109526 0.102618 0.600446
C33   C     C_R   0.690477 0.684013 0.090187 0.643776
C34   C     C_R   0.230214 0.647069 0.398749 0.596324
C35   C     C_R   0.100427 0.704581 0.109689 0.597099
C36   C     C_R   0.648687 0.631284 0.401093 0.564639
C37   C     C_R   0.616003 0.230403 0.395337 0.585799
C38   C     C_3   0.595161 0.836142 0.775379 0.271506
C39   C     C_3   0.569190 0.810669 0.696610 0.072864
C40   C     C_3   0.848442 0.659974 0.759489 -0.043773
Cr1   Cr    Cr6+3 0.393010 0.398050 0.501480 1.041532
Cr2   Cr    Cr6+3 0.398820 0.707980 0.501630 1.042924
Cr3   Cr    Cr6+3 0.708140 0.393940 0.496850 1.020150
Cr4   Cr    Cr6+3 0.937950 0.938450 0.008940 1.092496
Cr5   Cr    Cr6+3 0.626180 0.937030 0.994750 1.094190
Cr6   Cr    Cr6+3 0.937790 0.625760 0.001410 1.025041
H1    H     H_    0.620304 0.922419 0.777147 0.117898
H2    H     H_    0.720668 0.448101 0.713224 0.136148
H3    H     H_    0.934351 0.565967 0.783061 0.174056
H4    H     H_    0.894094 0.504681 0.678052 0.124999
H5    H     H_    0.830073 0.225781 0.682147 0.138773
H6    H     H_    0.609448 0.136610 0.703610 0.081018
H7    H     H_    0.199482 0.747184 0.814465 0.091913
H8    H     H_    0.184575 0.750533 0.707815 0.065595
H9    H     H_    0.713537 0.518194 0.279379 0.141705
H10   H     H_    0.732361 0.096553 0.305613 0.087932
H11   H     H_    0.172511 0.562073 0.198664 0.056401
H12   H     H_    0.130289 0.620290 0.306527 0.076808
H13   H     H_    0.592319 0.877708 0.661027 0.084915
H14   H     H_    0.852533 0.664955 0.638990 0.124729
H15   H     H_    0.762211 0.482239 0.825220 0.129634
H16   H     H_    0.583109 0.615477 0.835963 0.179594
H17   H     H_    0.541921 0.572352 0.722215 0.139984
O1    O     O_R   0.507110 0.256280 0.580300 -0.543162
O2    O     O_R   0.524640 0.695370 0.425100 -0.468959
O3    O     O_R   0.735890 0.504390 0.415980 -0.543205
O4    O     O_R   0.690560 0.277820 0.422350 -0.498247
O5    O     O_3   0.499990 0.499990 0.499980 -0.260210
O6    O     O_R   0.089190 0.825870 0.932320 -0.497418
O7    O     O_R   0.819070 0.053960 0.931440 -0.521421
O8    O     O_R   0.607070 0.076440 0.916460 -0.514865
O9    O     O_R   0.647110 0.806550 0.917690 -0.432266
O10   O     O_R   0.837080 0.593860 0.915300 -0.563398
O11   O     O_R   0.064770 0.636080 0.932550 -0.519212
O12   O     O_R   0.280830 0.527190 0.577940 -0.502183
O13   O     O_R   0.068250 0.829200 0.092940 -0.429941
O14   O     O_R   0.799650 0.057040 0.080330 -0.456855
O15   O     O_R   0.586130 0.079760 0.077080 -0.518476
O16   O     O_R   0.627700 0.809630 0.066580 -0.483144
O17   O     O_R   0.816140 0.597180 0.075920 -0.498813
O18   O     O_R   0.045360 0.639170 0.081440 -0.505990
O19   O     O_3   0.833980 0.833750 0.001700 -0.298039
O20   O     O_R   0.261360 0.738990 0.584270 -0.522754
O21   O     O_R   0.532590 0.694780 0.574370 -0.474275
O22   O     O_R   0.744470 0.503750 0.577000 -0.544495
O23   O     O_R   0.698520 0.277230 0.571620 -0.503264
O24   O     O_R   0.498530 0.256920 0.419280 -0.461184
O25   O     O_R   0.272880 0.527780 0.428680 -0.460703
O26   O     O_R   0.252780 0.739630 0.423250 -0.504932
N1    N     N_2   0.937232 0.091651 0.813835 -0.505411
H18   H     H_    0.946203 0.127529 0.863011 0.276885
C41   C     C_3   0.045917 0.080756 0.766793 -0.339393
H19   H     H_    0.147853 0.021962 0.794143 0.187974
H20   H     H_    0.028600 0.186611 0.752840 0.119419
H21   H     H_    0.050502 0.023171 0.717785 0.138154
N2    N     N_2   0.560041 0.305788 0.822159 -0.548893
H22   H     H_    0.481760 0.282552 0.814086 0.275281
C42   C     C_3   0.529131 0.406537 0.878530 -0.295472
H23   H     H_    0.450291 0.511264 0.860080 0.147843
H24   H     H_    0.623317 0.411776 0.894241 0.153712
H25   H     H_    0.491106 0.376736 0.926692 0.153268
N3    N     N_2   0.233282 0.427209 0.843906 -0.505178
H26   H     H_    0.276759 0.420893 0.893136 0.255911
C43   C     C_3   0.147419 0.361252 0.844751 -0.290534
H27   H     H_    0.062449 0.413218 0.883484 0.187308
H28   H     H_    0.211680 0.251036 0.862620 0.150950
H29   H     H_    0.105566 0.358159 0.792035 0.151813
N4    N     N_2   0.183083 0.443059 0.690340 -0.514386
H30   H     H_    0.126914 0.469420 0.643611 0.252265
C44   C     C_3   0.308440 0.309518 0.689641 -0.262156
H31   H     H_    0.312864 0.252764 0.640264 0.145189
H32   H     H_    0.312411 0.244629 0.735465 0.148576
H33   H     H_    0.399029 0.325495 0.693959 0.187273
F1    F     F_    0.475534 0.879893 0.815847 -0.650482
F2    F     F_    0.746077 0.780467 0.208725 -0.633553
F3    F     F_    0.596302 0.565534 0.159917 -0.617762
F4    F     F_    0.641276 0.830306 0.341475 -0.628193
N5    N     N_2   0.450705 0.147167 0.193453 -0.516334
H34   H     H_    0.505135 0.039619 0.198169 0.304614
C45   C     C_3   0.313745 0.209212 0.224991 -0.252226
H35   H     H_    0.256050 0.159550 0.202307 0.152096
H36   H     H_    0.254614 0.322551 0.212542 0.186360
H37   H     H_    0.321597 0.192711 0.283552 0.171748
F5    F     F_    0.415605 0.382080 0.298575 -0.651256
F6    F     F_    0.718683 0.253166 0.182597 -0.615575
F7    F     F_    0.279823 0.790148 0.161667 -0.608245
N6    N     N_2   0.424880 0.844463 0.685999 -0.445767
H38   H     H_    0.383283 0.803681 0.721823 0.281423
C46   C     C_3   0.328464 0.982374 0.659621 -0.279211
H39   H     H_    0.235239 0.982385 0.637938 0.145235
H40   H     H_    0.375397 0.013430 0.615786 0.135329
H41   H     H_    0.296160 0.057930 0.703789 0.143322
N7    N     N_2   0.337723 0.773011 0.303732 -0.433054
H42   H     H_    0.426794 0.742539 0.274570 0.288288
C47   C     C_3   0.259411 0.923888 0.310408 -0.241826
H43   H     H_    0.325942 0.961561 0.335309 0.166751
H44   H     H_    0.166136 0.956328 0.344312 0.155598
H45   H     H_    0.225553 0.973924 0.257307 0.180400
N8    N     N_2   0.890783 0.767086 0.760605 -0.537031
H46   H     H_    0.882509 0.815147 0.808752 0.251244
C48   C     C_3   0.877832 0.851851 0.698861 -0.304452
H47   H     H_    0.917920 0.922487 0.712004 0.171593
H48   H     H_    0.769313 0.910593 0.681205 0.121331
H49   H     H_    0.942557 0.789230 0.654022 0.145866

loop_
_geom_bond_atom_site_label_1
_geom_bond_atom_site_label_2
_ccdc_geom_bond_type
C15   N4    S    
C7    C10   D    
Cr5   O8    S    
Cr5   O19   S    
C1    C11   S    
C20   H10   S    
N5    C45   S    
C43   H28   S    
C35   O18   A    
C47   H43   S    
C25   C28   D    
C26   C27   D    
C6    H2    S    
C12   O22   A    
C8    C29   S    
Cr4   O14   S    
C7    H6    S    
C46   H39   S    
Cr4   O19   S    
C48   H48   S    
C38   C39   S    
C38   F1    S    
C27   F7    S    
C36   O3    A    
C14   N3    S    
C40   H3    S    
C40   N8    S    
C24   F5    S    
N4    H30   S    
C12   O21   A    
C22   N5    S    
C18   C19   S    
Cr4   O13   S    
N5    H34   S    
C8    N2    S    
C32   O14   A    
C44   H31   S    
C11   C15   D    
C20   C24   D    
C3    C38   S    
C8    C9    D    
C23   O23   A    
N2    C42   S    
Cr2   O2    S    
Cr4   O7    S    
Cr5   O15   S    
C13   C14   D    
C4    C12   S    
C9    C10   S    
C45   H37   S    
C25   C34   S    
C46   H41   S    
Cr6   O19   S    
C21   C22   D    
Cr5   O9    S    
Cr2   O5    S    
C2    C6    S    
C17   C33   S    
C10   H5    S    
C43   H27   S    
C45   H36   S    
Cr1   O5    S    
C13   H7    S    
Cr1   O24   S    
C21   C32   S    
C35   O13   A    
C39   N6    S    
C28   N7    S    
C1    O12   A    
Cr2   O21   S    
C4    C6    S    
C48   H49   S    
C30   O10   A    
C36   O2    A    
C33   O16   A    
C31   O11   A    
C41   H21   S    
Cr3   O22   S    
C6    H17   S    
C9    N1    S    
C3    C30   S    
N6    C46   S    
Cr1   O12   S    
Cr6   O18   S    
N1    C41   S    
C4    C39   S    
C39   H13   S    
N2    H22   S    
C41   H20   S    
C17   C18   D    
Cr4   O6    S    
Cr5   O16   S    
C34   O25   A    
N3    C43   S    
C11   H8    S    
C44   H33   S    
C38   H1    S    
C47   H45   S    
C23   O1    A    
C3    C40   S    
C42   H24   S    
N7    H42   S    
C22   C24   S    
C5    H4    S    
C25   H12   S    
C21   F6    S    
N6    H38   S    
Cr6   O11   S    
C45   H35   S    
C29   O7    A    
C19   H9    S    
C47   H44   S    
Cr1   O25   S    
C5    H14   S    
Cr3   O23   S    
C13   C31   S    
C37   O24   A    
Cr2   O20   S    
C4    C5    S    
C18   F2    S    
C30   O9    A    
N8    H46   S    
C2    H15   S    
C33   O17   A    
C1    O20   A    
C42   H25   S    
Cr3   O5    S    
Cr2   O26   S    
C2    C3    S    
C34   O26   A    
C48   H47   S    
C16   C36   S    
Cr6   O17   S    
C20   C37   S    
N8    C48   S    
Cr3   O3    S    
N1    H18   S    
C16   C19   D    
C7    C23   S    
C37   O4    A    
C41   H19   S    
N4    C44   S    
Cr6   O10   S    
N3    H26   S    
C26   H11   S    
C44   H32   S    
C32   O15   A    
C26   C35   S    
C31   O6    A    
Cr3   O4    S    
C42   H23   S    
C5    C40   S    
C27   C28   S    
N7    C47   S    
C14   C15   S    
Cr1   O1    S    
C46   H40   S    
C16   F4    S    
C43   H29   S    
C2    H16   S    
C17   F3    S    
C29   O8    A    
