data_mof_unit_60090.cif
_audit_creation_date              2012-12-10T20:24:42-0500
_audit_creation_method            fapswitch 2.2
_symmetry_space_group_name_H-M    P1
_symmetry_Int_Tables_number       1
_space_group_crystal_system       triclinic
_cell_length_a                    10.678817
_cell_length_b                    19.23915
_cell_length_c                    18.664832
_cell_angle_alpha                 89.765617
_cell_angle_beta                  90.008157
_cell_angle_gamma                 90.854623
_cell_volume                      3834.25648434

loop_
_atom_site_label
_atom_site_type_symbol
_atom_type_description
_atom_site_fract_x
_atom_site_fract_y
_atom_site_fract_z
_atom_type_partial_charge
C1    C     C_R   0.500909 0.365888 0.500019 1.072436
C2    C     C_R   0.502794 0.634238 0.499828 1.045871
C3    C     C_R   0.872172 0.499615 0.501247 -0.307562
C4    C     C_R   0.128106 0.501851 0.500054 -0.280952
C5    C     C_R   0.936552 0.455174 0.548116 -0.068131
C6    C     C_R   0.063973 0.548350 0.455397 -0.074109
C7    C     C_R   0.575386 0.743163 0.441247 0.478572
C8    C     C_R   0.445723 0.249880 0.549274 0.515279
C9    C     C_R   0.589451 0.814871 0.441002 0.621091
C10   C     C_R   0.458725 0.178217 0.548700 0.591883
C11   C     C_R   0.543860 0.853487 0.498430 -0.232133
C12   C     C_R   0.537209 0.147662 0.498130 -0.213673
C13   C     C_R   0.486084 0.820276 0.556888 0.651088
C14   C     C_R   0.602098 0.188274 0.447783 0.642360
C15   C     C_R   0.472993 0.748442 0.557699 0.532803
C16   C     C_R   0.589253 0.259853 0.448213 0.492411
C17   C     C_R   0.516176 0.709537 0.499411 -0.523609
C18   C     C_R   0.511516 0.290920 0.499277 -0.541726
C19   C     C_R   0.614536 0.965677 0.549399 0.605573
C20   C     C_R   0.485547 0.036212 0.441116 0.596733
C21   C     C_R   0.612146 0.037771 0.549619 0.597934
C22   C     C_R   0.486994 0.964201 0.441153 0.589737
C23   C     C_R   0.260483 0.500936 0.499958 0.998284
C24   C     C_R   0.739627 0.499363 0.500240 0.996833
C25   C     C_R   0.546656 0.072801 0.495846 -0.257126
C26   C     C_R   0.550410 0.928862 0.495732 -0.265692
C27   C     C_R   0.531339 0.559362 0.726369 0.495530
C28   C     C_R   0.393999 0.480377 0.273730 0.418500
C29   C     C_R   0.511601 0.563815 0.800767 0.393398
C30   C     C_R   0.384790 0.491103 0.199267 0.434372
C31   C     C_R   0.493296 0.501879 0.841594 -0.209822
C32   C     C_R   0.495518 0.503392 0.158432 -0.221592
C33   C     C_R   0.478000 0.439702 0.802580 0.746536
C34   C     C_R   0.607333 0.513805 0.197457 0.684894
C35   C     C_R   0.467282 0.441403 0.727660 0.266220
C36   C     C_R   0.604386 0.519828 0.272335 0.349000
C37   C     C_R   0.410641 0.458439 0.962985 0.363376
C38   C     C_R   0.570997 0.550509 0.036984 0.366090
C39   C     C_R   0.421745 0.454524 0.038554 0.469297
C40   C     C_R   0.578814 0.544252 0.961502 0.479662
C41   C     C_R   0.496307 0.502882 0.076974 -0.122943
C42   C     C_R   0.494218 0.501303 0.923045 -0.119630
C43   C     C_R   0.233536 0.716008 0.404054 0.152421
C44   C     C_R   0.783130 0.293791 0.629082 0.157226
C45   C     C_R   0.176393 0.662295 0.445191 0.392003
C46   C     C_R   0.842726 0.339675 0.579825 0.415525
C47   C     C_R   0.129165 0.602151 0.411082 -0.146095
C48   C     C_R   0.872059 0.408362 0.600308 -0.123842
C49   C     C_R   0.137890 0.595822 0.335532 0.310234
C50   C     C_R   0.843532 0.431378 0.670524 0.247953
C51   C     C_R   0.200934 0.647408 0.296196 0.649476
C52   C     C_R   0.787495 0.385155 0.719064 0.636498
C53   C     C_R   0.252107 0.706169 0.329497 0.206387
C54   C     C_R   0.759329 0.316574 0.700061 0.240995
C55   C     C_R   0.934948 0.546876 0.456545 0.635502
C56   C     C_R   0.065453 0.455916 0.546272 0.643034
N1    N     N_R   0.500020 0.499980 0.689440 -0.292242
N2    N     N_R   0.499980 0.500020 0.310560 -0.285819
O1    O     O_R   0.500010 0.398180 0.560840 -0.603769
O2    O     O_R   0.499990 0.601820 0.439160 -0.618203
O3    O     O_R   0.499950 0.398180 0.439210 -0.587699
O4    O     O_R   0.500050 0.601820 0.560790 -0.561709
O5    O     O_R   0.316790 0.500010 0.560810 -0.575019
O6    O     O_R   0.683210 0.499990 0.439190 -0.549897
O7    O     O_R   0.316730 0.500000 0.439190 -0.654235
O8    O     O_R   0.683270 0.500000 0.560810 -0.683162
Zn1   Zn    Zn3+2 0.500040 0.500000 0.581210 1.027083
Zn2   Zn    Zn3+2 0.499960 0.500000 0.418790 1.035814
O9    O     O_3   0.319731 0.752459 0.287509 -0.587100
H1    H     H_    0.381276 0.777356 0.318128 0.389465
O10   O     O_3   0.711449 0.273268 0.752762 -0.570970
H2    H     H_    0.736668 0.225016 0.742504 0.395057
F1    F     F_    0.414206 0.717384 0.614134 -0.525338
F2    F     F_    0.654986 0.298869 0.399975 -0.538209
F3    F     F_    0.678004 0.931670 0.601601 -0.505277
F4    F     F_    0.421123 0.070332 0.389372 -0.515656
F5    F     F_    0.672271 0.073413 0.602332 -0.525457
F6    F     F_    0.422894 0.928878 0.389684 -0.546376
O11   O     O_3   0.583460 0.616014 0.692274 -0.576364
H3    H     H_    0.642518 0.597396 0.656505 0.361339
O12   O     O_3   0.294451 0.449021 0.307950 -0.632779
H4    H     H_    0.330190 0.418812 0.345522 0.373509
O13   O     O_3   0.512469 0.629238 0.830769 -0.556323
H5    H     H_    0.460055 0.627718 0.874537 0.353939
O14   O     O_3   0.266833 0.488133 0.169193 -0.530231
H6    H     H_    0.267372 0.517306 0.125348 0.370194
F7    F     F_    0.471107 0.377053 0.836198 -0.479145
F8    F     F_    0.719784 0.519578 0.163859 -0.499365
O15   O     O_3   0.419956 0.383462 0.694486 -0.570065
H7    H     H_    0.360772 0.400759 0.657935 0.419530
O16   O     O_3   0.707785 0.547543 0.305498 -0.570145
H8    H     H_    0.675173 0.578745 0.342875 0.422200
O17   O     O_3   0.317015 0.422072 0.927491 -0.618459
H9    H     H_    0.262007 0.397927 0.962651 0.421869
O18   O     O_3   0.633272 0.603720 0.072341 -0.606186
H10   H     H_    0.675219 0.634882 0.037123 0.419213
F9    F     F_    0.358844 0.403270 0.074404 -0.556665
F10   F     F_    0.669257 0.580704 0.925734 -0.549684
O19   O     O_3   0.265935 0.777621 0.437442 -0.752925
H11   H     H_    0.264101 0.815843 0.401819 0.413826
O20   O     O_3   0.748769 0.228075 0.606266 -0.709565
H12   H     H_    0.676245 0.211461 0.634889 0.386432
O21   O     O_3   0.160228 0.667889 0.518509 -0.681884
H13   H     H_    0.198057 0.711954 0.535807 0.424958
O22   O     O_3   0.872614 0.319557 0.510889 -0.650899
H14   H     H_    0.853379 0.269498 0.504524 0.418026
O23   O     O_3   0.087400 0.540431 0.297786 -0.547647
H15   H     H_    0.051332 0.505451 0.331083 0.382388
O24   O     O_3   0.869338 0.498014 0.694457 -0.642375
H16   H     H_    0.905703 0.526680 0.655407 0.357939
F11   F     F_    0.214252 0.639841 0.224320 -0.533777
F12   F     F_    0.763783 0.406682 0.786842 -0.536148
F13   F     F_    0.870836 0.594176 0.417241 -0.592434
F14   F     F_    0.129853 0.411335 0.588904 -0.602900
F15   F     F_    0.621672 0.706821 0.385216 -0.556713
F16   F     F_    0.365725 0.278716 0.596662 -0.514532
F17   F     F_    0.647644 0.846797 0.384856 -0.513404
F18   F     F_    0.393470 0.138413 0.596438 -0.514375
F19   F     F_    0.438748 0.857686 0.611905 -0.507505
F20   F     F_    0.678123 0.158438 0.398749 -0.518535

loop_
_geom_bond_atom_site_label_1
_geom_bond_atom_site_label_2
_ccdc_geom_bond_type
C38   C40   A    
O17   H9    S    
C31   C42   S    
C27   C29   A    
C9    F17   S    
C5    C56   A    
O18   H10   S    
C6    C55   A    
C53   O9    S    
O12   H4    S    
C39   C41   A    
O14   H6    S    
C1    C18   S    
O20   H12   S    
O4    Zn1   S    
C16   F2    S    
O6    Zn2   S    
C19   C21   A    
C43   O19   S    
C29   O13   S    
C36   N2    A    
C1    O1    A    
C40   F10   S    
C2    O2    A    
C39   F9    S    
C20   C25   A    
C52   F12   S    
C46   O22   S    
C20   F4    S    
C15   C17   A    
C7    F15   S    
C37   C42   A    
C19   C26   A    
C45   O21   S    
O1    Zn1   S    
C3    C55   A    
C43   C53   A    
C54   O10   S    
O19   H11   S    
C52   C54   A    
C49   C51   A    
C38   O18   S    
C50   C52   A    
C32   C41   S    
C31   C33   A    
C24   O8    A    
C23   O5    A    
O8    Zn1   S    
C24   O6    A    
C4    C56   A    
C2    C17   S    
C3    C24   S    
N1    Zn1   S    
C13   F19   S    
C44   C46   A    
C46   C48   A    
C45   C47   A    
C37   C39   A    
C5    C48   S    
O5    Zn1   S    
C6    C47   S    
C22   F6    S    
C38   C41   A    
C49   O23   S    
C27   N1    A    
O16   H8    S    
C4    C23   S    
C55   F13   S    
C11   C26   S    
C7    C17   A    
C50   O24   S    
C8    C18   A    
C51   C53   A    
C32   C34   A    
C10   F18   S    
C9    C11   A    
O13   H5    S    
O23   H15   S    
O7    Zn2   S    
C37   O17   S    
C16   C18   A    
C34   F8    S    
C30   O14   S    
C48   C50   A    
C43   C45   A    
C10   C12   A    
C35   O15   S    
C36   O16   S    
N2    Zn2   S    
C15   F1    S    
C12   C14   A    
C14   F20   S    
C13   C15   A    
C14   C16   A    
C4    C6    A    
C7    C9    A    
C21   C25   A    
C51   F11   S    
C28   O12   S    
C20   C22   A    
C3    C5    A    
C1    O3    A    
C44   O20   S    
C28   N2    A    
C47   C49   A    
O22   H14   S    
C27   O11   S    
C12   C25   S    
C35   N1    A    
C23   O7    A    
C19   F3    S    
C33   F7    S    
C28   C30   A    
C29   C31   A    
O24   H16   S    
C30   C32   A    
C11   C13   A    
O3    Zn2   S    
C40   C42   A    
C33   C35   A    
C34   C36   A    
O9    H1    S    
C8    F16   S    
O11   H3    S    
C44   C54   A    
O10   H2    S    
O2    Zn2   S    
C8    C10   A    
C22   C26   A    
C21   F5    S    
O21   H13   S    
C56   F14   S    
O15   H7    S    
C2    O4    A    
