data_mof_unit_64110.cif
_audit_creation_date              2012-12-10T19:36:46-0500
_audit_creation_method            fapswitch 2.2
_symmetry_space_group_name_H-M    P1
_symmetry_Int_Tables_number       1
_space_group_crystal_system       triclinic
_cell_length_a                    30.700572
_cell_length_b                    30.502583
_cell_length_c                    24.675191
_cell_angle_alpha                 90.096049
_cell_angle_beta                  128.42414
_cell_angle_gamma                 90.008584
_cell_volume                      18102.7113586

loop_
_atom_site_label
_atom_site_type_symbol
_atom_type_description
_atom_site_fract_x
_atom_site_fract_y
_atom_site_fract_z
_atom_type_partial_charge
C1    C     C_R   0.809434 0.810110 0.499246 0.866502
C2    C     C_R   0.189758 0.810204 0.499365 0.877371
C3    C     C_R   0.310187 0.310188 0.500629 0.872503
C4    C     C_R   0.690498 0.310137 0.500629 0.868830
C5    C     C_R   0.647451 0.752190 0.290108 -0.117149
C6    C     C_R   0.353436 0.751762 0.710081 -0.117958
C7    C     C_R   0.145563 0.249816 0.289687 -0.124315
C8    C     C_R   0.855294 0.249829 0.710544 -0.125880
C9    C     C_R   0.467118 0.754804 0.930404 0.337393
C10   C     C_R   0.536371 0.755153 0.069773 0.334694
C11   C     C_R   0.968809 0.240863 0.930432 0.335293
C12   C     C_R   0.036736 0.241029 0.069718 0.333026
C13   C     C_R   0.895917 0.850581 0.558400 0.092581
C14   C     C_R   0.145783 0.840860 0.546125 0.137702
C15   C     C_R   0.348848 0.343395 0.449047 0.102751
C16   C     C_R   0.603553 0.349900 0.441718 0.098273
C17   C     C_R   0.841485 0.843769 0.499518 -0.082590
C18   C     C_R   0.158339 0.843960 0.500899 -0.106078
C19   C     C_R   0.341548 0.343986 0.499306 -0.095937
C20   C     C_R   0.658359 0.343870 0.500118 -0.079935
C21   C     C_R   0.815974 0.873497 0.444506 -0.185602
C22   C     C_R   0.144682 0.882129 0.461582 -0.194505
C23   C     C_R   0.359862 0.380123 0.543882 -0.191351
C24   C     C_R   0.684069 0.374489 0.554191 -0.201941
C25   C     C_R   0.847990 0.905906 0.444665 -0.178439
C26   C     C_R   0.111966 0.914042 0.460912 -0.208461
C27   C     C_R   0.392391 0.412119 0.544283 -0.201291
C28   C     C_R   0.652044 0.406851 0.554057 -0.188798
C29   C     C_R   0.904927 0.908912 0.500769 -0.117160
C30   C     C_R   0.094723 0.908111 0.501256 -0.097166
C31   C     C_R   0.404788 0.408336 0.498578 -0.098007
C32   C     C_R   0.594866 0.408988 0.498798 -0.114907
C33   C     C_R   0.927320 0.883009 0.559160 0.146937
C34   C     C_R   0.114928 0.873053 0.547037 0.165054
C35   C     C_R   0.379750 0.375585 0.448245 0.163565
C36   C     C_R   0.572134 0.382346 0.440879 0.152706
C37   C     C_3   0.978353 0.855150 0.598190 -0.471655
C38   C     C_3   0.083336 0.840701 0.555952 -0.515952
C39   C     C_3   0.405948 0.343782 0.430189 -0.512523
C40   C     C_3   0.521395 0.354060 0.403123 -0.481407
C41   C     C_3   0.943557 0.819356 0.597321 -0.466376
C42   C     C_3   0.117138 0.805129 0.554542 -0.441836
C43   C     C_3   0.371680 0.308272 0.430908 -0.455497
C44   C     C_3   0.556227 0.318230 0.404133 -0.475798
C45   C     C_R   0.683468 0.750623 0.365544 0.842337
C46   C     C_R   0.316597 0.750675 0.634509 0.830767
C47   C     C_R   0.183213 0.250415 0.365410 0.823859
C48   C     C_R   0.816948 0.250448 0.634684 0.844822
C49   C     C_R   0.861577 0.709869 0.746532 -0.039329
C50   C     C_R   0.163986 0.760508 0.250296 -0.023072
C51   C     C_R   0.334309 0.257766 0.748966 -0.027232
C52   C     C_R   0.638677 0.209953 0.253290 -0.035289
C53   C     C_R   0.895913 0.711909 0.818921 -0.095515
C54   C     C_R   0.124484 0.763165 0.178191 -0.117531
C55   C     C_R   0.373202 0.260283 0.821203 -0.117665
C56   C     C_R   0.603761 0.211806 0.180873 -0.100243
C57   C     C_R   0.921541 0.751382 0.853868 0.029988
C58   C     C_R   0.068829 0.752127 0.144619 0.031419
C59   C     C_R   0.429465 0.251404 0.855251 0.033699
C60   C     C_R   0.576828 0.250907 0.146057 0.030038
C61   C     C_R   0.912601 0.789345 0.816462 -0.142117
C62   C     C_R   0.052021 0.738576 0.183146 -0.142812
C63   C     C_R   0.447446 0.240205 0.817092 -0.147118
C64   C     C_R   0.585066 0.288707 0.183609 -0.142457
C65   C     C_R   0.877919 0.788049 0.744735 -0.171024
C66   C     C_R   0.090187 0.737224 0.254832 -0.169406
C67   C     C_R   0.409817 0.239080 0.745355 -0.174942
C68   C     C_R   0.620393 0.287633 0.255379 -0.171615
C69   C     C_R   0.852767 0.748637 0.709538 -0.107154
C70   C     C_R   0.146069 0.748595 0.289256 -0.134085
C71   C     C_R   0.353386 0.248335 0.710545 -0.128889
C72   C     C_R   0.646836 0.248564 0.290442 -0.106215
C73   C     C_R   0.028981 0.753268 0.069148 0.293713
C74   C     C_R   0.958393 0.752720 0.929420 0.295003
C75   C     C_R   0.539593 0.252031 0.070501 0.293980
C76   C     C_R   0.468908 0.252405 0.930770 0.292087
C77   C     C_R   0.628751 0.628250 0.450516 0.134393
C78   C     C_R   0.342396 0.650714 0.447287 0.125810
C79   C     C_R   0.174693 0.135886 0.556851 0.118675
C80   C     C_R   0.870442 0.127865 0.548909 0.145420
C81   C     C_R   0.659915 0.657468 0.504717 -0.179224
C82   C     C_R   0.343861 0.657100 0.503753 -0.170707
C83   C     C_R   0.156424 0.157448 0.497043 -0.164651
C84   C     C_R   0.840123 0.157455 0.495300 -0.180152
C85   C     C_R   0.658235 0.654938 0.560815 -0.054677
C86   C     C_R   0.378180 0.629791 0.562465 -0.049591
C87   C     C_R   0.103673 0.146872 0.434368 -0.052018
C88   C     C_R   0.842801 0.155337 0.439966 -0.057658
C89   C     C_R   0.690707 0.690060 0.501033 0.849732
C90   C     C_R   0.309966 0.690036 0.500410 0.853439
C91   C     C_R   0.190540 0.190090 0.500546 0.851099
C92   C     C_R   0.809273 0.190052 0.498915 0.850861
C93   C     C_R   0.624692 0.622394 0.558787 -0.161342
C94   C     C_R   0.409685 0.597101 0.560669 -0.171359
C95   C     C_R   0.071739 0.114478 0.435787 -0.169459
C96   C     C_R   0.876426 0.122834 0.442125 -0.158106
C97   C     C_R   0.592984 0.593788 0.501626 -0.161050
C98   C     C_R   0.406476 0.591778 0.501457 -0.160050
C99   C     C_R   0.092068 0.093452 0.498462 -0.167032
C100  C     C_R   0.907224 0.093835 0.498648 -0.160138
C101  C     C_R   0.595955 0.598260 0.448379 0.133548
C102  C     C_R   0.371666 0.619047 0.445699 0.138599
C103  C     C_R   0.143808 0.105464 0.557756 0.142359
C104  C     C_R   0.903346 0.097909 0.551207 0.134370
C105  C     C_3   0.575410 0.580675 0.379806 -0.454801
C106  C     C_3   0.351925 0.630760 0.375111 -0.428335
C107  C     C_3   0.185948 0.097465 0.633478 -0.424639
C108  C     C_3   0.922564 0.079711 0.618815 -0.451087
C109  C     C_3   0.612710 0.615611 0.381944 -0.481553
C110  C     C_3   0.317910 0.667051 0.376806 -0.505356
C111  C     C_3   0.221312 0.132716 0.632339 -0.511494
C112  C     C_3   0.885174 0.114613 0.616535 -0.498695
C113  C     C_R   0.439590 0.559802 0.500162 0.894929
C114  C     C_R   0.560071 0.560303 0.500219 0.896439
C115  C     C_R   0.939968 0.060286 0.499880 0.896231
C116  C     C_R   0.060044 0.060279 0.499888 0.895079
C117  C     C_R   0.939645 0.939913 0.500036 0.874878
C118  C     C_R   0.060051 0.939783 0.500056 0.876419
C119  C     C_R   0.439832 0.439786 0.499858 0.875165
C120  C     C_R   0.560273 0.439912 0.499840 0.875091
C121  C     C_R   0.816558 0.749447 0.634364 0.815202
C122  C     C_R   0.183621 0.749047 0.365227 0.840948
C123  C     C_R   0.316270 0.249035 0.634694 0.835231
C124  C     C_R   0.683337 0.249447 0.365627 0.813842
C125  C     C_R   0.668306 0.763469 0.254574 -0.026460
C126  C     C_R   0.333242 0.760968 0.747026 -0.013329
C127  C     C_R   0.126465 0.288750 0.250304 -0.052243
C128  C     C_R   0.878418 0.288660 0.750293 -0.051052
C129  C     C_R   0.631610 0.763114 0.181228 -0.058983
C130  C     C_R   0.370880 0.760533 0.820339 -0.061012
C131  C     C_R   0.090913 0.285688 0.177122 -0.061466
C132  C     C_R   0.915566 0.285596 0.823443 -0.059969
C133  C     C_R   0.574119 0.755394 0.145384 -0.055841
C134  C     C_R   0.428456 0.754687 0.854828 -0.057335
C135  C     C_R   0.073141 0.243814 0.145114 -0.050210
C136  C     C_R   0.931492 0.243672 0.855032 -0.046589
C137  C     C_R   0.553565 0.746244 0.182067 0.028221
C138  C     C_R   0.448254 0.747321 0.816853 0.028935
C139  C     C_R   0.092037 0.205154 0.185381 0.025217
C140  C     C_R   0.908724 0.205092 0.814487 0.019521
C141  C     C_R   0.590919 0.744100 0.254014 -0.275484
C142  C     C_R   0.410110 0.745359 0.744920 -0.262777
C143  C     C_R   0.128498 0.208905 0.257157 -0.256092
C144  C     C_R   0.870073 0.208931 0.742866 -0.274175
H1    H     H_    0.956248 0.811898 0.649442 0.207466
H2    H     H_    0.091795 0.783419 0.508387 0.214972
H3    H     H_    0.397315 0.283987 0.473120 0.219293
H4    H     H_    0.543053 0.310113 0.351926 0.206905
H5    H     H_    0.931920 0.820141 0.842668 0.156903
H6    H     H_    0.009122 0.729808 0.157881 0.161098
H7    H     H_    0.490820 0.233137 0.842710 0.158021
H8    H     H_    0.564736 0.319216 0.157468 0.156796
H9    H     H_    0.622931 0.619546 0.601168 0.209518
H10   H     H_    0.436577 0.576019 0.605094 0.208676
H11   H     H_    0.031256 0.105876 0.388372 0.215393
H12   H     H_    0.878901 0.120272 0.400288 0.209921
H13   H     H_    0.589499 0.546492 0.383291 0.207132
H14   H     H_    0.386027 0.643502 0.375461 0.204456
H15   H     H_    0.170920 0.107562 0.662602 0.213405
H16   H     H_    0.907875 0.045548 0.613952 0.203778
H17   H     H_    0.575822 0.736418 0.282680 0.135971
H18   H     H_    0.424676 0.739105 0.715268 0.137527
H19   H     H_    0.143420 0.179446 0.288515 0.141869
H20   H     H_    0.852515 0.179469 0.711420 0.144468
H21   H     H_    0.772381 0.870245 0.400401 0.167474
H22   H     H_    0.156780 0.886111 0.428930 0.168094
H23   H     H_    0.351524 0.382315 0.580509 0.167116
H24   H     H_    0.727865 0.371990 0.597708 0.151502
H25   H     H_    0.992275 0.846853 0.567263 0.196940
H26   H     H_    0.092673 0.844092 0.607102 0.223624
H27   H     H_    0.393597 0.349900 0.377908 0.216161
H28   H     H_    0.508061 0.346173 0.434776 0.194768
H29   H     H_    0.011288 0.868274 0.650830 0.215157
H30   H     H_    0.038370 0.839591 0.510729 0.197528
H31   H     H_    0.451389 0.340185 0.472263 0.193975
H32   H     H_    0.487991 0.366557 0.350322 0.213486
H33   H     H_    0.937445 0.790247 0.566041 0.224479
H34   H     H_    0.145572 0.787836 0.604761 0.226344
H35   H     H_    0.339301 0.293988 0.378950 0.208623
H36   H     H_    0.563004 0.289528 0.436301 0.221594
N1    N     N_R   0.518922 0.716662 0.034579 -0.119688
N2    N     N_R   0.484681 0.716490 0.965787 -0.115239
N3    N     N_R   0.981456 0.234099 0.033357 -0.118178
N4    N     N_R   0.947927 0.234013 0.964593 -0.123627
N5    N     N_R   0.484576 0.793283 0.965600 -0.151115
N6    N     N_R   0.518805 0.793456 0.034371 -0.151230
N7    N     N_R   0.024106 0.247667 0.966805 -0.150111
N8    N     N_R   0.057619 0.247774 0.035545 -0.145517
N9    N     N_R   0.001314 0.781547 0.964365 -0.160874
N10   N     N_R   0.985618 0.724829 0.034232 -0.153891
N11   N     N_R   0.513547 0.225309 0.965534 -0.158888
N12   N     N_R   0.495322 0.279491 0.035726 -0.161999
N13   N     N_R   0.036178 0.781671 0.033072 -0.160413
N14   N     N_R   0.951028 0.724440 0.965487 -0.153863
N15   N     N_R   0.548177 0.224987 0.034271 -0.156572
N16   N     N_R   0.460403 0.279517 0.967002 -0.159937
O1    O     O_R   0.821670 0.769930 0.500000 -0.622496
O2    O     O_R   0.178330 0.769930 0.500000 -0.629459
O3    O     O_R   0.321670 0.269930 0.500000 -0.621995
O4    O     O_R   0.678330 0.269930 0.500000 -0.617679
O5    O     O_R   0.482840 0.545830 0.557470 -0.623989
O6    O     O_R   0.517160 0.545830 0.442530 -0.623376
O7    O     O_R   0.982840 0.045830 0.557470 -0.621130
O8    O     O_R   0.017160 0.045830 0.442530 -0.626173
O9    O     O_R   0.925420 0.954200 0.442500 -0.614776
O10   O     O_R   0.074580 0.954200 0.557500 -0.617538
O11   O     O_R   0.425420 0.454200 0.442500 -0.616665
O12   O     O_R   0.574580 0.454200 0.557500 -0.617232
O13   O     O_R   0.982890 0.954220 0.557510 -0.622476
O14   O     O_R   0.017110 0.954220 0.442490 -0.614670
O15   O     O_R   0.482890 0.454220 0.557510 -0.618944
O16   O     O_R   0.517110 0.454220 0.442490 -0.622174
O17   O     O_R   0.769920 0.821660 0.500020 -0.616101
O18   O     O_R   0.230080 0.821660 0.499980 -0.612029
O19   O     O_R   0.269920 0.321660 0.500020 -0.614004
O20   O     O_R   0.730080 0.321660 0.499980 -0.617077
O21   O     O_R   0.724940 0.724130 0.398140 -0.627142
O22   O     O_R   0.275060 0.724130 0.601860 -0.632953
O23   O     O_R   0.224940 0.224130 0.398140 -0.611625
O24   O     O_R   0.775060 0.224130 0.601860 -0.608798
O25   O     O_R   0.673180 0.775850 0.398150 -0.602102
O26   O     O_R   0.326820 0.775850 0.601850 -0.601378
O27   O     O_R   0.173180 0.275850 0.398150 -0.616138
O28   O     O_R   0.826820 0.275850 0.601850 -0.617156
O29   O     O_R   0.730060 0.678320 0.499990 -0.610889
O30   O     O_R   0.269940 0.678320 0.500010 -0.615620
O31   O     O_R   0.230060 0.178320 0.499990 -0.616844
O32   O     O_R   0.769940 0.178320 0.500010 -0.618427
O33   O     O_R   0.678300 0.730040 0.500010 -0.624955
O34   O     O_R   0.321700 0.730040 0.499990 -0.618969
O35   O     O_R   0.178300 0.230040 0.500010 -0.617635
O36   O     O_R   0.821700 0.230040 0.499990 -0.617171
O37   O     O_R   0.826790 0.724120 0.601860 -0.620031
O38   O     O_R   0.173210 0.724120 0.398140 -0.607135
O39   O     O_R   0.326790 0.224120 0.601860 -0.612668
O40   O     O_R   0.673210 0.224120 0.398140 -0.623283
O41   O     O_R   0.775040 0.775850 0.601880 -0.610093
O42   O     O_R   0.224960 0.775850 0.398120 -0.630430
O43   O     O_R   0.275040 0.275850 0.601880 -0.625032
O44   O     O_R   0.724960 0.275850 0.398120 -0.607730
O45   O     O_R   0.425360 0.545810 0.442460 -0.620092
O46   O     O_R   0.574640 0.545810 0.557540 -0.617932
O47   O     O_R   0.925360 0.045810 0.442460 -0.619848
O48   O     O_R   0.074640 0.045810 0.557540 -0.620952
Zn1   Zn    Zn3+2 0.784540 0.715450 0.500000 0.979820
Zn2   Zn    Zn3+2 0.215460 0.715450 0.500000 0.978480
Zn3   Zn    Zn3+2 0.284540 0.215450 0.500000 0.966208
Zn4   Zn    Zn3+2 0.715460 0.215450 0.500000 0.970504
Zn5   Zn    Zn3+2 0.715430 0.784520 0.500010 0.985357
Zn6   Zn    Zn3+2 0.284570 0.784520 0.499990 0.984851
Zn7   Zn    Zn3+2 0.215430 0.284520 0.500010 1.006370
Zn8   Zn    Zn3+2 0.784570 0.284520 0.499990 1.004579
Zn9   Zn    Zn3+2 0.461590 0.500000 0.423210 0.969947
Zn10  Zn    Zn3+2 0.538410 0.500000 0.576790 1.000372
Zn11  Zn    Zn3+2 0.961590 0.000000 0.423210 1.004575
Zn12  Zn    Zn3+2 0.038410 0.000000 0.576790 0.971953
C145  C     C_2   0.726910 0.778936 0.294554 0.442455
H37   H     H_    0.759500 0.765389 0.344929 0.076282
O49   O     O_2   0.739014 0.808599 0.272889 -0.532640
C146  C     C_2   0.274196 0.774530 0.708616 0.444589
H38   H     H_    0.241557 0.760128 0.658920 0.066635
O50   O     O_2   0.261680 0.803493 0.730888 -0.541515
C147  C     C_2   0.144275 0.331898 0.286380 0.532158
H39   H     H_    0.186373 0.336280 0.333862 0.036330
O51   O     O_2   0.111549 0.362290 0.265080 -0.512524
C148  C     C_2   0.863140 0.331834 0.714825 0.537879
H40   H     H_    0.821034 0.337633 0.668339 0.022029
O52   O     O_2   0.897898 0.360619 0.735574 -0.513680
C149  C     C_2   0.834180 0.667711 0.710749 0.424055
H41   H     H_    0.805039 0.665844 0.654814 0.059034
O53   O     O_2   0.843583 0.634264 0.743547 -0.532555
C150  C     C_2   0.223504 0.767608 0.282552 0.408387
H42   H     H_    0.256194 0.755307 0.333810 0.079439
O54   O     O_2   0.236893 0.786650 0.251392 -0.553412
C151  C     C_2   0.274270 0.262241 0.715769 0.410489
H43   H     H_    0.242639 0.249963 0.663919 0.080784
O55   O     O_2   0.259283 0.279002 0.746718 -0.547299
C152  C     C_2   0.667230 0.168160 0.288954 0.415219
H44   H     H_    0.696372 0.166430 0.344892 0.057434
O56   O     O_2   0.658766 0.134879 0.256069 -0.541526
H45   H     H_    0.903249 0.682625 0.848328 0.193804
H46   H     H_    0.137487 0.772095 0.147673 0.190498
H47   H     H_    0.359357 0.267377 0.851381 0.189220
H48   H     H_    0.596947 0.182646 0.151337 0.191683
H49   H     H_    0.871079 0.817823 0.716483 0.147143
H50   H     H_    0.075674 0.727892 0.283531 0.167508
H51   H     H_    0.425105 0.231607 0.716906 0.163219
H52   H     H_    0.626686 0.317271 0.283771 0.147081
C153  C     C_2   0.691443 0.684880 0.621426 0.444593
H53   H     H_    0.718749 0.709238 0.624833 0.049492
O57   O     O_2   0.688916 0.682586 0.668817 -0.542620
C154  C     C_2   0.382758 0.635780 0.625640 0.426079
H54   H     H_    0.360895 0.662190 0.628980 0.066712
O58   O     O_2   0.411375 0.611299 0.675157 -0.553721
C155  C     C_2   0.082067 0.168718 0.368167 0.431634
H55   H     H_    0.106513 0.193499 0.366522 0.058130
O59   O     O_2   0.036552 0.159217 0.314386 -0.551203
C156  C     C_2   0.810436 0.185590 0.379883 0.453298
H56   H     H_    0.782757 0.209731 0.376052 0.049249
O60   O     O_2   0.814072 0.183787 0.333377 -0.537740
H57   H     H_    0.530226 0.586612 0.339000 0.212479
H58   H     H_    0.325907 0.604507 0.336627 0.215399
H59   H     H_    0.204005 0.063996 0.644947 0.206813
H60   H     H_    0.967694 0.085319 0.660572 0.216687
H61   H     H_    0.648154 0.601647 0.386179 0.220528
H62   H     H_    0.332396 0.700679 0.377950 0.216164
H63   H     H_    0.226482 0.163230 0.660513 0.201014
H64   H     H_    0.849092 0.100640 0.610868 0.212448
C157  C     C_2   0.652823 0.768365 0.141189 0.518737
H65   H     H_    0.627321 0.783754 0.090679 0.083281
O61   O     O_2   0.698066 0.753767 0.162875 -0.507463
C158  C     C_2   0.350697 0.763962 0.861770 0.517460
H66   H     H_    0.376327 0.779241 0.912481 0.084965
O62   O     O_2   0.306257 0.747997 0.840997 -0.511092
C159  C     C_2   0.073294 0.325501 0.133018 0.501973
H67   H     H_    0.032171 0.327036 0.083223 0.050886
O63   O     O_2   0.105331 0.355968 0.150217 -0.517507
C160  C     C_2   0.935544 0.325600 0.867884 0.488767
H68   H     H_    0.977124 0.326734 0.916976 0.060916
O64   O     O_2   0.904877 0.356895 0.851645 -0.516399
H69   H     H_    0.589074 0.641929 0.342769 0.197930
H70   H     H_    0.272208 0.661774 0.339521 0.202170
H71   H     H_    0.259871 0.119684 0.643283 0.215095
H72   H     H_    0.908705 0.140589 0.656586 0.204898
C161  C     C_2   0.493763 0.738534 0.148422 0.424825
H73   H     H_    0.481957 0.727225 0.179385 0.061535
O65   O     O_2   0.456978 0.745343 0.086991 -0.549082
C162  C     C_2   0.508023 0.741284 0.849072 0.439812
H74   H     H_    0.519454 0.732169 0.816841 0.072735
O66   O     O_2   0.545163 0.746910 0.910790 -0.547876
C163  C     C_2   0.076371 0.159957 0.155924 0.448764
H75   H     H_    0.090396 0.132085 0.190403 0.062539
O67   O     O_2   0.048596 0.152840 0.093982 -0.503667
C164  C     C_2   0.923694 0.159929 0.843680 0.427917
H76   H     H_    0.900709 0.132110 0.809898 0.053962
O68   O     O_2   0.961920 0.152808 0.904524 -0.502003
H77   H     H_    0.828852 0.927507 0.400507 0.181472
H78   H     H_    0.099228 0.942600 0.428175 0.163685
H79   H     H_    0.408811 0.438972 0.580946 0.169239
H80   H     H_    0.671395 0.429101 0.597645 0.180465

loop_
_geom_bond_atom_site_label_1
_geom_bond_atom_site_label_2
_ccdc_geom_bond_type
C54   H46   S    
C99   C103  A    
C74   N14   A    
C133  C137  A    
C55   C59   A    
C77   C101  A    
C40   H28   S    
C136  C140  A    
O4    Zn4   S    
C135  C139  A    
C64   H8    S    
C118  O10   A    
O21   Zn1   S    
C95   C99   A    
C92   O36   A    
C3    O19   A    
C29   C33   A    
C100  C104  A    
O47   Zn11  S    
C65   H49   S    
O39   Zn3   S    
C39   H27   S    
C9    N2    A    
C150  H42   S    
C12   C135  S    
C115  O7    A    
C3    C19   S    
O36   Zn8   S    
C113  O5    A    
O29   Zn1   S    
C16   C44   S    
C91   O31   A    
C27   H79   S    
O24   Zn4   S    
C49   C69   A    
C72   C124  S    
C55   H47   S    
C130  C134  A    
C100  C115  S    
C51   C71   A    
C143  H19   S    
C116  O8    A    
C25   C29   A    
C27   C31   A    
C120  O12   A    
C28   C32   A    
C111  H71   S    
C99   C116  S    
C62   C66   A    
C98   C102  A    
C17   C21   A    
C19   C23   A    
N3    N4    A    
C13   C33   A    
C52   C72   A    
C78   C82   A    
C16   C20   A    
C80   C112  S    
C105  H57   S    
C107  H59   S    
C23   H23   S    
C108  H60   S    
C146  O50   D    
C122  O38   A    
C2    O18   A    
C149  O53   D    
C156  H56   S    
C83   C91   S    
C147  O51   D    
C47   O27   A    
C62   H6    S    
C90   O30   A    
C84   C88   A    
C57   C61   A    
C30   C118  S    
C59   C63   A    
C46   O26   A    
C60   C64   A    
C93   H9    S    
C50   C70   A    
C11   C136  S    
O37   Zn1   S    
C66   C70   A    
C29   C117  S    
C42   H34   S    
C49   C53   A    
C154  O58   D    
C51   C55   A    
C127  C131  A    
O14   Zn11  S    
C22   H22   S    
C61   C65   A    
O48   Zn12  S    
C94   C98   A    
C103  C107  S    
C61   H5    S    
O33   Zn5   S    
C120  O16   A    
C116  O48   A    
C4    O20   A    
O40   Zn4   S    
C139  C143  A    
O35   Zn7   S    
C7    C143  A    
C155  O59   D    
C139  C163  S    
C111  H63   S    
C64   C68   A    
C41   H33   S    
C37   H25   S    
C38   H30   S    
C12   N3    A    
O5    Zn10  S    
C109  H61   S    
C158  H66   S    
C145  H37   S    
O1    Zn1   S    
O16   Zn9   S    
C161  O65   D    
C160  O64   D    
C85   C93   A    
C8    C128  A    
C127  C147  S    
C138  C162  S    
O17   Zn5   S    
C69   C121  S    
C73   N10   A    
O20   Zn8   S    
O42   Zn6   S    
C79   C103  A    
C123  O43   A    
C157  O61   D    
O27   Zn7   S    
C30   C34   A    
C132  C160  S    
C66   H50   S    
C39   H31   S    
C40   H32   S    
C129  C157  S    
C164  H76   S    
C112  H72   S    
C48   O28   A    
C79   C111  S    
C91   O35   A    
C124  O40   A    
C110  H70   S    
C125  C129  A    
C70   C122  S    
C132  C136  A    
C153  H53   S    
C77   C109  S    
C148  O52   D    
O26   Zn6   S    
C114  O46   A    
C26   C30   A    
C88   C156  S    
C96   H12   S    
O15   Zn10  S    
C93   C97   A    
C21   C25   A    
C18   C22   A    
C107  C111  S    
C1    O1    A    
C11   N4    A    
C24   C28   A    
C146  H38   S    
C83   C87   A    
C14   C34   A    
C53   H45   S    
O32   Zn4   S    
C119  O15   A    
C51   C151  S    
C45   O25   A    
C117  O13   A    
C106  H58   S    
C15   C43   S    
C16   C36   A    
C25   H77   S    
C122  O42   A    
C96   C100  A    
C10   N6    A    
C152  O56   D    
C37   C41   S    
N11   N15   A    
O28   Zn8   S    
O31   Zn3   S    
N9    N13   A    
C4    O4    A    
O45   Zn9   S    
C150  O54   D    
C5    C125  A    
C128  C148  S    
C152  H44   S    
C90   O34   A    
C84   C92   S    
C7    C127  A    
C97   C114  S    
C59   C76   S    
C81   C85   A    
C58   C62   A    
O19   Zn7   S    
C88   C96   A    
C46   O22   A    
C73   N13   A    
C78   C102  A    
C151  H43   S    
C10   C133  S    
C80   C84   A    
C44   H36   S    
C13   C41   S    
C147  H39   S    
N1    N2    A    
C15   C19   A    
C43   H35   S    
C50   C54   A    
C80   C104  A    
N12   N16   A    
C117  O9    A    
C106  C110  S    
C124  O44   A    
C126  C130  A    
C21   H21   S    
C105  C109  S    
C76   N16   A    
C105  H13   S    
C112  H64   S    
C114  O6    A    
C38   H26   S    
C6    C142  A    
O9    Zn11  S    
C81   C89   S    
C159  H67   S    
C34   C38   S    
C149  H41   S    
C156  O60   D    
C137  C161  S    
O30   Zn2   S    
C110  H62   S    
C6    C126  A    
C138  C142  A    
C155  H55   S    
C53   C57   A    
C162  H74   S    
C98   C113  S    
C130  C158  S    
C82   C86   A    
C5    C45   S    
C33   C37   S    
C108  C112  S    
C68   C72   A    
C7    C47   S    
C35   C39   S    
C163  H75   S    
C8    C48   S    
C74   N9    A    
C77   C81   A    
C63   H7    S    
C123  O39   A    
O25   Zn5   S    
O44   Zn8   S    
C121  O37   A    
C1    O17   A    
O23   Zn3   S    
C42   H2    S    
C32   C36   A    
C104  C108  S    
C52   C152  S    
O7    Zn12  S    
C48   O24   A    
C71   C123  S    
C137  C141  A    
C151  O55   D    
C1    C17   S    
C140  C144  A    
C89   O29   A    
C142  H18   S    
C13   C17   A    
C85   C153  S    
C60   C75   S    
C131  C135  A    
C82   C90   S    
C56   H48   S    
N7    N8    A    
O38   Zn2   S    
C79   C83   A    
N5    N6    A    
O2    Zn2   S    
C65   C69   A    
C158  O62   D    
C67   C71   A    
C161  H73   S    
C56   C60   A    
C41   H1    S    
C92   O32   A    
C22   C26   A    
C10   N1    A    
C140  C164  S    
C75   N15   A    
C141  H17   S    
C2    C18   S    
C45   O21   A    
C14   C18   A    
C144  H20   S    
O10   Zn12  S    
C157  H65   S    
C11   N7    A    
O22   Zn2   S    
C154  H54   S    
C24   H24   S    
C38   C42   S    
C9    N5    A    
O13   Zn12  S    
C164  O68   D    
O6    Zn9   S    
C12   N8    A    
C125  C145  S    
C67   H51   S    
C86   C94   A    
C153  O57   D    
C68   H52   S    
C20   C24   A    
C131  C159  S    
O18   Zn6   S    
C3    O3    A    
C23   C27   A    
C95   H11   S    
O3    Zn3   S    
C14   C42   S    
C9    C134  S    
O41   Zn5   S    
O12   Zn10  S    
C32   C120  S    
C128  C132  A    
C15   C35   A    
C101  C105  S    
C63   C67   A    
C159  O63   D    
C86   C154  S    
O43   Zn7   S    
C36   C40   S    
C162  O66   D    
O8    Zn11  S    
C39   C43   S    
C106  H14   S    
C47   O23   A    
C87   C155  S    
C87   C95   A    
C145  O49   D    
C57   C74   S    
C109  H69   S    
C160  H68   S    
C28   H80   S    
C5    C141  A    
C40   C44   S    
C94   H10   S    
C31   C119  S    
C78   C110  S    
C163  O67   D    
C115  O47   A    
C50   C150  S    
C113  O45   A    
O46   Zn10  S    
C129  C133  A    
C119  O11   A    
C54   C58   A    
C6    C46   S    
C2    O2    A    
C134  C138  A    
C107  H15   S    
C108  H16   S    
C4    C20   S    
C126  C146  S    
C118  O14   A    
C75   N12   A    
O11   Zn9   S    
C26   H78   S    
C76   N11   A    
C121  O41   A    
C44   H4    S    
C102  C106  S    
C31   C35   A    
C43   H3    S    
C148  H40   S    
N10   N14   A    
C37   H29   S    
C8    C144  A    
C89   O33   A    
O34   Zn6   S    
C97   C101  A    
C52   C56   A    
C58   C73   S    
C49   C149  S    
