data_mof_unit_57232.cif
_audit_creation_date              2012-10-26T18:39:10-0400
_audit_creation_method            fapswitch 2.2
_symmetry_space_group_name_H-M    P1
_symmetry_Int_Tables_number       1
_space_group_crystal_system       triclinic
_cell_length_a                    9.40651
_cell_length_b                    10.652348
_cell_length_c                    17.198952
_cell_angle_alpha                 90.174382
_cell_angle_beta                  86.681078
_cell_angle_gamma                 90.529259
_cell_volume                      1720.39004231

loop_
_atom_site_label
_atom_site_type_symbol
_atom_type_description
_atom_site_fract_x
_atom_site_fract_y
_atom_site_fract_z
_atom_type_partial_charge
C1    C     C_R   0.500908 0.740537 0.498995 0.548861
C2    C     C_3   0.629922 0.963110 0.476075 0.032030
C3    C     C_3   0.951330 0.396056 0.471743 -0.009563
C4    C     C_3   0.048670 0.603944 0.528257 -0.009564
C5    C     C_3   0.045271 0.408786 0.541639 -0.009079
C6    C     C_3   0.954729 0.591214 0.458361 -0.009080
C7    C     C_3   0.057602 0.487279 0.430059 -0.008733
C8    C     C_3   0.942398 0.512721 0.569941 -0.008731
C9    C     C_R   0.482281 0.496380 0.650106 0.541998
C10   C     C_R   0.517719 0.503624 0.349894 0.541998
C11   C     C_R   0.475626 0.481755 0.734859 -0.005572
C12   C     C_R   0.499092 0.259463 0.501005 0.548864
C13   C     C_R   0.524376 0.518266 0.265143 -0.005565
C14   C     C_R   0.598902 0.448100 0.771739 -0.116888
C15   C     C_R   0.401111 0.551975 0.228268 -0.116897
C16   C     C_R   0.596009 0.430442 0.852282 0.040786
C17   C     C_R   0.404007 0.569649 0.147726 0.040779
C18   C     C_R   0.467356 0.453406 0.896596 0.045172
C19   C     C_R   0.532652 0.546652 0.103409 0.045172
C20   C     C_R   0.343164 0.482123 0.859423 -0.134378
C21   C     C_R   0.656837 0.517884 0.140577 -0.134376
C22   C     C_R   0.346952 0.495850 0.778950 -0.144980
C23   C     C_3   0.404368 0.956770 0.450576 -0.121341
C24   C     C_R   0.653045 0.504139 0.221048 -0.144976
C25   C     C_2   0.460438 0.458131 0.981613 -0.157274
C26   C     C_2   0.539562 0.541940 0.018391 -0.157278
C27   C     C_3   0.269391 0.614139 0.112109 -0.282721
C28   C     C_3   0.230045 0.746499 0.139681 -0.445221
C29   C     C_3   0.730642 0.386007 0.887904 -0.282733
C30   C     C_3   0.770081 0.253678 0.860318 -0.445236
C31   C     C_3   0.221393 0.080242 0.551960 -0.263253
C32   C     C_3   0.123266 0.969167 0.572675 -0.456709
C33   C     C_3   0.778607 0.919758 0.448040 -0.263253
C34   C     C_3   0.595631 0.043229 0.549424 -0.121341
C35   C     C_3   0.876734 0.030833 0.427325 -0.456709
C36   C     C_3   0.532889 0.044107 0.427708 -0.126334
C37   C     C_3   0.467110 0.955893 0.572292 -0.126334
C38   C     C_3   0.497330 0.122689 0.501255 0.031237
C39   C     C_3   0.502670 0.877310 0.498745 0.031237
C40   C     C_3   0.370078 0.036890 0.523925 0.032030
Cu1   Cu    Cu3+1 0.356850 0.500010 0.499980 0.911591
Cu2   Cu    Cu3+1 0.643150 0.499990 0.500020 0.911593
H1    H     H_    0.698003 0.433854 0.737686 0.119131
H2    H     H_    0.381209 0.400879 0.013935 0.123147
H3    H     H_    0.244072 0.498291 0.893158 0.098339
H4    H     H_    0.755922 0.501691 0.106838 0.098335
H5    H     H_    0.559939 0.082733 0.368763 0.101946
H6    H     H_    0.440061 0.917266 0.631237 0.101948
H7    H     H_    0.325885 0.919154 0.410479 0.105294
H8    H     H_    0.674115 0.080845 0.589521 0.105297
H9    H     H_    0.087977 0.333125 0.577508 0.088932
H10   H     H_    0.912023 0.666875 0.422491 0.088934
H11   H     H_    0.204875 0.748524 0.203538 0.140529
H12   H     H_    0.302017 0.566251 0.262324 0.119126
H13   H     H_    0.319292 0.812840 0.124885 0.156980
H14   H     H_    0.134616 0.778040 0.110295 0.132205
H15   H     H_    0.280168 0.616725 0.047683 0.153966
H16   H     H_    0.180378 0.548337 0.128547 0.125590
H17   H     H_    0.680875 0.187288 0.875100 0.156983
H18   H     H_    0.795274 0.251680 0.796462 0.140525
H19   H     H_    0.865519 0.222184 0.889712 0.132207
H20   H     H_    0.819615 0.451858 0.871481 0.125594
H21   H     H_    0.719850 0.383393 0.952329 0.153966
H22   H     H_    0.110653 0.909416 0.520516 0.148482
H23   H     H_    0.905496 0.309634 0.446893 0.099391
H24   H     H_    0.167093 0.912056 0.619439 0.150014
H25   H     H_    0.016914 0.003870 0.593713 0.128875
H26   H     H_    0.230077 0.140837 0.604163 0.144303
H27   H     H_    0.175101 0.135707 0.505204 0.150950
H28   H     H_    0.832907 0.087944 0.380561 0.150013
H29   H     H_    0.889346 0.090584 0.479484 0.148483
H30   H     H_    0.983085 0.996129 0.406287 0.128874
H31   H     H_    0.824899 0.864293 0.494796 0.150950
H32   H     H_    0.769922 0.859163 0.395837 0.144303
H33   H     H_    0.094504 0.690366 0.553107 0.099391
H34   H     H_    0.110330 0.476305 0.371058 0.095138
H35   H     H_    0.889670 0.523695 0.628942 0.095131
H36   H     H_    0.749860 0.479889 0.248470 0.121287
H37   H     H_    0.250130 0.520060 0.751525 0.121294
H38   H     H_    0.618790 0.599195 0.986070 0.123147
N1    N     N_3   0.141720 0.500030 0.499940 -0.225674
N2    N     N_3   0.858280 0.499970 0.500060 -0.225673
O1    O     O_R   0.379130 0.683150 0.499960 -0.504977
O2    O     O_R   0.620870 0.316850 0.500040 -0.504975
O3    O     O_R   0.620910 0.683140 0.500000 -0.508572
O4    O     O_R   0.379090 0.316860 0.500000 -0.508571
O5    O     O_R   0.365090 0.500030 0.613580 -0.504062
O6    O     O_R   0.634910 0.499970 0.386420 -0.504061
O7    O     O_R   0.606870 0.500020 0.613610 -0.510834
O8    O     O_R   0.393130 0.499980 0.386390 -0.510833

loop_
_geom_bond_atom_site_label_1
_geom_bond_atom_site_label_2
_ccdc_geom_bond_type
C29   H21   S    
C6    N2    S    
C34   C37   S    
Cu1   Cu2   S    
Cu2   N2    S    
C4    C8    S    
C28   H14   S    
Cu1   O4    S    
C10   O6    A    
C8    N2    S    
C19   C21   A    
C22   H37   S    
C37   C40   S    
C3    C7    S    
C11   C14   A    
C23   H7    S    
C23   C40   S    
Cu1   O1    S    
C31   C40   S    
C12   O2    A    
C36   H5    S    
C19   C26   S    
C4    H33   S    
C17   C19   A    
C2    C39   S    
C4    N1    S    
C35   H28   S    
C30   H18   S    
C20   H3    S    
C2    C34   S    
Cu1   O8    S    
C35   H29   S    
C3    H23   S    
C18   C25   S    
C25   H2    S    
C28   H13   S    
C1    O3    A    
C31   H26   S    
Cu1   O5    S    
C34   H8    S    
C17   C27   S    
C15   H12   S    
Cu2   O2    S    
C32   H22   S    
C4    C6    S    
C27   H15   S    
C9    O7    A    
C16   C29   S    
C10   C13   S    
C26   H38   S    
C13   C24   A    
C29   C30   S    
C5    N1    S    
C31   C32   S    
Cu1   N1    S    
C30   H17   S    
C3    N2    S    
Cu2   O3    S    
C37   H6    S    
C9    C11   S    
C6    C7    S    
C32   H25   S    
C2    C33   S    
C33   H31   S    
C7    N1    S    
C20   C22   A    
C35   H30   S    
C13   C15   A    
C8    H35   S    
C14   C16   A    
C30   H19   S    
Cu2   O6    S    
C24   H36   S    
C32   H24   S    
C21   H4    S    
C2    C36   S    
C15   C17   A    
C29   H20   S    
C34   C38   S    
C3    C5    S    
C27   H16   S    
C5    C8    S    
C28   H11   S    
C7    H34   S    
C1    O1    A    
C11   C22   A    
C12   O4    A    
Cu2   O7    S    
C36   C38   S    
C25   C26   D    
C37   C39   S    
C9    O5    A    
C38   C40   S    
C23   C39   S    
C33   C35   S    
C18   C20   A    
C12   C38   S    
C1    C39   S    
C33   H32   S    
C31   H27   S    
C10   O8    A    
C16   C18   A    
C23   C36   S    
C21   C24   A    
C27   C28   S    
C5    H9    S    
C6    H10   S    
C14   H1    S    
