data_mof_unit_16554.cif
_audit_creation_date              2012-12-11T17:10:31-0500
_audit_creation_method            fapswitch 2.2
_symmetry_space_group_name_H-M    P1
_symmetry_Int_Tables_number       1
_space_group_crystal_system       triclinic
_cell_length_a                    15.133806
_cell_length_b                    14.967678
_cell_length_c                    14.831607
_cell_angle_alpha                 109.683849
_cell_angle_beta                  109.586695
_cell_angle_gamma                 109.123049
_cell_volume                      2586.82785908

loop_
_atom_site_label
_atom_site_type_symbol
_atom_type_description
_atom_site_fract_x
_atom_site_fract_y
_atom_site_fract_z
_atom_type_partial_charge
C1    C     C_R   0.185749 0.277406 0.237086 -0.119577
C2    C     C_R   0.473428 0.565154 0.250229 -0.123542
C3    C     C_R   0.498978 0.801474 0.591949 -0.129271
C4    C     C_R   0.595739 0.505139 0.804808 -0.158330
C5    C     C_R   0.704411 0.400621 0.408062 0.015655
C6    C     C_R   0.435632 0.801031 0.499439 0.082243
C7    C     C_R   0.797623 0.433533 0.498410 0.052383
C8    C     C_R   0.551344 0.551551 0.226427 0.078664
C9    C     C_R   0.799294 0.800304 0.867718 0.057795
C10   C     C_R   0.117882 0.736735 0.367357 -0.158441
C11   C     C_R   0.106407 0.683934 0.428330 0.059147
C12   C     C_R   0.565405 0.565133 0.868885 0.079160
C13   C     C_R   0.035436 0.570465 0.372298 0.112265
C14   C     C_R   0.977960 0.511472 0.256004 -0.224295
C15   C     C_R   0.992449 0.564404 0.196200 -0.102510
C16   C     C_R   0.449238 0.185356 0.408413 -0.138300
C17   C     C_R   0.062091 0.677023 0.251831 -0.110089
C18   C     C_R   0.913510 0.482507 0.427431 -0.243116
C19   C     C_R   0.891332 0.440830 0.493408 0.062464
C20   C     C_R   0.966937 0.428796 0.566898 0.038881
C21   C     C_R   0.065705 0.458661 0.571610 -0.229508
C22   C     C_R   0.087589 0.501431 0.505967 0.068627
C23   C     C_R   0.467140 0.173448 0.500038 0.068432
C24   C     C_R   0.012084 0.514829 0.434142 0.025913
C25   C     C_R   0.008627 0.448716 0.754716 -0.011670
C26   C     C_R   0.981000 0.407333 0.820158 0.048929
C27   C     C_R   0.889798 0.304917 0.768914 -0.124052
C28   C     C_R   0.283495 0.567102 0.595647 -0.148451
C29   C     C_R   0.825862 0.243347 0.653914 -0.138076
C30   C     C_R   0.852549 0.283398 0.588870 -0.169897
C31   C     C_R   0.943683 0.385954 0.638193 0.089508
C32   C     C_R   0.662426 0.562565 0.040009 0.166722
C33   C     C_R   0.605550 0.603779 0.986957 0.029149
C34   C     C_R   0.184394 0.518736 0.504287 0.068384
C35   C     C_R   0.573662 0.669615 0.046028 -0.210877
C36   C     C_R   0.571578 0.667236 0.138916 -0.203588
C37   C     C_R   0.600383 0.598232 0.171633 0.028301
C38   C     C_R   0.659436 0.559212 0.130873 0.175618
C39   C     C_3   0.656839 0.451501 0.094989 -0.529116
C40   C     C_R   0.536059 0.276986 0.593132 -0.121125
C41   C     C_3   0.660859 0.455879 0.996370 -0.524491
C42   C     C_R   0.352659 0.876773 0.395904 0.164428
C43   C     C_R   0.400042 0.879078 0.495923 0.030267
C44   C     C_R   0.430388 0.969573 0.593915 -0.234655
C45   C     C_R   0.403289 0.706353 0.408282 -0.158176
C46   C     C_R   0.440411 0.065712 0.594033 -0.201613
C47   C     C_R   0.420060 0.069903 0.496218 0.038620
C48   C     C_R   0.362605 0.971185 0.395910 0.148632
C49   C     C_3   0.374058 0.938634 0.294805 -0.528568
C50   C     C_3   0.362109 0.834868 0.294569 -0.519128
C51   C     C_R   0.976673 0.077221 0.101184 0.082918
C52   C     C_R   0.190801 0.478573 0.409918 -0.126419
C53   C     C_R   0.072583 0.074089 0.141513 0.058160
C54   C     C_R   0.069172 0.973262 0.113521 -0.200445
C55   C     C_R   0.972219 0.877291 0.034451 -0.200852
C56   C     C_R   0.800064 0.498946 0.591199 -0.138731
C57   C     C_R   0.879010 0.882225 0.981943 0.060919
C58   C     C_R   0.880118 0.981519 0.021551 0.118474
C59   C     C_3   0.821400 0.011640 0.079332 -0.572373
C60   C     C_3   0.926483 0.117286 0.165724 -0.148607
C61   C     C_R   0.502611 0.593392 0.804412 -0.126664
C62   C     C_R   0.275142 0.184650 0.229751 -0.136723
C63   C     C_R   0.174070 0.174483 0.201495 0.065086
C64   C     C_R   0.568526 0.477945 0.256237 -0.159778
C65   C     C_R   0.708383 0.799989 0.803976 -0.130104
C66   C     C_R   0.798956 0.708427 0.803760 -0.122568
H1    H     H_    0.122332 0.297669 0.220653 0.091529
H2    H     H_    0.659621 0.486986 0.833681 0.101234
H3    H     H_    0.921755 0.424505 0.211859 0.115986
H4    H     H_    0.948452 0.518351 0.106670 0.108425
H5    H     H_    0.856736 0.498012 0.376341 0.129759
H6    H     H_    0.124607 0.446487 0.624499 0.136307
H7    H     H_    0.868073 0.273080 0.818541 0.114488
H8    H     H_    0.755131 0.164453 0.615044 0.127593
H9    H     H_    0.801663 0.234642 0.499687 0.121906
H10   H     H_    0.537623 0.711439 0.013801 0.124877
H11   H     H_    0.406784 0.122830 0.324130 0.100162
H12   H     H_    0.860215 0.535696 0.676810 0.107632
H13   H     H_    0.533939 0.707205 0.174292 0.126029
H14   H     H_    0.730927 0.457875 0.153189 0.194989
H15   H     H_    0.579236 0.382692 0.070070 0.198518
H16   H     H_    0.737592 0.465583 0.998193 0.188774
H17   H     H_    0.585848 0.389784 0.916967 0.198127
H18   H     H_    0.459473 0.971555 0.672235 0.127915
H19   H     H_    0.476132 0.138541 0.672362 0.127816
H20   H     H_    0.305125 0.924276 0.222263 0.183868
H21   H     H_    0.455773 0.991043 0.311189 0.199889
H22   H     H_    0.285797 0.761031 0.222627 0.186727
H23   H     H_    0.628474 0.454653 0.256449 0.109395
H24   H     H_    0.307426 0.611720 0.681924 0.099487
H25   H     H_    0.436654 0.829039 0.310043 0.197734
H26   H     H_    0.141587 0.968189 0.147365 0.119337
H27   H     H_    0.973325 0.801155 0.007660 0.117274
H28   H     H_    0.758221 0.024490 0.029831 0.179958
H29   H     H_    0.792594 0.955494 0.109432 0.199306
H30   H     H_    0.924676 0.191614 0.167703 0.135989
H31   H     H_    0.568792 0.298866 0.679061 0.091952
H32   H     H_    0.129323 0.444024 0.325786 0.097329
H33   H     H_    0.478345 0.652823 0.832495 0.081776
H34   H     H_    0.677604 0.852922 0.832319 0.095325
H35   H     H_    0.291564 0.119677 0.198496 0.084526
H36   H     H_    0.338367 0.669697 0.325111 0.109257
H37   H     H_    0.687448 0.325949 0.257159 0.085115
H38   H     H_    0.571881 0.278905 0.260292 0.104220
H39   H     H_    0.143765 0.807048 0.570879 0.105949
H40   H     H_    0.246434 0.783762 0.573801 0.107964
H41   H     H_    0.169092 0.556862 0.854214 0.098060
H42   H     H_    0.088166 0.612885 0.856234 0.093545
H43   H     H_    0.044246 0.542741 0.966351 0.084715
H44   H     H_    0.122943 0.484336 0.962570 0.101110
H45   H     H_    0.850700 0.676388 0.830591 0.083536
H46   H     H_    0.967516 0.055347 0.269500 0.139270
H47   H     H_    0.923088 0.142971 0.308553 0.122223
H48   H     H_    0.441518 0.617822 0.239117 0.090997
H49   H     H_    0.525992 0.855493 0.677208 0.084228
H50   H     H_    0.072032 0.718286 0.205449 0.106126
H51   H     H_    0.169004 0.824450 0.409806 0.118875
N1    N     N_R   0.291070 0.347930 0.293870 -0.041918
N2    N     N_R   0.497240 0.291100 0.443210 -0.040205
N3    N     N_R   0.347890 0.554050 0.556810 -0.038110
N4    N     N_R   0.554050 0.347900 0.556830 -0.038356
N5    N     N_R   0.291070 0.497250 0.443190 -0.038445
N6    N     N_R   0.497240 0.554030 0.706140 -0.038578
N7    N     N_R   0.347890 0.291110 0.293870 -0.041056
N8    N     N_R   0.445950 0.652100 0.443170 -0.039454
N9    N     N_3   0.654139 0.304566 0.303043 -0.219991
N10   N     N_3   0.163778 0.745835 0.546724 -0.218086
N11   N     N_3   0.099499 0.555073 0.805330 -0.218997
N12   N     N_R   0.708930 0.502750 0.556810 -0.047304
N13   N     N_3   0.043632 0.468311 0.938544 -0.225846
N14   N     N_3   0.971522 0.128513 0.275738 -0.197248
N15   N     N_R   0.502760 0.445970 0.293860 -0.044677
N16   N     N_R   0.652110 0.708890 0.706130 -0.040702
N17   N     N_R   0.708930 0.652070 0.706130 -0.039160
N18   N     N_R   0.445950 0.502780 0.293850 -0.041358
N19   N     N_R   0.502760 0.708900 0.556790 -0.039112
N20   N     N_R   0.652110 0.445950 0.443190 -0.054064
N21   N     N_R   0.554050 0.497220 0.706150 -0.037797
Ni1   Ni    Ni4+2 0.369690 0.500010 0.369700 0.212581
Ni2   Ni    Ni4+2 0.630310 0.499990 0.630300 0.209749
Ni3   Ni    Ni4+2 0.500000 0.369720 0.369720 0.203402
Ni4   Ni    Ni4+2 0.500000 0.630280 0.630280 0.205582

loop_
_geom_bond_atom_site_label_1
_geom_bond_atom_site_label_2
_ccdc_geom_bond_type
C25   C31   A    
C12   C61   A    
C6    C45   A    
C27   C29   A    
C53   C63   S    
C49   H21   S    
C35   C36   A    
C55   H27   S    
C3    C6    A    
C45   H36   S    
C62   N7    A    
C39   C41   S    
C53   C54   A    
N8    Ni1   S    
N18   Ni1   S    
C40   N4    A    
N6    N21   A    
C26   C27   A    
C29   C30   A    
C18   C24   A    
C7    C56   A    
N4    Ni2   S    
C36   C37   A    
C37   C38   A    
H41   N11   S    
C3    N19   A    
N17   Ni2   S    
C30   C31   A    
C10   C17   A    
C23   C40   A    
C41   H17   S    
N15   Ni3   S    
C56   H12   S    
C16   H11   S    
C46   C47   A    
H37   N9    S    
C9    C66   A    
N19   Ni4   S    
C1    H1    S    
C66   N17   A    
C52   N5    A    
C64   N15   A    
C45   N8    A    
C5    N9    S    
C32   C41   S    
C59   H28   S    
C32   C38   A    
C66   H45   S    
C4    C12   A    
C27   H7    S    
C56   N12   A    
C26   N13   S    
C50   H22   S    
C62   H35   S    
C28   C34   A    
C59   C60   S    
C13   C14   A    
C61   H33   S    
C59   H29   S    
C64   H23   S    
C1    C63   A    
C60   N14   S    
C44   C46   A    
N2    N4    A    
C22   C34   S    
C35   H10   S    
C23   C47   S    
H39   N10   S    
C21   H6    S    
C2    H48   S    
N3    Ni4   S    
C39   H15   S    
C28   N3    A    
C16   N2    A    
C40   H31   S    
C5    C7    A    
C18   C19   A    
C42   C48   A    
C29   H8    S    
C25   C26   A    
H40   N10   S    
C13   C24   S    
C51   C53   A    
C11   N10   S    
C43   C44   A    
C54   H26   S    
C62   C63   A    
C47   C48   A    
N16   Ni4   S    
N12   N20   A    
C51   C58   A    
N1    N7    A    
H42   N11   S    
N21   Ni2   S    
C42   C50   S    
C60   H30   S    
N8    N19   A    
C48   C49   S    
C8    C64   A    
C16   C23   A    
C7    C19   S    
C6    C43   S    
C55   C57   A    
N16   N17   A    
N2    Ni3   S    
C14   H3    S    
C22   C24   A    
N7    Ni3   S    
C8    C37   S    
N1    Ni1   S    
N3    N5    A    
C4    H2    S    
C18   H5    S    
C15   C17   A    
C15   H4    S    
N20   Ni3   S    
C54   C55   A    
H47   N14   S    
C49   H20   S    
C25   N11   S    
C2    C8    A    
C65   H34   S    
C44   H18   S    
C36   H13   S    
N5    Ni1   S    
C5    N20   A    
C34   C52   A    
C2    N18   A    
C61   N6    A    
C39   H14   S    
C46   H19   S    
C19   C20   A    
C58   C59   S    
C10   H51   S    
C3    H49   S    
C32   C33   A    
C30   H9    S    
C11   C13   A    
C57   C58   A    
C38   C39   S    
N12   Ni2   S    
N15   N18   A    
C41   H16   S    
N6    Ni4   S    
C52   H32   S    
C33   C35   A    
H44   N13   S    
C9    C57   S    
C1    N1    A    
H46   N14   S    
C9    C65   A    
C10   C11   A    
C4    N21   A    
C50   H25   S    
H38   N9    S    
C20   C21   A    
C49   C50   S    
C42   C43   A    
H43   N13   S    
C14   C15   A    
C28   H24   S    
C51   C60   S    
C12   C33   S    
C21   C22   A    
C65   N16   A    
C17   H50   S    
C20   C31   S    
