data_mof_unit_64207.cif
_audit_creation_date              2012-12-10T19:50:17-0500
_audit_creation_method            fapswitch 2.2
_symmetry_space_group_name_H-M    P1
_symmetry_Int_Tables_number       1
_space_group_crystal_system       triclinic
_cell_length_a                    10.874403
_cell_length_b                    19.387368
_cell_length_c                    18.174291
_cell_angle_alpha                 89.982475
_cell_angle_beta                  89.745496
_cell_angle_gamma                 92.836871
_cell_volume                      3826.88008555

loop_
_atom_site_label
_atom_site_type_symbol
_atom_type_description
_atom_site_fract_x
_atom_site_fract_y
_atom_site_fract_z
_atom_type_partial_charge
C1    C     C_R   0.500453 0.367358 0.499918 0.941297
C2    C     C_R   0.499548 0.632642 0.500082 0.941292
C3    C     C_R   0.871560 0.498203 0.500117 -0.278198
C4    C     C_R   0.128439 0.501796 0.499883 -0.278207
C5    C     C_R   0.934407 0.468549 0.559234 0.034558
C6    C     C_R   0.065592 0.531449 0.440765 0.034560
C7    C     C_R   0.467434 0.254116 0.563079 -0.225847
C8    C     C_R   0.532513 0.745882 0.436909 -0.225809
C9    C     C_R   0.467231 0.182254 0.563582 0.678473
C10   C     C_R   0.532717 0.817745 0.436405 0.678474
C11   C     C_R   0.501122 0.146159 0.499989 -0.329840
C12   C     C_R   0.498886 0.853842 0.500009 -0.329861
C13   C     C_R   0.535290 0.183717 0.436147 0.549668
C14   C     C_R   0.464778 0.816287 0.563863 0.549663
C15   C     C_R   0.535322 0.255628 0.435901 0.629265
C16   C     C_R   0.464745 0.744376 0.564111 0.629211
C17   C     C_R   0.501232 0.291479 0.499502 -0.344982
C18   C     C_R   0.498773 0.708522 0.500498 -0.345011
C19   C     C_R   0.499290 0.929990 0.499886 0.512313
C20   C     C_R   0.500717 0.070009 0.500110 0.512292
C21   C     C_R   0.558604 0.553701 0.277303 0.486102
C22   C     C_R   0.441395 0.446300 0.722697 0.486108
C23   C     C_R   0.262176 0.500794 0.500030 0.911839
C24   C     C_R   0.737824 0.499206 0.499970 0.911848
C25   C     C_R   0.552533 0.557758 0.199768 0.331734
C26   C     C_R   0.447466 0.442242 0.800232 0.331744
C27   C     C_R   0.496473 0.502865 0.158765 -0.327109
C28   C     C_R   0.503527 0.497135 0.841235 -0.327113
C29   C     C_R   0.440308 0.447972 0.198870 0.639278
C30   C     C_R   0.559693 0.552028 0.801130 0.639276
C31   C     C_R   0.439013 0.448103 0.276525 0.419815
C32   C     C_R   0.560988 0.551896 0.723475 0.419832
C33   C     C_R   0.501685 0.498612 0.924438 0.504033
C34   C     C_R   0.498315 0.501388 0.075562 0.504034
C35   C     C_R   0.251717 0.665278 0.329383 0.434187
C36   C     C_R   0.748268 0.334715 0.670601 0.434200
C37   C     C_R   0.190173 0.632127 0.388298 0.482179
C38   C     C_R   0.809820 0.367868 0.611690 0.482168
C39   C     C_R   0.130600 0.566887 0.378421 -0.236031
C40   C     C_R   0.869397 0.433106 0.621574 -0.236030
C41   C     C_R   0.133109 0.535202 0.308991 0.497071
C42   C     C_R   0.866887 0.464786 0.691006 0.497076
C43   C     C_R   0.195215 0.568171 0.250250 0.488726
C44   C     C_R   0.804774 0.431813 0.749744 0.488720
C45   C     C_R   0.255256 0.633108 0.259784 0.104748
C46   C     C_R   0.744728 0.366879 0.740202 0.104759
C47   C     C_R   0.937693 0.529173 0.441334 0.639514
C48   C     C_R   0.062307 0.470826 0.558666 0.639512
Cu1   Cu    Cu3+1 0.499990 0.499980 0.573360 1.020024
Cu2   Cu    Cu3+1 0.500010 0.500020 0.426640 1.020027
H1    H     H_    0.440977 0.280476 0.612739 0.262979
H2    H     H_    0.558922 0.719522 0.387240 0.262995
N1    N     N_R   0.571996 0.036120 0.452011 -0.094790
N2    N     N_R   0.428011 0.963879 0.547985 -0.094807
N3    N     N_R   0.571320 0.967512 0.451902 -0.102466
N4    N     N_R   0.428687 0.032487 0.548093 -0.102444
N5    N     N_R   0.500010 0.500050 0.316380 -0.372948
N6    N     N_R   0.499990 0.499950 0.683620 -0.372956
N7    N     N_R   0.400515 0.474261 0.036874 -0.060537
N8    N     N_R   0.599485 0.525739 0.963126 -0.060540
N9    N     N_R   0.402028 0.473107 0.963270 -0.162741
N10   N     N_R   0.597972 0.526893 0.036730 -0.162741
O1    O     O_R   0.500010 0.400130 0.561970 -0.609949
O2    O     O_R   0.499990 0.599870 0.438030 -0.609957
O3    O     O_R   0.500020 0.400160 0.438070 -0.518797
O4    O     O_R   0.499980 0.599840 0.561930 -0.518792
O5    O     O_R   0.319640 0.499990 0.561950 -0.534842
O6    O     O_R   0.680360 0.500010 0.438050 -0.534828
O7    O     O_R   0.319650 0.500020 0.438050 -0.658010
O8    O     O_R   0.680350 0.499980 0.561950 -0.658016
O9    O     O_3   0.315490 0.663492 0.200185 -0.593486
H3    H     H_    0.355559 0.708137 0.215586 0.413443
O10   O     O_3   0.684486 0.336492 0.799797 -0.593479
H4    H     H_    0.644416 0.291849 0.784392 0.413445
F1    F     F_    0.570317 0.289912 0.373478 -0.521360
F2    F     F_    0.429810 0.710096 0.626548 -0.521353
O11   O     O_3   0.622711 0.607223 0.311624 -0.619331
H5    H     H_    0.662427 0.588396 0.355054 0.397107
O12   O     O_3   0.377288 0.392777 0.688376 -0.619328
H6    H     H_    0.337572 0.411604 0.644945 0.397103
O13   O     O_3   0.603244 0.616757 0.166752 -0.567116
H7    H     H_    0.558701 0.624854 0.120421 0.369324
O14   O     O_3   0.396753 0.383243 0.833248 -0.567111
H8    H     H_    0.441297 0.375145 0.879579 0.369326
F3    F     F_    0.384203 0.393761 0.162879 -0.508324
F4    F     F_    0.615799 0.606238 0.837121 -0.508321
O15   O     O_3   0.374981 0.393756 0.309907 -0.562063
H9    H     H_    0.336544 0.411342 0.354698 0.362461
O16   O     O_3   0.625022 0.606243 0.690093 -0.562023
H10   H     H_    0.663456 0.588657 0.645301 0.362461
F5    F     F_    0.306188 0.728947 0.339974 -0.577370
F6    F     F_    0.693788 0.271048 0.660002 -0.577387
F7    F     F_    0.187955 0.663695 0.454934 -0.580995
F8    F     F_    0.812039 0.336306 0.545051 -0.580986
F9    F     F_    0.076628 0.471958 0.298561 -0.524222
F10   F     F_    0.923371 0.528027 0.701443 -0.524226
F11   F     F_    0.197023 0.536899 0.183504 -0.519574
F12   F     F_    0.802963 0.463080 0.816492 -0.519585
F13   F     F_    0.878317 0.559858 0.385411 -0.618949
F14   F     F_    0.121682 0.440141 0.614588 -0.618948
F15   F     F_    0.436149 0.148439 0.626911 -0.541599
F16   F     F_    0.563738 0.851558 0.373065 -0.541585
F17   F     F_    0.566622 0.151045 0.373211 -0.518675
F18   F     F_    0.433510 0.848964 0.626810 -0.518673

loop_
_geom_bond_atom_site_label_1
_geom_bond_atom_site_label_2
_ccdc_geom_bond_type
C15   F1    S    
O15   H9    S    
C26   O14   S    
Cu1   O1    S    
C2    C18   S    
Cu2   O2    S    
O10   H4    S    
C23   O7    A    
C32   N6    A    
C20   N4    A    
O13   H7    S    
C24   O8    A    
C39   C41   A    
O11   H5    S    
C42   F10   S    
C35   C37   A    
Cu2   O7    S    
C22   O12   S    
C27   C29   A    
C34   N10   A    
C47   F13   S    
N8    N10   A    
C23   O5    A    
C44   F12   S    
C32   O16   S    
C44   C46   A    
C7    C17   A    
C1    O3    A    
C36   C46   A    
C30   F4    S    
C8    H2    S    
C29   F3    S    
C36   F6    S    
C40   C42   A    
C38   C40   A    
C25   O13   S    
C41   C43   A    
C3    C24   S    
C42   C44   A    
C1    O1    A    
C2    O2    A    
N1    N3    A    
C27   C34   S    
C48   F14   S    
C5    C48   A    
N2    N4    A    
C11   C20   S    
N7    N9    A    
C31   O15   S    
Cu1   O4    S    
C10   F16   S    
C4    C6    A    
C6    C47   A    
C4    C23   S    
C3    C5    A    
C8    C18   A    
Cu1   N6    S    
C21   N5    A    
C9    C11   A    
C14   F18   S    
O14   H8    S    
C29   C31   A    
C38   F8    S    
C37   F7    S    
C43   C45   A    
C10   C12   A    
C19   N2    A    
C9    F15   S    
C12   C14   A    
C28   C33   S    
C33   N8    A    
Cu1   O8    S    
C13   C15   A    
C34   N7    A    
C14   C16   A    
C13   F17   S    
C36   C38   A    
C35   C45   A    
C45   O9    S    
C4    C48   A    
C19   N3    A    
C15   C17   A    
C21   C25   A    
Cu1   O5    S    
C16   F2    S    
Cu2   N5    S    
C26   C28   A    
C8    C10   A    
C43   F11   S    
C20   N1    A    
C2    O4    A    
C22   N6    A    
C25   C27   A    
C1    C17   S    
C31   N5    A    
C28   C30   A    
C7    H1    S    
O9    H3    S    
C37   C39   A    
C30   C32   A    
C11   C13   A    
C41   F9    S    
C33   N9    A    
C12   C19   S    
C3    C47   A    
Cu2   O3    S    
C24   O6    A    
O12   H6    S    
C7    C9    A    
C16   C18   A    
Cu1   Cu2   S    
C22   C26   A    
C5    C40   S    
C21   O11   S    
C6    C39   S    
O16   H10   S    
Cu2   O6    S    
C46   O10   S    
C35   F5    S    
