data_mof_unit_5195.cif
_audit_creation_date              2012-12-11T14:01:37-0500
_audit_creation_method            fapswitch 2.2
_symmetry_space_group_name_H-M    P1
_symmetry_Int_Tables_number       1
_space_group_crystal_system       triclinic
_cell_length_a                    19.139554
_cell_length_b                    10.936038
_cell_length_c                    18.711342
_cell_angle_alpha                 90.475489
_cell_angle_beta                  89.814878
_cell_angle_gamma                 90.23921
_cell_volume                      3916.29863938

loop_
_atom_site_label
_atom_site_type_symbol
_atom_type_description
_atom_site_fract_x
_atom_site_fract_y
_atom_site_fract_z
_atom_type_partial_charge
C1    C     C_R   0.293010 0.989246 0.858710 0.569112
C2    C     C_R   0.940396 0.651784 0.983397 -0.123872
C3    C     C_3   0.461596 0.233272 0.361707 -0.354878
C4    C     C_3   0.330604 0.605951 0.499207 -0.026358
C5    C     C_3   0.380082 0.542710 0.446921 -0.357342
C6    C     C_3   0.669279 0.610911 0.501022 -0.025965
C7    C     C_3   0.619766 0.549426 0.553655 -0.356919
C8    C     C_3   0.830531 0.106538 0.499174 -0.026392
C9    C     C_3   0.879996 0.043567 0.446771 -0.357414
C10   C     C_3   0.169230 0.110468 0.501028 -0.025942
C11   C     C_3   0.119690 0.048736 0.553543 -0.356849
C12   C     C_3   0.141201 0.673866 0.951105 -0.002241
C13   C     C_R   0.429179 0.131968 0.055766 -0.106750
C14   C     C_3   0.101022 0.692925 0.020405 -0.370674
C15   C     C_3   0.712029 0.760227 0.002499 0.005315
C16   C     C_3   0.720474 0.786998 0.923257 -0.311739
C17   C     C_3   0.641206 0.173880 0.951111 -0.002251
C18   C     C_3   0.601024 0.192941 0.020409 -0.370668
C19   C     C_3   0.212018 0.260216 0.002497 0.005296
C20   C     C_3   0.220461 0.286988 0.923255 -0.311715
C21   C     C_R   0.440402 0.151783 0.983390 -0.123894
C22   C     C_2   0.251113 0.591852 0.926197 0.252067
C23   C     C_2   0.746445 0.602092 0.073460 0.273744
C24   C     C_2   0.751116 0.091865 0.926202 0.252057
C25   C     C_2   0.246444 0.102090 0.073460 0.273733
C26   C     C_2   0.259542 0.602482 0.085512 -0.084651
C27   C     C_2   0.787268 0.488193 0.936428 -0.093103
C28   C     C_2   0.759544 0.102492 0.085516 -0.084642
C29   C     C_R   0.729198 0.045544 0.148585 0.558485
C30   C     C_2   0.287270 0.988191 0.936428 -0.093098
C31   C     C_2   0.300978 0.537547 0.041744 -0.163712
C32   C     C_2   0.726722 0.470505 0.971096 -0.152236
C33   C     C_2   0.800985 0.037566 0.041749 -0.163720
C34   C     C_2   0.226726 0.970496 0.971098 -0.152249
C35   C     C_2   0.307929 0.571802 0.966706 -0.144871
C36   C     C_2   0.722308 0.494940 0.048200 -0.130060
C37   C     C_2   0.807934 0.071820 0.966709 -0.144870
C38   C     C_2   0.222313 0.994933 0.048201 -0.130068
C39   C     C_2   0.501397 0.833551 0.578773 -0.092209
C40   C     C_R   0.793010 0.489247 0.858710 0.569138
C41   C     C_2   0.498748 0.834148 0.421552 -0.091025
C42   C     C_2   0.001464 0.333560 0.578814 -0.092027
C43   C     C_2   0.998817 0.334203 0.421589 -0.091083
C44   C     C_2   0.504479 0.735343 0.462151 -0.193226
C45   C     C_2   0.494417 0.735190 0.537175 -0.197164
C46   C     C_2   0.004606 0.235410 0.462192 -0.193395
C47   C     C_2   0.994534 0.235205 0.537212 -0.197062
C48   C     C_2   0.244106 0.565511 0.580159 0.277835
C49   C     C_2   0.755149 0.567321 0.419720 0.278876
C50   C     C_2   0.744112 0.065636 0.580130 0.277645
C51   C     C_R   0.229197 0.545542 0.148584 0.558448
C52   C     C_2   0.255164 0.067309 0.419721 0.279060
C53   C     C_2   0.202731 0.470224 0.434235 -0.143550
C54   C     C_2   0.795613 0.471545 0.564952 -0.146321
C55   C     C_2   0.702778 0.970286 0.434231 -0.143601
C56   C     C_2   0.295652 0.971528 0.564953 -0.146316
C57   C     C_R   0.471556 0.823865 0.853048 0.568126
C58   C     C_R   0.529089 0.819516 0.146453 0.551719
C59   C     C_R   0.971554 0.323865 0.853049 0.568167
C60   C     C_R   0.029087 0.319516 0.146454 0.551726
C61   C     C_2   0.162649 0.538963 0.477149 -0.160044
C62   C     C_R   0.448211 0.021029 0.085835 -0.108125
C63   C     C_2   0.836329 0.539616 0.522543 -0.157520
C64   C     C_2   0.662633 0.038927 0.477137 -0.159753
C65   C     C_2   0.336338 0.039702 0.522567 -0.157863
C66   C     C_2   0.177283 0.559062 0.554862 0.243997
C67   C     C_2   0.821849 0.560174 0.444993 0.244333
C68   C     C_2   0.677292 0.059153 0.554820 0.243728
C69   C     C_2   0.321869 0.060339 0.445004 0.244564
C70   C     C_R   0.261514 0.639820 0.853218 0.539512
C71   C     C_R   0.738745 0.637591 0.147926 0.554433
C72   C     C_R   0.761512 0.139818 0.853218 0.539508
C73   C     C_R   0.468587 0.059072 0.940560 -0.094140
C74   C     C_R   0.238745 0.137590 0.147926 0.554405
C75   C     C_R   0.295252 0.987509 0.642817 0.581926
C76   C     C_R   0.704418 0.987667 0.356699 0.579016
C77   C     C_R   0.795246 0.487514 0.642814 0.581906
C78   C     C_R   0.204416 0.487668 0.356700 0.578984
C79   C     C_R   0.471525 0.824147 0.648859 0.564272
C80   C     C_R   0.528627 0.824354 0.351340 0.553107
C81   C     C_R   0.971538 0.324148 0.648872 0.564323
C82   C     C_R   0.028637 0.324364 0.351349 0.553165
C83   C     C_R   0.259730 0.633962 0.646507 0.578666
C84   C     C_R   0.948207 0.521029 0.085841 -0.108134
C85   C     C_R   0.740127 0.634365 0.353450 0.570401
C86   C     C_R   0.759728 0.133973 0.646509 0.578682
C87   C     C_R   0.240122 0.134381 0.353461 0.570460
C88   C     C_R   0.501271 0.818037 0.073560 -0.049254
C89   C     C_R   0.500469 0.837643 0.924987 -0.019822
C90   C     C_R   0.001266 0.318036 0.073564 -0.049253
C91   C     C_R   0.000461 0.337644 0.924991 -0.019809
C92   C     C_R   0.477108 0.926526 0.043118 -0.049021
C93   C     C_R   0.482131 0.941064 0.968523 -0.038220
C94   C     C_R   0.977101 0.426525 0.043122 -0.049017
C95   C     C_R   0.968577 0.559072 0.940565 -0.094153
C96   C     C_R   0.982122 0.441063 0.968527 -0.038233
C97   C     C_R   0.523264 0.728620 0.955833 0.240775
C98   C     C_R   0.517167 0.714311 0.029500 0.220425
C99   C     C_R   0.023255 0.228620 0.955836 0.240784
C100  C     C_R   0.017159 0.214309 0.029503 0.220408
C101  C     C_3   0.528741 0.527457 0.912237 0.029130
C102  C     C_3   0.545283 0.463248 0.841709 -0.367947
C103  C     C_3   0.475731 0.540616 0.082703 0.005168
C104  C     C_3   0.496446 0.442926 0.136053 -0.350145
C105  C     C_3   0.028756 0.027447 0.912254 0.029118
C106  C     C_R   0.929175 0.631969 0.055773 -0.106751
C107  C     C_3   0.045288 0.963238 0.841724 -0.367917
C108  C     C_3   0.975733 0.040612 0.082714 0.005189
C109  C     C_3   0.996455 0.942923 0.136060 -0.350137
C110  C     C_3   0.081438 0.682346 0.578081 -0.006608
C111  C     C_3   0.040162 0.735271 0.640630 -0.351833
C112  C     C_3   0.919491 0.680584 0.423158 -0.007898
C113  C     C_3   0.961046 0.733538 0.361155 -0.354789
C114  C     C_3   0.581922 0.183347 0.578238 -0.006177
C115  C     C_3   0.540556 0.235969 0.640814 -0.351806
C116  C     C_3   0.420124 0.179625 0.423552 -0.008455
Cr1   Cr    Cr6+3 0.230530 0.836340 0.748870 0.973758
Cr2   Cr    Cr6+3 0.614360 0.677860 0.250770 1.013404
Cr3   Cr    Cr6+3 0.885640 0.177860 0.749230 0.998076
Cr4   Cr    Cr6+3 0.114360 0.177860 0.250770 1.013385
Cr5   Cr    Cr6+3 0.769470 0.836340 0.251130 0.988523
Cr6   Cr    Cr6+3 0.730530 0.336340 0.748870 0.973535
Cr7   Cr    Cr6+3 0.269470 0.336340 0.251130 0.989012
Cr8   Cr    Cr6+3 0.387420 0.989430 0.750820 0.984938
Cr9   Cr    Cr6+3 0.612580 0.989430 0.249180 0.993565
Cr10  Cr    Cr6+3 0.887420 0.489430 0.750820 0.984832
Cr11  Cr    Cr6+3 0.112580 0.489430 0.249180 0.993635
Cr12  Cr    Cr6+3 0.385640 0.677860 0.749230 0.998063
H1    H     H_    0.238267 0.403625 0.456285 0.141892
H2    H     H_    0.695046 0.431277 0.082784 0.088968
H3    H     H_    0.715454 0.701449 0.891592 0.192094
H4    H     H_    0.678626 0.849685 0.905617 0.160883
H5    H     H_    0.772375 0.828802 0.912640 0.161314
H6    H     H_    0.603699 0.159863 0.906630 0.156212
H7    H     H_    0.670180 0.259465 0.942298 0.135780
H8    H     H_    0.633417 0.236787 0.062066 0.131229
H9    H     H_    0.557774 0.257250 0.010502 0.085910
H10   H     H_    0.581242 0.104671 0.040845 0.213886
H11   H     H_    0.209380 0.347293 0.033010 0.173792
H12   H     H_    0.160642 0.213599 0.009384 0.177170
H13   H     H_    0.860164 0.081909 0.945244 0.091652
H14   H     H_    0.215449 0.201437 0.891591 0.192083
H15   H     H_    0.178609 0.349665 0.905614 0.160900
H16   H     H_    0.272360 0.328804 0.912638 0.161326
H17   H     H_    0.483548 0.922632 0.442885 0.125619
H18   H     H_    0.517267 0.921953 0.558284 0.129844
H19   H     H_    0.983616 0.422715 0.442917 0.126091
H20   H     H_    0.017328 0.421960 0.558334 0.129661
H21   H     H_    0.195055 0.931266 0.082786 0.088966
H22   H     H_    0.241609 0.691523 0.069170 0.113767
H23   H     H_    0.833761 0.506324 0.966988 0.157181
H24   H     H_    0.741608 0.191531 0.069175 0.113774
H25   H     H_    0.333764 0.006328 0.966987 0.157183
H26   H     H_    0.518614 0.646535 0.440258 0.162547
H27   H     H_    0.479762 0.646552 0.558352 0.161062
H28   H     H_    0.018735 0.146608 0.440289 0.162514
H29   H     H_    0.759097 0.405953 0.542385 0.141548
H30   H     H_    0.979859 0.146560 0.558367 0.161118
H31   H     H_    0.471024 0.530873 0.917541 0.125906
H32   H     H_    0.551042 0.470764 0.955335 0.158260
H33   H     H_    0.522394 0.369728 0.841716 0.058251
H34   H     H_    0.523178 0.514742 0.796264 0.180008
H35   H     H_    0.602550 0.455813 0.834342 0.174672
H36   H     H_    0.449364 0.494617 0.037138 0.090815
H37   H     H_    0.437369 0.602278 0.109691 0.135289
H38   H     H_    0.520088 0.485419 0.184335 0.174998
H39   H     H_    0.449482 0.390256 0.152611 0.081344
H40   H     H_    0.738394 0.903824 0.456281 0.141823
H41   H     H_    0.534881 0.379581 0.111664 0.137555
H42   H     H_    0.971040 0.030827 0.917578 0.125863
H43   H     H_    0.051086 0.970779 0.955348 0.158299
H44   H     H_    0.102555 0.956082 0.834261 0.174907
H45   H     H_    0.022550 0.869607 0.841806 0.058198
H46   H     H_    0.023021 0.014565 0.796297 0.179853
H47   H     H_    0.949361 0.994610 0.037152 0.090822
H48   H     H_    0.937372 0.102272 0.109706 0.135300
H49   H     H_    0.020106 0.985416 0.184339 0.175019
H50   H     H_    0.949495 0.890252 0.152626 0.081220
H51   H     H_    0.259182 0.905874 0.542372 0.141715
H52   H     H_    0.034887 0.879578 0.111665 0.137555
H53   H     H_    0.122921 0.595440 0.452913 0.129068
H54   H     H_    0.877036 0.594642 0.547213 0.128801
H55   H     H_    0.622788 0.095151 0.452909 0.129158
H56   H     H_    0.376994 0.094787 0.547286 0.128800
H57   H     H_    0.043609 0.648568 0.538042 0.101975
H58   H     H_    0.113908 0.756992 0.554715 0.132806
H59   H     H_    0.076271 0.770377 0.682430 0.166772
H60   H     H_    0.007199 0.811877 0.621870 0.086184
H61   H     H_    0.005845 0.663809 0.664051 0.169580
H62   H     H_    0.907278 0.703708 0.088935 0.152844
H63   H     H_    0.957102 0.644679 0.462278 0.103278
H64   H     H_    0.888359 0.755716 0.448054 0.133335
H65   H     H_    0.925113 0.771066 0.320432 0.164620
H66   H     H_    0.995523 0.808336 0.380950 0.086771
H67   H     H_    0.993849 0.661372 0.336066 0.170108
H68   H     H_    0.544126 0.150657 0.537880 0.101744
H69   H     H_    0.614801 0.257869 0.555349 0.133171
H70   H     H_    0.576610 0.271092 0.682660 0.166434
H71   H     H_    0.507483 0.312480 0.622124 0.086129
H72   H     H_    0.506327 0.164282 0.664135 0.169779
H73   H     H_    0.928691 0.740068 0.960641 0.117394
H74   H     H_    0.457744 0.142126 0.462151 0.103595
H75   H     H_    0.389554 0.254746 0.449204 0.132843
H76   H     H_    0.425624 0.273030 0.321754 0.163671
H77   H     H_    0.496933 0.306505 0.381907 0.087168
H78   H     H_    0.493517 0.160971 0.335551 0.170692
H79   H     H_    0.359640 0.673164 0.532495 0.151755
H80   H     H_    0.291223 0.657085 0.467644 0.134569
H81   H     H_    0.353900 0.464358 0.420422 0.178318
H82   H     H_    0.396925 0.607481 0.404889 0.130025
H83   H     H_    0.426026 0.506307 0.475672 0.124715
H84   H     H_    0.407278 0.203705 0.088927 0.152878
H85   H     H_    0.640341 0.677504 0.468104 0.152948
H86   H     H_    0.709361 0.662360 0.532327 0.137056
H87   H     H_    0.645806 0.472537 0.580552 0.176344
H88   H     H_    0.603029 0.615826 0.595362 0.134854
H89   H     H_    0.573804 0.511257 0.525057 0.125893
H90   H     H_    0.859572 0.173706 0.532497 0.151814
H91   H     H_    0.791076 0.157672 0.467703 0.134513
H92   H     H_    0.853814 0.965358 0.420149 0.178150
H93   H     H_    0.896825 0.108547 0.404844 0.130215
H94   H     H_    0.925935 0.006991 0.475451 0.124835
H95   H     H_    0.428697 0.240066 0.960634 0.117389
H96   H     H_    0.140305 0.177125 0.468147 0.152860
H97   H     H_    0.209247 0.161893 0.532430 0.137203
H98   H     H_    0.145720 0.971711 0.580335 0.176451
H99   H     H_    0.102931 0.114949 0.595343 0.134744
H100  H     H_    0.073733 0.010721 0.524868 0.125794
H101  H     H_    0.439190 0.008899 0.142482 0.129908
H102  H     H_    0.481710 0.083852 0.886477 0.143837
H103  H     H_    0.939188 0.508899 0.142487 0.129891
H104  H     H_    0.981699 0.583852 0.886482 0.143847
H105  H     H_    0.322679 0.450357 0.057723 0.155059
H106  H     H_    0.360160 0.581901 0.945244 0.091635
H107  H     H_    0.678533 0.455139 0.942347 0.145728
H108  H     H_    0.822689 0.950378 0.057727 0.155046
H109  H     H_    0.178537 0.955127 0.942348 0.145706
H110  H     H_    0.103691 0.659849 0.906626 0.156221
H111  H     H_    0.170173 0.759454 0.942291 0.135785
H112  H     H_    0.133417 0.736769 0.062061 0.131234
H113  H     H_    0.057772 0.757237 0.010502 0.085906
H114  H     H_    0.081240 0.604655 0.040841 0.213883
H115  H     H_    0.709397 0.847303 0.033012 0.173800
H116  H     H_    0.660649 0.713621 0.009386 0.177162
O1    O     O_R   0.215090 0.709860 0.828130 -0.540416
O2    O     O_R   0.543740 0.718170 0.330000 -0.529399
O3    O     O_R   0.956260 0.218170 0.670000 -0.522135
O4    O     O_R   0.043740 0.218170 0.330000 -0.529434
O5    O     O_R   0.320940 0.626760 0.674370 -0.483813
O6    O     O_R   0.679060 0.626760 0.325630 -0.492881
O7    O     O_R   0.820940 0.126760 0.674370 -0.483721
O8    O     O_R   0.179060 0.126760 0.325630 -0.493030
O9    O     O_3   0.334530 0.834540 0.749640 -0.302738
O10   O     O_3   0.665470 0.834540 0.250360 -0.279478
O11   O     O_3   0.834530 0.334540 0.749640 -0.302684
O12   O     O_R   0.784910 0.709860 0.171870 -0.511714
O13   O     O_3   0.165470 0.334540 0.250360 -0.279578
O14   O     O_R   0.236990 0.958390 0.823710 -0.509881
O15   O     O_R   0.763010 0.958390 0.176290 -0.499723
O16   O     O_R   0.736990 0.458390 0.823710 -0.509839
O17   O     O_R   0.263010 0.458390 0.176290 -0.499740
O18   O     O_R   0.332380 0.074750 0.830850 -0.507684
O19   O     O_R   0.667620 0.074750 0.169150 -0.514544
O20   O     O_R   0.832380 0.574750 0.830850 -0.507691
O21   O     O_R   0.167620 0.574750 0.169150 -0.514548
O22   O     O_R   0.445800 0.917770 0.825070 -0.540740
O23   O     O_R   0.715090 0.209860 0.828130 -0.540443
O24   O     O_R   0.554200 0.917770 0.174930 -0.506476
O25   O     O_R   0.945800 0.417770 0.825070 -0.540744
O26   O     O_R   0.054200 0.417770 0.174930 -0.506454
O27   O     O_R   0.456410 0.716580 0.829970 -0.495889
O28   O     O_R   0.543590 0.716580 0.170030 -0.474898
O29   O     O_R   0.956410 0.216580 0.829970 -0.495852
O30   O     O_R   0.043590 0.216580 0.170030 -0.474897
O31   O     O_R   0.321080 0.625290 0.822650 -0.525064
O32   O     O_R   0.678920 0.625290 0.177350 -0.503816
O33   O     O_R   0.821080 0.125290 0.822650 -0.525077
O34   O     O_R   0.284910 0.209860 0.171870 -0.511592
O35   O     O_R   0.178920 0.125290 0.177350 -0.503834
O36   O     O_R   0.214930 0.711450 0.668160 -0.514529
O37   O     O_R   0.785070 0.711450 0.331840 -0.518933
O38   O     O_R   0.714930 0.211450 0.668160 -0.514865
O39   O     O_R   0.285070 0.211450 0.331840 -0.518078
O40   O     O_R   0.236850 0.959870 0.675420 -0.506729
O41   O     O_R   0.763150 0.959870 0.324580 -0.516955
O42   O     O_R   0.736850 0.459870 0.675420 -0.506892
O43   O     O_R   0.263150 0.459870 0.324580 -0.516820
O44   O     O_R   0.332230 0.076350 0.670880 -0.502913
O45   O     O_R   0.445660 0.919250 0.676780 -0.518426
O46   O     O_R   0.667770 0.076350 0.329120 -0.512212
O47   O     O_R   0.832230 0.576350 0.670880 -0.502976
O48   O     O_R   0.167770 0.576350 0.329120 -0.512246
O49   O     O_3   0.559882 0.645142 0.913039 -0.551596
O50   O     O_3   0.536360 0.602987 0.058430 -0.542077
O51   O     O_3   0.059874 0.145150 0.913038 -0.551611
O52   O     O_3   0.036356 0.102987 0.058432 -0.542105
O53   O     O_3   0.122513 0.584001 0.602074 -0.558412
O54   O     O_3   0.876774 0.584096 0.397877 -0.561456
O55   O     O_3   0.622473 0.084135 0.601971 -0.558597
O56   O     O_R   0.554340 0.919250 0.323220 -0.520959
O57   O     O_3   0.376733 0.084432 0.397832 -0.561109
O58   O     O_3   0.299721 0.515743 0.542686 -0.605981
O59   O     O_3   0.699023 0.519348 0.457102 -0.606624
O60   O     O_3   0.799765 0.016126 0.542594 -0.606086
O61   O     O_3   0.199073 0.019093 0.457048 -0.606598
O62   O     O_3   0.184891 0.570304 0.955490 -0.585193
O63   O     O_3   0.769909 0.691312 0.026560 -0.583418
O64   O     O_3   0.684895 0.070318 0.955498 -0.585195
O65   O     O_3   0.269903 0.191312 0.026559 -0.583425
O66   O     O_R   0.945660 0.419250 0.676780 -0.518554
O67   O     O_R   0.054340 0.419250 0.323220 -0.520843
O68   O     O_R   0.456260 0.718170 0.670000 -0.522176

loop_
_geom_bond_atom_site_label_1
_geom_bond_atom_site_label_2
_ccdc_geom_bond_type
C8    O60   S    
C110  H57   S    
C81   O3    A    
C19   C20   S    
C73   C93   A    
C114  C115  S    
C5    H82   S    
C114  H68   S    
C54   C63   D    
C58   O28   A    
C108  C109  S    
C59   O25   A    
C25   C74   S    
C20   H16   S    
C110  C111  S    
C112  C113  S    
C91   C96   A    
C64   H55   S    
C102  H35   S    
Cr11  O26   S    
C75   O44   A    
C12   O62   S    
Cr11  O21   S    
C10   H96   S    
C12   H110  S    
C85   O37   A    
C83   O5    A    
C3    H76   S    
C13   H84   S    
C55   H40   S    
C4    H80   S    
C115  H70   S    
C95   H104  S    
Cr2   O6    S    
Cr6   O11   S    
Cr8   O9    S    
C18   H9    S    
C36   H2    S    
C31   H105  S    
C13   C21   A    
C35   H106  S    
C59   C91   S    
C94   C96   A    
C33   H108  S    
C57   C89   S    
C81   O66   A    
C9    H92   S    
C28   C33   D    
C111  H61   S    
C15   O63   S    
C67   O54   S    
C114  O55   S    
C103  O50   S    
C1    O14   A    
C86   O7    A    
C105  H43   S    
C111  H59   S    
Cr4   O8    S    
C4    C5    S    
C58   C88   S    
Cr3   O33   S    
Cr2   O2    S    
Cr4   O30   S    
C6    C7    S    
C60   C90   S    
Cr12  O5    S    
C82   O4    A    
C22   O62   S    
C44   H26   S    
C19   O65   S    
C53   C78   S    
C112  H63   S    
C101  O49   S    
C6    H85   S    
C11   H98   S    
C51   O21   A    
C70   O1    A    
C19   H11   S    
C23   C36   D    
C109  H49   S    
C113  H66   S    
Cr2   O32   S    
C97   C98   A    
C40   O16   A    
Cr7   O13   S    
C105  C107  S    
C111  H60   S    
C29   O15   A    
C69   O57   S    
C32   C36   S    
C3    C116  S    
C102  H33   S    
C57   O27   A    
C108  H47   S    
C21   C73   A    
C16   H3    S    
Cr3   O3    S    
C1    C30   S    
C14   H114  S    
Cr1   O9    S    
C109  H50   S    
C101  H32   S    
C17   H7    S    
C18   H8    S    
C76   O46   A    
C7    H88   S    
C39   C45   D    
C54   C77   S    
C56   C75   S    
C42   C81   S    
Cr5   O37   S    
C24   C37   D    
Cr2   O28   S    
C15   H115  S    
C30   C34   D    
C3    H77   S    
C50   O60   S    
Cr9   O56   S    
C11   H100  S    
C115  H71   S    
C75   O40   A    
C2    C106  A    
C112  O54   S    
Cr12  O31   S    
Cr3   O7    S    
C25   C38   D    
C27   C40   S    
C17   C18   S    
C86   O38   A    
C4    O58   S    
C25   O65   S    
C57   O22   A    
C103  H37   S    
C80   O2    A    
C53   H1    S    
C106  H62   S    
C103  C104  S    
C24   C72   S    
C110  H58   S    
Cr11  O48   S    
C107  H46   S    
C46   H28   S    
C48   C83   S    
Cr1   O40   S    
C8    H91   S    
C26   C51   S    
C54   H29   S    
C14   H112  S    
Cr1   O14   S    
C109  H52   S    
C17   O64   S    
C89   C93   A    
Cr9   O10   S    
Cr10  O66   S    
C10   C11   S    
C1    O18   A    
C11   H99   S    
C52   O61   S    
Cr4   O4    S    
C48   C66   D    
C22   C70   S    
C88   C98   A    
C65   H56   S    
C101  C102  S    
C23   O63   S    
C100  O52   S    
C42   H20   S    
C41   C80   S    
C51   O17   A    
C103  H36   S    
C37   H13   S    
C97   O49   S    
C28   C29   S    
Cr1   O36   S    
C99   O51   S    
Cr4   O13   S    
C18   H10   S    
C52   C69   D    
C74   O34   A    
C13   C62   A    
C10   H97   S    
C84   C106  A    
Cr11  O13   S    
C38   H21   S    
C20   H15   S    
C2    H73   S    
C90   C94   A    
C107  H44   S    
C5    H83   S    
C105  H42   S    
C23   C71   S    
C49   O59   S    
C83   O36   A    
Cr4   O35   S    
C9    H94   S    
C10   O61   S    
C33   C37   S    
C39   C79   S    
C112  H64   S    
C6    H86   S    
C26   H22   S    
C102  H34   S    
Cr9   O19   S    
C71   O32   A    
Cr10  O20   S    
C84   C94   A    
Cr6   O38   S    
Cr7   O43   S    
Cr5   O15   S    
Cr8   O44   S    
Cr6   O16   S    
Cr8   O45   S    
C41   C44   D    
C31   C35   S    
C64   C68   S    
C116  H75   S    
C5    H81   S    
C44   C45   S    
C4    H79   S    
C46   C47   S    
C27   H23   S    
C27   C32   D    
C113  H65   S    
C105  O51   S    
Cr3   O11   S    
Cr1   O1    S    
C61   H53   S    
C116  O57   S    
C65   C69   S    
C108  H48   S    
C39   H18   S    
C92   C93   A    
C16   H4    S    
C87   O39   A    
C8    H90   S    
C104  H38   S    
C9    H93   S    
C41   H17   S    
C101  H31   S    
C58   O24   A    
C17   H6    S    
C49   C85   S    
C60   O26   A    
C50   C68   D    
C7    H87   S    
C15   C16   S    
C104  H39   S    
C32   H107  S    
Cr10  O25   S    
C95   C96   A    
C77   O42   A    
C108  O52   S    
Cr7   O34   S    
Cr5   O10   S    
C22   C35   D    
C2    C95   A    
C48   O58   S    
C56   C65   D    
C110  O53   S    
C72   O33   A    
C84   H103  S    
C34   H109  S    
Cr2   O10   S    
C61   C66   S    
C12   H111  S    
C88   C92   A    
C8    C9    S    
C62   C92   A    
Cr10  O11   S    
C45   H27   S    
Cr9   O46   S    
C85   O6    A    
C63   H54   S    
C113  H67   S    
C98   O50   S    
C53   C61   D    
C16   H5    S    
C82   O67   A    
C90   C100  A    
C73   H102  S    
Cr6   O23   S    
C30   H25   S    
C87   O8    A    
C68   O55   S    
C63   C67   S    
C74   O35   A    
C20   H14   S    
C79   O68   A    
C50   C86   S    
C19   H12   S    
Cr5   O41   S    
C107  H45   S    
C72   O23   A    
C89   C97   A    
C24   O64   S    
Cr3   O29   S    
C14   H113  S    
C99   C100  A    
Cr8   O18   S    
C62   H101  S    
C55   C64   D    
Cr12  O9    S    
C79   O45   A    
C55   C76   S    
C12   C14   S    
C28   H24   S    
Cr9   O24   S    
Cr12  O27   S    
C76   O41   A    
C78   O43   A    
Cr5   O12   S    
C15   H116  S    
C70   O31   A    
C49   C67   D    
C34   C38   S    
C3    H78   S    
C52   C87   S    
C77   O47   A    
C116  H74   S    
C78   O48   A    
C114  H69   S    
Cr11  O67   S    
C115  H72   S    
C60   O30   A    
C66   O53   S    
Cr12  O68   S    
C91   C99   A    
Cr6   O42   S    
Cr7   O39   S    
C40   O20   A    
Cr7   O17   S    
C59   O29   A    
Cr8   O22   S    
C29   O19   A    
C42   C47   D    
C43   C46   D    
C71   O12   A    
C43   H19   S    
C6    O59   S    
C80   O56   A    
Cr10  O47   S    
C7    H89   S    
C21   H95   S    
C26   C31   D    
C43   C82   S    
C56   H51   S    
C104  H41   S    
C47   H30   S    
