data_mof_unit_49148.cif
_audit_creation_date              2012-12-10T17:18:58-0500
_audit_creation_method            fapswitch 2.2
_symmetry_space_group_name_H-M    P1
_symmetry_Int_Tables_number       1
_space_group_crystal_system       triclinic
_cell_length_a                    9.652679
_cell_length_b                    10.892232
_cell_length_c                    13.509726
_cell_angle_alpha                 95.920559
_cell_angle_beta                  74.017852
_cell_angle_gamma                 92.461863
_cell_volume                      1358.05892142

loop_
_atom_site_label
_atom_site_type_symbol
_atom_type_description
_atom_site_fract_x
_atom_site_fract_y
_atom_site_fract_z
_atom_type_partial_charge
C1    C     C_R   0.504549 0.737018 0.495130 0.807354
C2    C     C_R   0.388115 0.445957 0.804821 -0.201090
C3    C     C_R   0.328448 0.859440 0.390605 -0.168474
C4    C     C_R   0.424671 0.484252 0.697175 0.894380
C5    C     C_R   0.200725 0.903317 0.380138 0.394744
C6    C     C_R   0.142236 0.011977 0.441010 0.318739
C7    C     C_R   0.228358 0.086808 0.492868 -0.052658
C8    C     C_R   0.371336 0.051133 0.486759 -0.021310
C9    C     C_R   0.405063 0.926551 0.453915 -0.094126
C10   C     C_R   0.511137 0.871071 0.488111 -0.098685
C11   C     C_R   0.607024 0.945667 0.530566 0.404286
C12   C     C_R   0.453239 0.444452 0.967046 -0.028073
C13   C     C_R   0.596531 0.073673 0.536870 -0.269682
C14   C     C_R   0.481434 0.128408 0.514273 -0.125608
C15   C     C_R   0.893896 0.334058 0.362116 -0.123994
C16   C     C_R   0.493842 0.262655 0.505635 0.830695
C17   C     C_R   0.975435 0.242043 0.299437 -0.348442
C18   C     C_R   0.116880 0.230937 0.298642 0.395529
C19   C     C_R   0.180618 0.319535 0.357278 0.427289
C20   C     C_R   0.095369 0.413892 0.430637 0.093826
C21   C     C_R   0.945680 0.417156 0.431356 0.161604
C22   C     C_R   0.905870 0.578758 0.565588 0.035940
C23   C     C_R   0.495255 0.444213 0.858949 -0.137874
C24   C     C_R   0.053638 0.579505 0.564439 -0.049026
C25   C     C_R   0.576782 0.506624 0.300850 0.842709
C26   C     C_R   0.805512 0.531717 0.024598 0.392628
C27   C     C_R   0.620149 0.515633 0.187138 -0.248968
C28   C     C_R   0.247534 0.406142 0.853742 0.383846
C29   C     C_R   0.212385 0.376169 0.956817 0.277617
C30   C     C_R   0.318207 0.389832 0.011691 0.273654
C31   C     C_1   0.153463 0.180883 0.569518 0.366517
C32   C     C_1   0.810394 0.659203 0.643282 0.346799
C33   C     C_1   0.371051 0.556316 0.182329 0.381845
C34   C     C_R   0.555971 0.480246 0.023486 -0.028483
C35   C     C_R   0.703501 0.493184 0.968906 -0.107874
C36   C     C_R   0.746332 0.460199 0.861127 0.303731
C37   C     C_R   0.641567 0.422005 0.809108 0.364447
C38   C     C_R   0.515105 0.510853 0.131681 -0.081618
C39   C     C_R   0.766578 0.530879 0.133054 0.353175
Cu1   Cu    Cu3+1 0.359340 0.500010 0.500010 1.019659
Cu2   Cu    Cu3+1 0.640660 0.499990 0.499990 1.025866
H1    H     H_    0.367781 0.772047 0.348773 0.177592
H2    H     H_    0.372512 0.266437 0.273486 0.367900
H3    H     H_    0.901164 0.459174 0.733592 0.333262
H4    H     H_    0.934051 0.626123 0.923848 0.357155
H5    H     H_    0.075452 0.326688 0.828609 0.401280
H6    H     H_    0.245678 0.254264 0.092320 0.351550
H7    H     H_    0.055424 0.344566 0.078119 0.343695
H8    H     H_    0.766947 0.300697 0.712755 0.331941
H9    H     H_    0.760786 0.957554 0.599289 0.338216
H10   H     H_    0.677787 0.130765 0.561729 0.201432
H11   H     H_    0.788166 0.332109 0.354251 0.222983
H12   H     H_    0.926612 0.177480 0.251833 0.166330
H13   H     H_    0.091994 0.643540 0.618218 0.145552
H14   H     H_    0.965962 0.557158 0.140965 0.375762
H15   H     H_    0.072201 0.888977 0.291478 0.332182
H16   H     H_    0.945591 0.974245 0.433979 0.348383
H17   H     H_    0.137340 0.079715 0.204309 0.324814
N1    N     N_R   0.852480 0.498790 0.499000 -0.194457
N2    N     N_R   0.148360 0.498710 0.498970 -0.169195
N3    N     N_1   0.089802 0.255408 0.630014 -0.251792
N4    N     N_1   0.734157 0.723021 0.707125 -0.263110
N5    N     N_1   0.255974 0.591998 0.222185 -0.215037
O1    O     O_R   0.381190 0.680360 0.500010 -0.608783
O2    O     O_3   0.132968 0.834046 0.315279 -0.703804
O3    O     O_3   0.001396 0.046050 0.454067 -0.765120
O4    O     O_3   0.196906 0.132224 0.241640 -0.746397
O5    O     O_3   0.325089 0.308530 0.342454 -0.682546
O6    O     O_3   0.890238 0.460698 0.808568 -0.693248
O7    O     O_3   0.942715 0.571153 0.975873 -0.678696
O8    O     O_3   0.149731 0.387026 0.796529 -0.638941
O9    O     O_3   0.301571 0.331297 0.099829 -0.736668
O10   O     O_3   0.074375 0.334141 0.001877 -0.722373
O11   O     O_3   0.676253 0.343717 0.718632 -0.719852
O12   O     O_R   0.618760 0.680340 0.500000 -0.520193
O13   O     O_3   0.710505 0.892483 0.564656 -0.714133
O14   O     O_R   0.323240 0.499990 0.650990 -0.535029
O15   O     O_R   0.560820 0.499960 0.650980 -0.550584
O16   O     O_R   0.381240 0.319660 0.500000 -0.534193
O17   O     O_R   0.618810 0.319640 0.499990 -0.596891
O18   O     O_R   0.439180 0.500040 0.349020 -0.547780
O19   O     O_R   0.676760 0.500010 0.349010 -0.551769
O20   O     O_3   0.867681 0.553811 0.188464 -0.690331

loop_
_geom_bond_atom_site_label_1
_geom_bond_atom_site_label_2
_ccdc_geom_bond_type
C37   O11   S    
C3    H1    S    
Cu1   N2    S    
C31   N3    T    
C35   C36   A    
H16   O3    S    
Cu2   O17   S    
C7    C8    A    
C12   C23   A    
C22   C32   S    
C36   C37   A    
C21   N1    A    
C11   O13   S    
C5    C6    A    
C26   C39   A    
C29   O10   S    
C27   C38   A    
C24   H13   S    
H15   O2    S    
C34   C35   A    
C13   H10   S    
C19   C20   A    
C27   C39   A    
C8    C9    A    
C20   N2    A    
C9    C10   A    
C24   N2    A    
C13   C14   A    
C25   O18   A    
H7    O10   S    
C7    C31   S    
C1    O12   A    
H3    O6    S    
Cu2   N1    S    
C5    O2    S    
Cu2   O15   S    
C18   C19   A    
C18   O4    S    
C23   C37   A    
C16   O17   A    
C2    C4    S    
C4    O15   A    
C29   C30   A    
C3    C9    A    
H9    O13   S    
Cu2   O12   S    
C26   C35   A    
C6    O3    S    
C33   N5    T    
C17   C18   A    
Cu1   O16   S    
C19   O5    S    
C15   H11   S    
H5    O8    S    
Cu1   Cu2   S    
C25   O19   A    
C26   O7    S    
C22   C24   A    
C28   O8    S    
C12   C34   A    
C1    O1    A    
C17   H12   S    
C22   N1    A    
C36   O6    S    
C15   C17   A    
C28   C29   A    
C8    C14   A    
C12   C30   A    
H4    O7    S    
C34   C38   A    
Cu1   O18   S    
C1    C10   S    
C3    C5    A    
C30   O9    S    
C6    C7    A    
C25   C27   S    
H2    O5    S    
C33   C38   S    
Cu1   O1    S    
C16   O16   A    
C32   N4    T    
C4    O14   A    
C11   C13   A    
Cu2   O19   S    
C14   C16   S    
Cu1   O14   S    
H6    O9    S    
C10   C11   A    
C39   O20   S    
H17   O4    S    
C15   C21   A    
C20   C21   A    
C2    C23   A    
H8    O11   S    
C2    C28   A    
H14   O20   S    
