data_mof_unit_6768.cif
_audit_creation_date              2013-03-05T16:23:08-0500
_audit_creation_method            fapswitch 2.2
_symmetry_space_group_name_H-M    P1
_symmetry_Int_Tables_number       1
_space_group_crystal_system       triclinic
_cell_length_a                    15.051245
_cell_length_b                    14.033199
_cell_length_c                    15.893145
_cell_angle_alpha                 90.511908
_cell_angle_beta                  93.917834
_cell_angle_gamma                 90.704634
_cell_volume                      3348.64535347

loop_
_atom_site_label
_atom_site_type_symbol
_atom_site_description
_atom_site_fract_x
_atom_site_fract_y
_atom_site_fract_z
_atom_type_partial_charge
O1    O     O_R   0.371450 0.581430 0.500010 -0.585433
O2    O     O_R   0.371450 0.418570 0.500010 -0.584951
C1    C     C_R   0.330529 0.499231 0.500016 0.780216
O3    O     O_R   0.500000 0.581470 0.379440 -0.591131
O4    O     O_R   0.500000 0.418530 0.379440 -0.566806
C2    C     C_R   0.497950 0.499591 0.340279 0.834653
Cu1   Cu    Cu3+1 0.499990 0.596430 0.500000 0.956153
Cu2   Cu    Cu3+1 0.499990 0.403570 0.500000 0.962918
O5    O     O_R   0.628540 0.581440 0.499990 -0.543784
O6    O     O_R   0.628540 0.418560 0.499990 -0.563167
O7    O     O_R   0.499990 0.581400 0.620560 -0.580355
O8    O     O_R   0.499990 0.418600 0.620560 -0.575141
C3    C     C_R   0.669803 0.500159 0.494316 0.876824
C4    C     C_R   0.500760 0.500277 0.659658 0.831241
C5    C     C_3   0.420599 0.572177 0.045023 -0.415707
C6    C     C_3   0.457301 0.398422 0.046137 -0.416559
C7    C     C_3   0.469786 0.392260 0.949696 -0.114296
C8    C     C_3   0.418016 0.569720 0.946637 -0.109539
H1    H     H_    0.353972 0.560496 0.069285 0.154050
H2    H     H_    0.386470 0.385426 0.058194 0.157373
H3    H     H_    0.496820 0.341776 0.079358 0.144679
H4    H     H_    0.443220 0.644256 0.067921 0.144946
H5    H     H_    0.533655 0.354354 0.944580 0.126131
H6    H     H_    0.443071 0.641331 0.929755 0.112294
C9    C     C_1   0.498366 0.500268 0.749081 -0.142372
C10   C     C_3   0.486773 0.497578 0.082253 0.301320
C11   C     C_3   0.487096 0.495793 0.915869 0.243321
C12   C     C_3   0.579653 0.527949 0.957341 -0.437781
C13   C     C_3   0.580930 0.521977 0.054487 -0.396515
C14   C     C_1   0.494108 0.498524 0.824226 -0.113658
C15   C     C_1   0.488879 0.497995 0.174620 -0.101020
C16   C     C_1   0.492922 0.498630 0.250355 -0.159350
H7    H     H_    0.605011 0.591162 0.082956 0.162910
H8    H     H_    0.628608 0.466309 0.077261 0.169690
H9    H     H_    0.595090 0.602392 0.939723 0.168795
H10   H     H_    0.633711 0.483065 0.934408 0.167252
C17   C     C_R   0.094205 0.497852 0.413929 -0.187647
C18   C     C_R   0.098315 0.469148 0.564747 -0.152432
H11   H     H_    0.057136 0.507593 0.353842 0.127105
H12   H     H_    0.064222 0.456693 0.621577 0.119095
C19   C     C_R   0.186515 0.505138 0.418788 -0.207977
C20   C     C_R   0.190806 0.476296 0.569429 -0.218810
H13   H     H_    0.220705 0.516520 0.361873 0.150357
H14   H     H_    0.228169 0.467249 0.629503 0.126329
C21   C     C_R   0.234501 0.496010 0.496588 0.009195
C22   C     C_R   0.049953 0.480798 0.487047 0.178825
C23   C     C_R   0.898806 0.413688 0.444066 -0.101818
C24   C     C_R   0.913732 0.568570 0.515762 -0.103166
C25   C     C_R   0.804926 0.418409 0.445757 0.379156
C26   C     C_R   0.821137 0.577207 0.509220 0.385554
C27   C     C_R   0.766651 0.498779 0.483107 -0.271405
C28   C     C_R   0.952614 0.486293 0.483822 -0.147652
C29   C     C_R   0.563659 0.109481 0.549677 -0.329257
C30   C     C_R   0.547862 0.895690 0.560096 -0.322526
H15   H     H_    0.611092 0.075909 0.593559 0.135433
H16   H     H_    0.578566 0.933092 0.614363 0.135974
C31   C     C_R   0.555231 0.209179 0.556541 0.161962
C32   C     C_R   0.544218 0.795419 0.563562 0.170954
N1    N     N_R   0.500020 0.258690 0.500000 -0.200496
N2    N     N_R   0.500020 0.741310 0.500000 -0.202804
C33   C     C_R   0.447755 0.207033 0.440724 0.170447
C34   C     C_R   0.456893 0.790167 0.434354 0.168192
C35   C     C_R   0.450839 0.106615 0.437036 -0.314310
C36   C     C_R   0.464753 0.890428 0.427777 -0.315573
H17   H     H_    0.404695 0.070287 0.392284 0.133753
H18   H     H_    0.431716 0.923736 0.373440 0.134166
C37   C     C_R   0.509462 0.054988 0.491314 0.122226
C38   C     C_R   0.509306 0.946111 0.491697 0.119246
C39   C     C_R   0.324597 0.561909 0.902827 0.116010
C40   C     C_R   0.257075 0.502958 0.932539 -0.123258
C41   C     C_R   0.173312 0.496376 0.888817 -0.148621
C42   C     C_R   0.155570 0.548168 0.815112 -0.126743
C43   C     C_R   0.221447 0.607056 0.785053 -0.144488
C44   C     C_R   0.305151 0.614256 0.828613 -0.187853
H19   H     H_    0.268957 0.459893 0.987959 0.118793
H20   H     H_    0.122325 0.450215 0.911745 0.122291
H21   H     H_    0.090876 0.542439 0.781122 0.121048
H22   H     H_    0.207846 0.646831 0.727664 0.147291
H23   H     H_    0.355411 0.659771 0.803571 0.118613
C45   C     C_R   0.400799 0.324312 0.904250 0.100947
C46   C     C_R   0.395326 0.230420 0.934910 -0.186364
C47   C     C_R   0.337382 0.162786 0.895285 -0.133330
C48   C     C_R   0.284102 0.187041 0.823725 -0.123304
C49   C     C_R   0.288902 0.278891 0.791621 -0.150797
C50   C     C_R   0.346825 0.346797 0.830962 -0.096796
H24   H     H_    0.436938 0.208923 0.989543 0.118258
H25   H     H_    0.334218 0.091260 0.919932 0.122978
H26   H     H_    0.239331 0.134574 0.792960 0.118366
H27   H     H_    0.247717 0.297670 0.735850 0.125209
H28   H     H_    0.347131 0.415978 0.802885 0.145199
O9    O     O_3   0.748886 0.354674 0.399382 -0.567280
C51   C     C_3   0.759394 0.259738 0.427219 -0.265916
H29   H     H_    0.786551 0.216319 0.376476 0.183231
H30   H     H_    0.692859 0.229614 0.438456 0.183770
H31   H     H_    0.803053 0.251535 0.486114 0.121007
O10   O     O_3   0.784158 0.663540 0.527770 -0.578847
C52   C     C_3   0.777868 0.718174 0.453327 -0.299713
H32   H     H_    0.844878 0.736159 0.432083 0.151526
H33   H     H_    0.744510 0.786219 0.466416 0.171806
H34   H     H_    0.736949 0.681134 0.401605 0.163471
C53   C     C_R   0.594425 0.252541 0.635720 0.157886
C54   C     C_R   0.678790 0.296771 0.641134 -0.140631
C55   C     C_R   0.717391 0.328823 0.718960 -0.163881
C56   C     C_R   0.674184 0.312345 0.792577 -0.121218
C57   C     C_R   0.592326 0.264044 0.788183 -0.137426
C58   C     C_R   0.551893 0.235619 0.710248 -0.134872
H35   H     H_    0.715646 0.305179 0.586120 0.134608
H36   H     H_    0.781907 0.364127 0.722405 0.121510
H37   H     H_    0.705004 0.335016 0.853093 0.112417
H38   H     H_    0.560929 0.246425 0.845083 0.127622
H39   H     H_    0.488571 0.197760 0.708135 0.131427
C59   C     C_R   0.582435 0.756109 0.643460 0.154238
C60   C     C_R   0.528327 0.747765 0.711733 -0.126036
C61   C     C_R   0.566444 0.731006 0.792806 -0.151991
C62   C     C_R   0.658686 0.723033 0.806747 -0.132529
C63   C     C_R   0.713187 0.735734 0.740133 -0.144297
C64   C     C_R   0.675225 0.755663 0.659711 -0.114393
H40   H     H_    0.456943 0.756639 0.702353 0.114045
H41   H     H_    0.524634 0.726816 0.845058 0.110800
H42   H     H_    0.688271 0.710956 0.869639 0.115098
H43   H     H_    0.784902 0.734803 0.751594 0.132359
H44   H     H_    0.717978 0.778092 0.611938 0.178283
C65   C     C_R   0.381622 0.251913 0.381771 0.157467
C66   C     C_R   0.400104 0.264110 0.297109 -0.138264
C67   C     C_R   0.333574 0.294912 0.238304 -0.153837
C68   C     C_R   0.247953 0.312101 0.263104 -0.135121
C69   C     C_R   0.228317 0.296463 0.346471 -0.149621
C70   C     C_R   0.294366 0.264926 0.405373 -0.131696
H45   H     H_    0.465729 0.249040 0.276666 0.128117
H46   H     H_    0.347980 0.303817 0.173295 0.123389
H47   H     H_    0.196510 0.336069 0.217519 0.126236
H48   H     H_    0.161841 0.308618 0.365429 0.174286
H49   H     H_    0.277576 0.250604 0.469298 0.128827
C71   C     C_R   0.388727 0.744978 0.375713 0.167365
C72   C     C_R   0.404738 0.732360 0.290325 -0.151718
C73   C     C_R   0.334834 0.706813 0.231672 -0.147863
C74   C     C_R   0.248374 0.696062 0.257205 -0.135119
C75   C     C_R   0.231389 0.712125 0.341365 -0.175037
C76   C     C_R   0.301124 0.736634 0.400416 -0.121376
H50   H     H_    0.470831 0.744126 0.269104 0.120421
H51   H     H_    0.347004 0.698138 0.165995 0.122404
H52   H     H_    0.194290 0.677154 0.211487 0.122608
H53   H     H_    0.164048 0.706305 0.360716 0.132255
H54   H     H_    0.286515 0.751827 0.464958 0.126606
C77   C     C_R   0.940537 0.334128 0.399913 0.169263
C78   C     C_R   0.932589 0.327953 0.311523 -0.128378
C79   C     C_R   0.969889 0.251418 0.270077 -0.174267
C80   C     C_R   0.014752 0.180486 0.316593 -0.120614
C81   C     C_R   0.023162 0.186449 0.404643 -0.164200
C82   C     C_R   0.986776 0.263378 0.446283 -0.180071
H55   H     H_    0.897345 0.382163 0.274980 0.128766
H56   H     H_    0.963727 0.246891 0.201912 0.126557
H57   H     H_    0.043439 0.121211 0.284411 0.128351
H58   H     H_    0.058301 0.131753 0.440570 0.130995
H59   H     H_    0.993412 0.267248 0.514520 0.122639
C83   C     C_R   0.969134 0.647302 0.555311 0.199781
C84   C     C_R   0.966816 0.666402 0.641989 -0.128349
C85   C     C_R   0.021155 0.738238 0.680192 -0.168155
C86   C     C_R   0.077774 0.791585 0.632099 -0.121156
C87   C     C_R   0.079714 0.773603 0.545602 -0.145831
C88   C     C_R   0.025345 0.701966 0.507165 -0.143592
H60   H     H_    0.923854 0.624855 0.680000 0.113800
H61   H     H_    0.019753 0.752173 0.747174 0.127353
H62   H     H_    0.120065 0.846906 0.661843 0.119424
H63   H     H_    0.123329 0.815159 0.508345 0.119826
H64   H     H_    0.026948 0.688944 0.440065 0.108708

loop_
_geom_bond_atom_site_label_1
_geom_bond_atom_site_label_2
_geom_bond_distance
_ccdc_geom_bond_type
C5    C8    1.561547 S    
C2    C16   1.425948 S    
C74   H52   1.082329 S    
C23   C77   1.482214 S    
C53   C54   1.403488 A    
C22   C28   1.465467 S    
C43   C44   1.397556 A    
C57   C58   1.394943 A    
C79   C80   1.398135 A    
C64   H44   1.075022 S    
C57   H38   1.077863 S    
C35   H17   1.079557 S    
C61   C62   1.396920 A    
C65   C66   1.404012 A    
C23   C25   1.417459 A    
C5    H1    1.109565 S    
C7    H5    1.111836 S    
C67   C68   1.396308 A    
C48   C49   1.393361 A    
C8    H6    1.110592 S    
O4    C2    1.301241 A    
C36   C38   1.404326 A    
C12   C13   1.545785 S    
C18   C20   1.391342 A    
C75   H53   1.081481 S    
Cu2   N1    2.033134 S    
C59   C64   1.402924 A    
O7    C4    1.301622 A    
C31   N1    1.379900 A    
C30   C38   1.398851 A    
C32   N2    1.386244 A    
C47   H25   1.082395 S    
C13   H7    1.113471 S    
C9    C14   1.200824 T    
C63   C64   1.396036 A    
N2    C34   1.382439 A    
C33   C35   1.411348 A    
O5    C3    1.310770 A    
C69   H48   1.079564 S    
C56   C57   1.396112 A    
C34   C36   1.415896 A    
C42   H21   1.082520 S    
C3    C27   1.480908 S    
C67   H46   1.078128 S    
C5    H4    1.113336 S    
C86   C87   1.397790 A    
C12   H9    1.109898 S    
C6    C7    1.558680 S    
C25   C27   1.416690 A    
C43   H22   1.082485 S    
C55   H36   1.082493 S    
C88   H64   1.082320 S    
Cu2   O8    1.925778 S    
C52   H32   1.112090 S    
C8    C39   1.528050 S    
C24   C26   1.397282 A    
C48   H26   1.082410 S    
C24   C83   1.484740 S    
C10   C15   1.466146 S    
C11   C14   1.468302 S    
C84   C85   1.398117 A    
C19   H13   1.082922 S    
C54   C55   1.398287 A    
C20   H14   1.083740 S    
C25   O9    1.392604 S    
O3    Cu1   1.925689 S    
C59   C60   1.405347 A    
C52   H33   1.108911 S    
C77   C78   1.403514 A    
C35   C37   1.403742 A    
C58   H39   1.083790 S    
C29   H15   1.078957 S    
C6    C10   1.548610 S    
C72   H50   1.083249 S    
C30   H16   1.079068 S    
N1    C33   1.379976 A    
C63   H43   1.082577 S    
C78   C79   1.398342 A    
C37   C38   1.527938 S    
C7    C11   1.578482 S    
C72   C73   1.398293 A    
C80   C81   1.398122 A    
O3    C2    1.300880 A    
O9    C51   1.414851 S    
C29   C31   1.410313 A    
C42   C43   1.394947 A    
C5    C10   1.547332 S    
C13   H8    1.113375 S    
C1    C21   1.442776 S    
C7    C45   1.539442 S    
C46   C47   1.397129 A    
C78   H55   1.083119 S    
O1    C1    1.300952 A    
C20   C21   1.398045 A    
C36   H18   1.079701 S    
Cu1   O7    1.929524 S    
C81   H58   1.082333 S    
C45   C50   1.414141 A    
C76   H54   1.083562 S    
C15   C16   1.200985 T    
C86   H62   1.082359 S    
C6    H2    1.109192 S    
O10   C52   1.413958 S    
C51   H30   1.108538 S    
C26   C27   1.406842 A    
C46   H24   1.082685 S    
C54   H35   1.073620 S    
C87   H63   1.082366 S    
C49   C50   1.397686 A    
C40   C41   1.398970 A    
C85   H61   1.082322 S    
O8    C4    1.298450 A    
C83   C88   1.404560 A    
C62   H42   1.081737 S    
C44   H23   1.082792 S    
C85   C86   1.398013 A    
C32   C59   1.472465 S    
C80   H57   1.082286 S    
C69   C70   1.396979 A    
Cu1   N2    2.033123 S    
C71   C76   1.405051 A    
C52   H34   1.113785 S    
C60   C61   1.397294 A    
C30   C32   1.409234 A    
C53   C58   1.405033 A    
Cu1   O5    1.948819 S    
C83   C84   1.403914 A    
O1    Cu1   1.943540 S    
O2    Cu2   1.948687 S    
C8    C11   1.575873 S    
C77   C82   1.404701 A    
C45   C46   1.412299 A    
O6    C3    1.302729 A    
C41   H20   1.082374 S    
O4    Cu2   1.929418 S    
C50   H28   1.072178 S    
C6    H3    1.113857 S    
C23   C28   1.411216 A    
C31   C53   1.475765 S    
C74   C75   1.395704 A    
C71   C72   1.404468 A    
C33   C65   1.471004 S    
C82   H59   1.083098 S    
C87   C88   1.397834 A    
C34   C71   1.471780 S    
C79   H56   1.082222 S    
C41   C42   1.396075 A    
C17   H11   1.083216 S    
C70   H49   1.083477 S    
C18   H12   1.083317 S    
C26   O10   1.377358 S    
C65   C70   1.403856 A    
C56   H37   1.082299 S    
C61   H41   1.077255 S    
C68   H47   1.082410 S    
C68   C69   1.395765 A    
C51   H29   1.109560 S    
C73   H51   1.078110 S    
C66   H45   1.083372 S    
O2    C1    1.295293 A    
C51   H31   1.113972 S    
C4    C9    1.424133 S    
C17   C19   1.388690 A    
C39   C40   1.411419 A    
C29   C37   1.406821 A    
C18   C22   1.401877 A    
Cu1   Cu2   2.706444 S    
C75   C76   1.396955 A    
C60   H40   1.083439 S    
C24   C28   1.407143 A    
C12   H10   1.113835 S    
C10   C13   1.548087 S    
Cu2   O6    1.943675 S    
C47   C48   1.393350 A    
C49   H27   1.082809 S    
C55   C56   1.396566 A    
C19   C21   1.396438 A    
C39   C44   1.410694 A    
C73   C74   1.396183 A    
C40   H19   1.078730 S    
C17   C22   1.399337 A    
C81   C82   1.398091 A    
C84   H60   1.083248 S    
C62   C63   1.394265 A    
C66   C67   1.397498 A    
C11   C12   1.559663 S    
