data_mof_unit_45043.cif
_audit_creation_date              2013-03-05T16:05:55-0500
_audit_creation_method            fapswitch 2.2
_symmetry_space_group_name_H-M    P1
_symmetry_Int_Tables_number       1
_space_group_crystal_system       triclinic
_cell_length_a                    26.181402
_cell_length_b                    7.163921
_cell_length_c                    23.94017
_cell_angle_alpha                 90.005161
_cell_angle_beta                  101.506191
_cell_angle_gamma                 89.994864
_cell_volume                      4400.01412685

loop_
_atom_site_label
_atom_site_type_symbol
_atom_site_description
_atom_site_fract_x
_atom_site_fract_y
_atom_site_fract_z
_atom_type_partial_charge
O1    O     O_R   0.797620 0.601060 0.203310 -0.582358
O2    O     O_R   0.202380 0.398940 0.796690 -0.582367
O3    O     O_R   0.702380 0.101060 0.296690 -0.582388
O4    O     O_R   0.297620 0.898940 0.703310 -0.582393
O5    O     O_R   0.692070 0.267810 0.186600 -0.576299
O6    O     O_R   0.307930 0.732190 0.813400 -0.576203
O7    O     O_R   0.807930 0.767810 0.313400 -0.576143
O8    O     O_R   0.192070 0.232190 0.686600 -0.576143
C1    C     C_R   0.673835 0.439817 0.171490 0.944353
C2    C     C_R   0.326164 0.560183 0.828510 0.944496
C3    C     C_R   0.826164 0.939816 0.328510 0.944771
C4    C     C_R   0.173836 0.060184 0.671490 0.944666
O9    O     O_R   0.796590 0.271120 0.196480 -0.556260
O10   O     O_R   0.203410 0.728880 0.803520 -0.556477
O11   O     O_R   0.703410 0.771120 0.303520 -0.556584
O12   O     O_R   0.296590 0.228880 0.696480 -0.556596
O13   O     O_R   0.807640 0.104280 0.306650 -0.582632
O14   O     O_R   0.192360 0.895720 0.693350 -0.582675
O15   O     O_R   0.692360 0.604280 0.193350 -0.582704
O16   O     O_R   0.307640 0.395720 0.806650 -0.582713
C5    C     C_R   0.812226 0.439740 0.184074 0.972149
C6    C     C_R   0.187780 0.560253 0.815928 0.972282
C7    C     C_R   0.687779 0.939772 0.315926 0.972331
C8    C     C_R   0.312220 0.060228 0.684074 0.972349
O17   O     O_3   0.753500 0.435660 0.286130 -0.257676
O18   O     O_3   0.246500 0.564340 0.713870 -0.257696
O19   O     O_3   0.746500 0.935660 0.213870 -0.257649
O20   O     O_3   0.253500 0.064340 0.786130 -0.257672
V1    V     V_3+5 0.749350 0.159470 0.243300 1.273444
V2    V     V_3+5 0.250650 0.840530 0.756700 1.273467
V3    V     V_3+5 0.750650 0.659470 0.256700 1.273459
V4    V     V_3+5 0.249350 0.340530 0.743300 1.273461
C9    C     C_R   0.384101 0.894325 0.649643 -0.178859
C10   C     C_R   0.615899 0.105680 0.350357 -0.178854
C11   C     C_R   0.115921 0.394376 0.850382 -0.178897
C12   C     C_R   0.884066 0.605736 0.149628 -0.178909
H1    H     H_    0.382329 0.788143 0.681392 0.206485
H2    H     H_    0.617672 0.211861 0.318608 0.206497
H3    H     H_    0.117705 0.288153 0.818642 0.206592
H4    H     H_    0.882259 0.711940 0.181365 0.206730
C13   C     C_R   0.419455 0.871238 0.612940 0.374726
C14   C     C_R   0.580545 0.128773 0.387059 0.374727
C15   C     C_R   0.080574 0.371299 0.887090 0.374749
C16   C     C_R   0.919408 0.628952 0.112922 0.374874
C17   C     C_R   0.422775 0.010562 0.571836 -0.128482
C18   C     C_R   0.577225 0.989450 0.428163 -0.128491
C19   C     C_R   0.077235 0.510680 0.928178 -0.128583
C20   C     C_R   0.922780 0.489614 0.071833 -0.128809
C21   C     C_R   0.389006 0.164534 0.567172 -0.192526
C22   C     C_R   0.610991 0.835473 0.432827 -0.192513
C23   C     C_R   0.110977 0.664696 0.932822 -0.192344
C24   C     C_R   0.889085 0.335471 0.067199 -0.192099
H5    H     H_    0.391110 0.271939 0.535819 0.190723
H6    H     H_    0.608885 0.728069 0.464180 0.190735
H7    H     H_    0.108849 0.772155 0.964159 0.190892
H8    H     H_    0.891258 0.228017 0.035874 0.191164
C25   C     C_R   0.353158 0.185343 0.603172 0.393038
C26   C     C_R   0.646839 0.814656 0.396826 0.393035
C27   C     C_R   0.146818 0.685518 0.896816 0.392985
C28   C     C_R   0.853255 0.314461 0.103212 0.392932
C29   C     C_R   0.350442 0.049208 0.645381 -0.353573
C30   C     C_R   0.649557 0.950792 0.354618 -0.353571
C31   C     C_R   0.149557 0.549303 0.854623 -0.353646
C32   C     C_R   0.850466 0.450697 0.145394 -0.353739
C33   C     C_R   0.447216 0.022382 0.475541 -0.127685
C34   C     C_R   0.552783 0.977637 0.524458 -0.127680
C35   C     C_R   0.052784 0.522706 0.024465 -0.127718
C36   C     C_R   0.947227 0.477743 0.975545 -0.127629
H9    H     H_    0.406462 0.038777 0.455917 0.144256
H10   H     H_    0.593537 0.961241 0.544082 0.144258
H11   H     H_    0.093535 0.539186 0.044090 0.144273
H12   H     H_    0.906477 0.461241 0.955921 0.144310
C37   C     C_R   0.484445 0.017768 0.440891 -0.045357
C38   C     C_R   0.515554 0.982251 0.559108 -0.045357
C39   C     C_R   0.015552 0.518141 0.059112 -0.045418
C40   C     C_R   0.984458 0.482315 0.940899 -0.045383
H13   H     H_    0.471727 0.030011 0.395135 0.140058
H14   H     H_    0.528272 0.970008 0.604864 0.140058
H15   H     H_    0.028264 0.530492 0.104865 0.140056
H16   H     H_    0.971747 0.469953 0.895146 0.140068
C41   C     C_R   0.537652 0.996535 0.465026 0.180653
C42   C     C_R   0.462347 0.003483 0.534973 0.180653
C43   C     C_R   0.962351 0.496786 0.034974 0.180685
C44   C     C_R   0.037661 0.503641 0.965036 0.180670
C45   C     C_3   0.958431 0.971375 0.522185 -0.077176
C46   C     C_3   0.041569 0.028625 0.477814 -0.077170
C47   C     C_3   0.541568 0.471333 0.977815 -0.077188
C48   C     C_3   0.458431 0.528667 0.022186 -0.077169
C49   C     C_3   0.993560 0.144219 0.532363 0.409007
C50   C     C_3   0.006440 0.855781 0.467636 0.409010
C51   C     C_3   0.506439 0.644193 0.967636 0.409017
C52   C     C_3   0.493560 0.355808 0.032365 0.409013
H17   H     H_    0.988364 0.288357 0.441825 0.227432
H18   H     H_    0.011636 0.711643 0.558175 0.227430
H19   H     H_    0.511635 0.788390 0.058173 0.227421
H20   H     H_    0.488364 0.211610 0.941828 0.227424
C53   C     C_1   0.128148 0.049783 0.625802 -0.218305
C54   C     C_1   0.871852 0.950217 0.374198 -0.218331
C55   C     C_1   0.371852 0.549780 0.874198 -0.218385
C56   C     C_1   0.628148 0.450220 0.125803 -0.218553
C57   C     C_3   0.006904 0.841462 0.532406 -0.313257
C58   C     C_3   0.993096 0.158538 0.467594 -0.313251
C59   C     C_3   0.493096 0.341444 0.967596 -0.313249
C60   C     C_3   0.506903 0.658557 0.032405 -0.313262
C61   C     C_3   0.042411 0.018298 0.542279 -0.029016
C62   C     C_3   0.957589 0.981702 0.457721 -0.029017
C63   C     C_3   0.457588 0.518296 0.957722 -0.029002
C64   C     C_3   0.542410 0.481704 0.042280 -0.028981
C65   C     C_1   0.089644 0.037198 0.588022 0.166567
C66   C     C_1   0.910356 0.962802 0.411978 0.166582
C67   C     C_1   0.410356 0.537196 0.911979 0.166515
C68   C     C_1   0.589643 0.462805 0.088022 0.166461
N1    N     N_R   0.449916 0.702690 0.616612 0.235667
O21   O     O_R   0.462784 0.614660 0.664929 -0.371471
O22   O     O_R   0.458770 0.622913 0.570631 -0.385344
N2    N     N_R   0.550086 0.297324 0.383387 0.235668
O23   O     O_R   0.541232 0.377102 0.429367 -0.385346
O24   O     O_R   0.537220 0.385356 0.335070 -0.371462
N3    N     N_R   0.050139 0.202712 0.883438 0.235668
O25   O     O_R   0.037287 0.114582 0.835134 -0.371457
O26   O     O_R   0.041291 0.123012 0.929428 -0.385387
N4    N     N_R   0.949807 0.797627 0.116577 0.235694
O27   O     O_R   0.958658 0.877346 0.070592 -0.385409
O28   O     O_R   0.962626 0.885788 0.164880 -0.371421
N5    N     N_R   0.319068 0.343322 0.594975 0.237992
O29   O     O_R   0.286042 0.362319 0.546947 -0.378269
O30   O     O_R   0.329467 0.486545 0.628690 -0.371922
N6    N     N_R   0.680925 0.656665 0.405022 0.237989
O31   O     O_R   0.713934 0.637615 0.453060 -0.378271
O32   O     O_R   0.670531 0.513471 0.371295 -0.371915
N7    N     N_R   0.180855 0.843638 0.904982 0.237950
O33   O     O_R   0.213643 0.863448 0.953150 -0.378275
O34   O     O_R   0.170518 0.986422 0.871081 -0.371886
N8    N     N_R   0.819315 0.156052 0.095082 0.237908
O35   O     O_R   0.786899 0.134997 0.046711 -0.378283
O36   O     O_R   0.829559 0.013927 0.129261 -0.371816
N9    N     N_R   0.984266 0.301838 0.567464 0.237513
O37   O     O_R   0.941225 0.396676 0.553914 -0.390155
O38   O     O_R   0.018802 0.349242 0.612127 -0.402249
N10   N     N_R   0.015734 0.698162 0.432536 0.237512
O39   O     O_R   0.058776 0.603324 0.446085 -0.390156
O40   O     O_R   0.981198 0.650758 0.387872 -0.402236
N11   N     N_R   0.515733 0.801782 0.932534 0.237513
O41   O     O_R   0.558774 0.896601 0.946082 -0.390257
O42   O     O_R   0.481196 0.849178 0.887870 -0.402244
N12   N     N_R   0.484266 0.198219 0.067467 0.237511
O43   O     O_R   0.441225 0.103400 0.053919 -0.390191
O44   O     O_R   0.518803 0.150823 0.112131 -0.402242
N13   N     N_3   0.912600 0.944087 0.547080 -0.158771
H21   H     H_    0.925347 0.938352 0.591281 0.168946
H22   H     H_    0.897452 0.812495 0.534231 0.174451
N14   N     N_3   0.087400 0.055913 0.452920 -0.158769
H23   H     H_    0.074653 0.061650 0.408719 0.168943
H24   H     H_    0.102549 0.187504 0.465770 0.174455
N15   N     N_3   0.587399 0.443998 0.952921 -0.158882
H25   H     H_    0.574652 0.438241 0.908719 0.168958
H26   H     H_    0.602548 0.312405 0.965771 0.174285
N16   N     N_3   0.412599 0.556002 0.047080 -0.158810
H27   H     H_    0.425346 0.561761 0.091282 0.168954
H28   H     H_    0.397450 0.687595 0.034230 0.174391

loop_
_geom_bond_atom_site_label_1
_geom_bond_atom_site_label_2
_geom_bond_distance
_ccdc_geom_bond_type
O17   V3    1.746979 S    
C26   C30   1.416386 A    
C8    C29   1.495146 S    
C54   C66   1.216018 T    
C47   C51   1.532722 S    
C49   C58   1.551617 S    
O19   V1    1.746874 S    
O13   V1    1.965221 S    
O1    C5    1.328150 A    
O3    C7    1.328034 A    
C17   C42   1.489806 S    
C10   C14   1.407328 A    
C10   C30   1.407886 A    
C51   C60   1.551616 S    
O15   V3    1.965215 S    
N6    O31   1.300613 A    
C40   C44   1.405846 A    
C26   N6    1.430370 S    
C21   C25   1.403043 A    
C34   H10   1.083043 S    
O7    C3    1.344734 A    
N9    O38   1.300193 A    
C27   N7    1.430430 S    
C22   H6    1.084022 S    
C3    C54   1.452839 S    
O9    V1    1.994802 S    
O10   V2    1.994798 S    
N12   O43   1.300293 A    
N13   H22   1.044974 S    
C25   N5    1.430366 S    
O4    C8    1.328032 A    
C21   H5    1.084020 S    
N15   H26   1.044974 S    
N11   O41   1.300295 A    
C34   C38   1.400657 A    
O1    V3    1.986944 S    
C33   C37   1.400657 A    
N2    O23   1.301438 A    
O2    V4    1.986942 S    
C14   C18   1.416485 A    
O3    V1    1.987041 S    
C5    C32   1.495304 S    
C24   C28   1.403096 A    
C52   C59   1.551616 S    
C6    C31   1.495182 S    
C24   H8    1.084030 S    
C1    O15   1.340143 A    
C51   N11   1.456611 S    
C47   C64   1.540831 S    
C48   C52   1.532722 S    
H18   C57   1.109254 S    
C2    O16   1.340144 A    
O2    C6    1.328080 A    
O14   V2    1.965219 S    
C48   N16   1.455541 S    
C11   C15   1.407317 A    
O5    V1    1.970231 S    
C36   H12   1.083048 S    
O11   C7    1.328076 A    
C35   C44   1.405292 A    
O12   C8    1.328078 A    
N16   H28   1.044975 S    
C38   C42   1.405856 A    
O16   V4    1.965215 S    
C37   C41   1.405854 A    
C48   C60   1.553243 S    
C52   C64   1.544225 S    
N12   O44   1.300195 A    
N3    O26   1.301437 A    
C57   C61   1.561238 S    
O7    V3    1.970244 S    
C52   N12   1.456612 S    
C22   C26   1.403046 A    
C51   C63   1.544225 S    
C12   H4    1.082889 S    
N10   O39   1.300294 A    
C50   C62   1.544225 S    
C46   C50   1.532723 S    
C48   C63   1.540831 S    
C45   C49   1.532722 S    
O18   V4    1.746978 S    
C19   C23   1.403979 A    
C23   H7    1.084026 S    
C9    H1    1.082907 S    
C64   C68   1.485438 S    
O8    V4    1.970242 S    
C11   H3    1.082898 S    
C50   C57   1.551617 S    
O5    C1    1.344723 A    
C46   N14   1.455542 S    
C18   C41   1.489805 S    
C53   C65   1.216016 T    
C17   C21   1.404022 A    
O8    C4    1.344735 A    
C55   C67   1.216014 T    
O9    C5    1.328031 A    
C19   C44   1.489772 S    
C25   C29   1.416379 A    
C4    C53   1.452839 S    
N2    O24   1.301464 A    
C47   C59   1.553244 S    
C14   N2    1.439993 S    
O6    V2    1.970233 S    
N14   H24   1.044974 S    
C56   C68   1.216017 T    
C1    C56   1.452836 S    
C49   N9    1.456612 S    
N16   H27   1.044960 S    
C47   N15   1.455540 S    
C12   C16   1.407312 A    
C46   C61   1.540831 S    
C35   C39   1.400646 A    
N4    O28   1.301466 A    
N7    O33   1.300736 A    
C46   C58   1.553244 S    
C28   N8    1.430546 S    
C60   C64   1.561235 S    
C45   C57   1.553242 S    
H19   C60   1.109253 S    
C59   C63   1.561235 S    
N1    O21   1.301464 A    
C62   C66   1.485440 S    
N11   O42   1.300194 A    
C61   C65   1.485442 S    
C3    O13   1.340153 A    
C37   H13   1.083027 S    
C10   H2    1.082906 S    
C36   C43   1.405283 A    
C63   C67   1.485438 S    
C40   H16   1.083025 S    
C13   N1    1.439993 S    
N7    O34   1.300264 A    
N6    O32   1.300227 A    
H17   C58   1.109252 S    
O6    C2    1.344723 A    
C50   N10   1.456611 S    
N3    O25   1.301465 A    
O11   V3    1.994634 S    
N8    O35   1.300755 A    
N10   O40   1.300196 A    
O12   V4    1.994632 S    
N9    O37   1.300295 A    
C18   C22   1.404018 A    
C27   C31   1.416488 A    
C20   C43   1.489758 S    
C28   C32   1.416650 A    
C9    C13   1.407329 A    
C49   C61   1.544228 S    
O10   C6    1.328040 A    
O20   V2    1.746874 S    
N13   H21   1.044960 S    
C34   C41   1.405289 A    
C36   C40   1.400633 A    
C39   C43   1.405839 A    
C33   C42   1.405287 A    
N5    O29   1.300615 A    
C39   H15   1.083025 S    
C33   H9    1.083045 S    
C16   N4    1.440006 S    
N8    O36   1.300267 A    
C58   C62   1.561236 S    
C35   H11   1.083046 S    
C2    C55   1.452835 S    
C45   N13   1.455542 S    
C16   C20   1.416413 A    
C20   C24   1.403936 A    
C23   C27   1.403049 A    
N14   H23   1.044961 S    
C9    C29   1.407885 A    
C38   H14   1.083025 S    
H20   C59   1.109253 S    
C4    O14   1.340154 A    
N15   H25   1.044962 S    
N5    O30   1.300228 A    
C13   C17   1.416487 A    
C11   C31   1.407901 A    
C7    C30   1.495153 S    
N4    O27   1.301438 A    
C12   C32   1.407951 A    
C15   C19   1.416465 A    
O4    V2    1.987041 S    
C45   C62   1.540831 S    
C15   N3    1.439998 S    
N1    O22   1.301438 A    
