data_mof_unit_23243.cif
_audit_creation_date              2012-12-10T18:35:41-0500
_audit_creation_method            fapswitch 2.2
_symmetry_space_group_name_H-M    P1
_symmetry_Int_Tables_number       1
_space_group_crystal_system       triclinic
_cell_length_a                    13.442835
_cell_length_b                    13.825056
_cell_length_c                    15.139063
_cell_angle_alpha                 89.984858
_cell_angle_beta                  89.94284
_cell_angle_gamma                 72.574493
_cell_volume                      2684.4398533

loop_
_atom_site_label
_atom_site_type_symbol
_atom_type_description
_atom_site_fract_x
_atom_site_fract_y
_atom_site_fract_z
_atom_type_partial_charge
C1    C     C_R   0.500152 0.499958 0.670169 0.782506
C2    C     C_R   0.814886 0.412676 0.500868 -0.102317
C3    C     C_R   0.468070 0.427118 0.904884 -0.170908
C4    C     C_R   0.700291 0.445889 0.502845 0.789249
C5    C     C_R   0.468420 0.426768 0.813078 -0.184738
C6    C     C_R   0.500593 0.499842 0.766570 -0.022470
C7    C     C_R   0.533262 0.572760 0.812777 -0.192464
C8    C     C_R   0.534279 0.572259 0.904592 -0.169241
C9    C     C_R   0.501294 0.499676 0.951385 0.105800
C10   C     C_R   0.470427 0.591730 0.095082 -0.170133
C11   C     C_R   0.470722 0.591808 0.186897 -0.186022
C12   C     C_R   0.979522 0.454164 0.505161 0.081540
C13   C     C_R   0.500536 0.499893 0.233348 -0.026799
C14   C     C_R   0.530846 0.407911 0.187010 -0.188172
C15   C     C_R   0.531906 0.407853 0.095199 -0.170044
C16   C     C_R   0.500145 0.499967 0.329806 0.793340
C17   C     C_R   0.501303 0.499755 0.048493 0.106118
C18   C     C_R   0.445267 0.909687 0.437907 -0.330852
C19   C     C_R   0.444466 0.808081 0.438647 0.064350
C20   C     C_R   0.557364 0.772915 0.561705 0.047729
C21   C     C_R   0.561242 0.874156 0.563851 0.078536
C22   C     C_R   0.503064 0.944783 0.500957 0.098300
C23   C     C_R   0.873432 0.476269 0.530458 0.089856
C24   C     C_R   0.447440 0.122277 0.565503 -0.295996
C25   C     C_R   0.447526 0.224169 0.564041 0.085876
C26   C     C_R   0.552115 0.194025 0.435453 0.071821
C27   C     C_R   0.552464 0.091996 0.433748 -0.296511
C28   C     C_R   0.299928 0.553949 0.501809 0.802965
C29   C     C_R   0.500934 0.054303 0.500088 0.144924
C30   C     C_R   0.033447 0.688167 0.589865 -0.198544
C31   C     C_R   0.187222 0.583985 0.515396 -0.052175
C32   C     C_R   0.865726 0.320296 0.459569 -0.187224
C33   C     C_R   0.971983 0.293319 0.443112 -0.150849
C34   C     C_R   0.032576 0.526977 0.522924 0.076328
C35   C     C_R   0.028273 0.359807 0.463791 -0.184110
C36   C     C_3   0.629518 0.903024 0.632099 -0.433786
C37   C     C_3   0.729112 0.914245 0.590626 -0.817974
C38   C     C_R   0.982195 0.615477 0.572329 0.169703
C39   C     C_R   0.882294 0.629250 0.605597 -0.257841
C40   C     C_R   0.829016 0.560304 0.585694 -0.201588
C41   C     C_R   0.134314 0.514749 0.492958 -0.249817
C42   C     C_R   0.135846 0.672256 0.561862 -0.195716
Cu1   Cu    Cu3+1 0.500000 0.403570 0.500010 0.936024
Cu2   Cu    Cu3+1 0.500000 0.596430 0.499990 0.936546
H1    H     H_    0.176289 0.726258 0.580142 0.152949
H2    H     H_    0.399025 0.782737 0.389889 0.122222
H3    H     H_    0.601351 0.718686 0.609397 0.109236
H4    H     H_    0.845056 0.693617 0.647318 0.147862
H5    H     H_    0.405703 0.096711 0.617316 0.127787
H6    H     H_    0.405481 0.275621 0.614592 0.117014
H7    H     H_    0.593820 0.221343 0.384854 0.112854
H8    H     H_    0.594418 0.042291 0.381946 0.137943
H9    H     H_    0.995316 0.755827 0.627492 0.133622
H10   H     H_    0.175695 0.450840 0.453131 0.145007
H11   H     H_    0.822667 0.269913 0.437500 0.148466
H12   H     H_    0.442104 0.370317 0.778535 0.139095
H13   H     H_    0.110142 0.333829 0.448129 0.128571
H14   H     H_    0.010506 0.221631 0.411462 0.138050
H15   H     H_    0.753588 0.572358 0.616120 0.151034
H16   H     H_    0.440543 0.371458 0.939431 0.124866
H17   H     H_    0.769531 0.845575 0.551758 0.253481
H18   H     H_    0.711479 0.981415 0.546722 0.261216
H19   H     H_    0.782382 0.924257 0.643496 0.232785
H20   H     H_    0.586088 0.974412 0.665895 0.210714
H21   H     H_    0.652388 0.843830 0.684236 0.183188
H22   H     H_    0.559374 0.629238 0.777981 0.134665
H23   H     H_    0.561995 0.627890 0.938914 0.124485
H24   H     H_    0.444761 0.663557 0.060598 0.124376
H25   H     H_    0.446252 0.663672 0.221480 0.140448
H26   H     H_    0.555051 0.336102 0.221681 0.138419
H27   H     H_    0.557793 0.335972 0.060807 0.124432
H28   H     H_    0.400064 0.961080 0.388613 0.146821
N1    N     N_R   0.500000 0.741310 0.499980 -0.179461
N2    N     N_R   0.500060 0.258650 0.499980 -0.167170
O1    O     O_R   0.499990 0.418570 0.628550 -0.590024
O2    O     O_R   0.499990 0.581440 0.628540 -0.596786
O3    O     O_R   0.650980 0.378820 0.499990 -0.581500
O4    O     O_R   0.650980 0.541690 0.499970 -0.577290
O5    O     O_R   0.500010 0.418560 0.371460 -0.592314
O6    O     O_R   0.500010 0.581430 0.371450 -0.584387
O7    O     O_R   0.349020 0.458310 0.500030 -0.583233
O8    O     O_R   0.349020 0.621180 0.500010 -0.584661

loop_
_geom_bond_atom_site_label_1
_geom_bond_atom_site_label_2
_ccdc_geom_bond_type
C33   H14   S    
C31   C42   A    
C27   C29   A    
C5    H12   S    
C37   H18   S    
C19   H2    S    
C7    C8    A    
C21   C36   S    
C12   C23   A    
C26   C27   A    
C36   C37   S    
C22   C29   S    
C25   N2    A    
Cu2   O8    S    
C5    C6    A    
C10   C17   A    
Cu1   O5    S    
C23   C40   A    
C30   C38   A    
C2    C32   A    
C18   C19   A    
Cu2   O2    S    
C25   H6    S    
C33   C35   A    
C24   C29   A    
C8    C9    A    
C32   H11   S    
C3    H16   S    
Cu1   N2    S    
C40   H15   S    
C34   C38   A    
C13   C14   A    
C18   H28   S    
C14   H26   S    
C34   C41   A    
C37   H19   S    
Cu1   O1    S    
C30   H9    S    
C28   O8    A    
C1    C6    S    
C1    O1    A    
C19   N1    A    
C24   C25   A    
C39   C40   A    
C36   H21   S    
C16   O6    A    
C42   H1    S    
C2    C4    S    
Cu1   Cu2   S    
C4    O4    A    
C3    C9    A    
Cu2   O6    S    
C12   C35   A    
C9    C17   S    
Cu1   O7    S    
C12   C34   A    
C27   H8    S    
C24   H5    S    
C15   C17   A    
C31   C41   A    
C28   O7    A    
C18   C22   A    
C1    O2    A    
C28   C31   S    
C3    C5    A    
C37   H17   S    
C11   H25   S    
C6    C7    A    
C10   H24   S    
Cu1   O3    S    
C15   H27   S    
C35   H13   S    
C16   O5    A    
C32   C33   A    
Cu2   O4    S    
C4    O3    A    
C36   H20   S    
C26   H7    S    
C7    H22   S    
C11   C13   A    
C38   C39   A    
C26   N2    A    
C20   N1    A    
Cu2   N1    S    
C41   H10   S    
C20   H3    S    
C10   C11   A    
C20   C21   A    
C8    H23   S    
C13   C16   S    
C2    C23   A    
C14   C15   A    
C30   C42   A    
C21   C22   A    
C39   H4    S    
