data_mof_unit_43811.cif
_audit_creation_date              2013-03-05T15:52:21-0500
_audit_creation_method            fapswitch 2.2
_symmetry_space_group_name_H-M    P1
_symmetry_Int_Tables_number       1
_space_group_crystal_system       triclinic
_cell_length_a                    14.923423
_cell_length_b                    15.313114
_cell_length_c                    9.889098
_cell_angle_alpha                 90.41814
_cell_angle_beta                  89.358707
_cell_angle_gamma                 89.718436
_cell_volume                      2259.66706405

loop_
_atom_site_label
_atom_site_type_symbol
_atom_site_description
_atom_site_fract_x
_atom_site_fract_y
_atom_site_fract_z
_atom_type_partial_charge
O1    O     O_R   0.408390 0.908380 0.614690 -0.645055
O2    O     O_R   0.408390 0.091620 0.614690 -0.655117
O3    O     O_R   0.908390 0.408380 0.614690 -0.657107
O4    O     O_R   0.908390 0.591620 0.614690 -0.641887
O5    O     O_R   0.408370 0.908380 0.385360 -0.637537
O6    O     O_R   0.408370 0.091620 0.385360 -0.635840
O7    O     O_R   0.908370 0.408380 0.385360 -0.641255
O8    O     O_R   0.908370 0.591620 0.385360 -0.626773
C1    C     C_R   0.385094 0.875261 0.500829 0.872760
C2    C     C_R   0.383288 0.123636 0.502114 0.867177
C3    C     C_R   0.885317 0.375019 0.501273 0.851599
C4    C     C_R   0.881543 0.621108 0.500713 0.850875
Zn1   Zn    Zn3+2 0.500010 0.000000 0.653130 0.915052
Zn2   Zn    Zn3+2 0.000010 0.500000 0.653130 0.919545
Zn3   Zn    Zn3+2 0.499980 0.000000 0.346870 0.932840
Zn4   Zn    Zn3+2 0.999980 0.500000 0.346870 0.933767
O9    O     O_R   0.591620 0.091610 0.614640 -0.634442
O10   O     O_R   0.591620 0.908390 0.614640 -0.618795
O11   O     O_R   0.091620 0.591610 0.614640 -0.625450
O12   O     O_R   0.091620 0.408390 0.614640 -0.619998
O13   O     O_R   0.591610 0.091610 0.385310 -0.618624
O14   O     O_R   0.591610 0.908390 0.385310 -0.609213
O15   O     O_R   0.091610 0.591610 0.385310 -0.611173
O16   O     O_R   0.091610 0.408390 0.385310 -0.619572
C5    C     C_R   0.614525 0.124922 0.500477 0.864110
C6    C     C_R   0.621115 0.881611 0.499212 0.866688
C7    C     C_R   0.114011 0.625391 0.501088 0.880088
C8    C     C_R   0.112180 0.373646 0.499459 0.885303
C9    C     C_R   0.307547 0.202505 0.762906 -0.231345
C10   C     C_R   0.338147 0.776091 0.752334 -0.214103
C11   C     C_R   0.925260 0.791630 0.612471 -0.238135
C12   C     C_R   0.825684 0.286683 0.759319 -0.219216
H1    H     H_    0.377194 0.187972 0.780804 0.178131
H2    H     H_    0.408769 0.791127 0.755420 0.179120
H3    H     H_    0.978032 0.743326 0.611690 0.139643
H4    H     H_    0.895976 0.301132 0.770295 0.166867
C13   C     C_R   0.252891 0.212235 0.877531 -0.160411
C14   C     C_R   0.295326 0.759779 0.875359 -0.150861
C15   C     C_R   0.944187 0.873997 0.665895 -0.138206
C16   C     C_R   0.775556 0.277575 0.878082 -0.139476
H5    H     H_    0.280269 0.199684 0.976590 0.151115
H6    H     H_    0.332034 0.766775 0.968708 0.146641
H7    H     H_    0.010013 0.886283 0.706711 0.144077
H8    H     H_    0.806921 0.289954 0.974581 0.139208
C17   C     C_R   0.879160 0.940062 0.664826 0.265388
C18   C     C_R   0.684988 0.255986 0.871460 0.251711
C19   C     C_R   0.163037 0.235601 0.864028 0.253389
C20   C     C_R   0.204944 0.737416 0.877846 0.256595
C21   C     C_R   0.795028 0.922638 0.609837 -0.204897
C22   C     C_R   0.648524 0.233986 0.746107 -0.175003
C23   C     C_R   0.131416 0.257702 0.736116 -0.166226
C24   C     C_R   0.160848 0.723065 0.755845 -0.186587
H9    H     H_    0.746563 0.975393 0.607223 0.156655
H10   H     H_    0.578009 0.217984 0.742943 0.162761
H11   H     H_    0.061759 0.276366 0.726333 0.146326
H12   H     H_    0.090544 0.707145 0.760921 0.165021
C25   C     C_R   0.774826 0.839020 0.556632 0.049378
C26   C     C_R   0.701945 0.235166 0.626601 0.051119
C27   C     C_R   0.189478 0.256430 0.621825 0.051241
C28   C     C_R   0.206837 0.730846 0.630368 0.051817
C29   C     C_R   0.273027 0.216042 0.631394 0.098442
C30   C     C_R   0.290695 0.770667 0.629103 0.095467
C31   C     C_R   0.840267 0.773056 0.558314 0.101965
C32   C     C_R   0.785624 0.275089 0.631046 0.098122
C33   C     C_R   0.317491 0.192227 0.508103 -0.109975
C34   C     C_R   0.322460 0.804409 0.504331 -0.111109
C35   C     C_R   0.819099 0.690977 0.501443 -0.071399
C36   C     C_R   0.824154 0.302778 0.506412 -0.108075
C37   C     C_R   0.288378 0.224246 0.384083 -0.223542
C38   C     C_R   0.282377 0.781150 0.382415 -0.225716
C39   C     C_R   0.737576 0.674978 0.439263 -0.212452
C40   C     C_R   0.792330 0.271429 0.383219 -0.229364
C41   C     C_R   0.673745 0.739446 0.437282 -0.203867
C42   C     C_R   0.721026 0.215738 0.381909 -0.218134
C43   C     C_R   0.216416 0.279347 0.380294 -0.209988
C44   C     C_R   0.210591 0.726118 0.383244 -0.215167
C45   C     C_R   0.691554 0.819698 0.497682 -0.082716
C46   C     C_R   0.676073 0.196584 0.502627 -0.111090
C47   C     C_R   0.168947 0.298151 0.499193 -0.116214
C48   C     C_R   0.173887 0.698694 0.505647 -0.118637
C49   C     C_R   0.336018 0.996557 0.142448 -0.235658
C50   C     C_R   0.836042 0.499969 0.142560 -0.217191
H13   H     H_    0.330037 0.998747 0.249639 0.224631
H14   H     H_    0.830141 0.499375 0.249745 0.216448
C51   C     C_R   0.255432 0.992137 0.073439 -0.226966
C52   C     C_R   0.755352 0.500654 0.073602 -0.223746
H15   H     H_    0.193059 0.989887 0.130399 0.157017
H16   H     H_    0.692782 0.500504 0.130284 0.157146
C53   C     C_R   0.255113 0.991360 0.932897 0.245592
C54   C     C_R   0.754907 0.501664 0.933200 0.232292
C55   C     C_R   0.336351 0.995947 0.862074 -0.171690
C56   C     C_R   0.836326 0.501426 0.862104 -0.156092
H17   H     H_    0.331793 0.998783 0.755010 0.223308
H18   H     H_    0.832275 0.501516 0.754984 0.215423
C57   C     C_R   0.419248 0.998060 0.928901 0.096571
C58   C     C_R   0.919236 0.500511 0.928940 0.098601
C59   C     C_R   0.419215 0.998181 0.073514 0.170299
C60   C     C_R   0.919214 0.500175 0.073556 0.174890
N1    N     N_R   0.498810 0.000000 0.142780 -0.113942
N2    N     N_R   0.998810 0.500000 0.142780 -0.113091
C61   C     C_R   0.577229 0.001694 0.070260 -0.127786
C62   C     C_R   0.077252 0.499276 0.070237 -0.129883
H19   H     H_    0.640216 0.003526 0.871886 0.153404
H20   H     H_    0.140265 0.498798 0.871898 0.159636
C63   C     C_R   0.577195 0.001818 0.926968 -0.111025
C64   C     C_R   0.077219 0.499251 0.926964 -0.096405
N3    N     N_R   0.498740 0.000000 0.857170 -0.120594
N4    N     N_R   0.998740 0.500000 0.857170 -0.123530
H21   H     H_    0.322152 0.208138 0.289463 0.172378
H22   H     H_    0.306369 0.805183 0.285816 0.175249
H23   H     H_    0.722995 0.611922 0.394111 0.137124
H24   H     H_    0.822516 0.289734 0.287388 0.171424
C65   C     C_3   0.168679 0.986244 0.856894 -0.930945
H25   H     H_    0.109881 0.983091 0.926523 0.240196
H26   H     H_    0.161222 0.044544 0.791863 0.250336
H27   H     H_    0.169098 0.926893 0.791760 0.247045
C66   C     C_3   0.667232 0.502894 0.860061 -0.904946
H28   H     H_    0.677149 0.502120 0.748545 0.233853
H29   H     H_    0.627259 0.444796 0.888390 0.250410
H30   H     H_    0.629018 0.562773 0.888536 0.242969
C67   C     C_3   0.898844 0.029516 0.720003 -0.935958
H31   H     H_    0.968026 0.033633 0.759840 0.243313
H32   H     H_    0.891460 0.078678 0.638789 0.247985
H33   H     H_    0.850959 0.045579 0.803425 0.245502
C68   C     C_3   0.627447 0.254423 0.996810 -0.961200
H34   H     H_    0.665046 0.276799 0.086802 0.241371
H35   H     H_    0.568795 0.298378 0.984214 0.239605
H36   H     H_    0.603237 0.187110 0.014861 0.250867
C69   C     C_3   0.102862 0.240282 0.986496 -0.932139
H37   H     H_    0.100698 0.175471 0.036074 0.248133
H38   H     H_    0.129055 0.289363 0.058907 0.239775
H39   H     H_    0.033424 0.259455 0.959664 0.234160
C70   C     C_3   0.157410 0.724972 0.010282 -0.943594
H40   H     H_    0.162648 0.785399 0.072444 0.246235
H41   H     H_    0.085307 0.709937 0.996630 0.249482
H42   H     H_    0.189044 0.669495 0.063532 0.233947
H43   H     H_    0.609508 0.726248 0.391300 0.146635
H44   H     H_    0.701553 0.187392 0.286035 0.173974
H45   H     H_    0.199891 0.309179 0.284718 0.166635
H46   H     H_    0.184154 0.704344 0.287888 0.177783
H47   H     H_    0.640271 0.003280 0.123142 0.150362
H48   H     H_    0.140320 0.498770 0.123094 0.144121

loop_
_geom_bond_atom_site_label_1
_geom_bond_atom_site_label_2
_geom_bond_distance
_ccdc_geom_bond_type
C40   H24   1.084044 S    
Zn4   O16   1.995718 S    
C18   C68   1.500459 S    
O10   C6    1.282585 A    
Zn1   N3    2.017648 S    
H20   C64   1.081763 S    
C34   C38   1.396488 A    
O7    C3    1.301819 A    
C63   N3    1.366072 A    
C22   H10   1.082386 S    
C41   H43   1.084856 S    
Zn1   O10   1.985848 S    
C19   C69   1.500695 S    
C13   H5    1.083717 S    
C32   C36   1.422559 A    
C69   H37   1.110612 S    
C66   H29   1.109471 S    
C52   H16   1.083724 S    
C9    H1    1.078683 S    
C56   C58   1.409338 A    
C21   C25   1.415905 A    
C10   C14   1.392649 A    
C28   C30   1.394783 A    
O2    Zn1   1.995723 S    
C8    C47   1.429837 S    
C1    C34   1.435904 S    
C67   H33   1.110793 S    
O14   C6    1.283300 A    
C38   H22   1.083963 S    
C49   H13   1.063047 S    
O6    Zn3   1.985955 S    
C37   H21   1.084112 S    
Zn3   O14   1.995718 S    
C39   H23   1.084911 S    
C68   H36   1.108961 S    
C44   C48   1.391553 A    
C62   C64   1.416843 A    
O15   C7    1.300715 A    
C13   C19   1.394248 A    
O11   C7    1.281402 A    
C16   H8    1.083488 S    
C14   C20   1.393237 A    
C36   C40   1.395290 A    
C15   C17   1.398581 A    
C69   H39   1.111186 S    
Zn2   N4    2.017648 S    
C58   N4    1.375681 A    
O8    Zn4   1.985955 S    
C26   C32   1.394085 A    
C50   C60   1.409751 A    
C61   H47   1.081773 S    
C56   H18   1.061732 S    
C59   N1    1.378107 A    
C25   C31   1.401881 A    
C9    C29   1.420428 A    
C44   H46   1.077531 S    
C61   C63   1.417048 A    
C4    C35   1.415306 S    
C31   C35   1.411878 A    
C27   C29   1.393550 A    
C6    C45   1.411984 S    
O5    Zn3   1.999328 S    
C30   C34   1.418718 A    
C51   H15   1.083399 S    
C5    C46   1.434696 S    
C22   C26   1.418432 A    
C54   C66   1.502183 S    
Zn2   O12   1.985848 S    
C20   C70   1.496304 S    
O1    C1    1.283771 A    
C12   C32   1.418707 A    
C40   C42   1.367046 A    
C7    C48   1.438925 S    
C52   C54   1.388735 A    
C66   H30   1.110304 S    
C27   C47   1.410834 A    
C39   C41   1.368873 A    
C10   H2    1.080605 S    
Zn4   N2    2.018537 S    
C19   C23   1.398322 A    
O12   C8    1.286984 A    
C23   H11   1.082303 S    
C17   C67   1.502350 S    
C50   C52   1.390509 A    
C58   C60   1.430161 A    
O1    Zn1   2.001263 S    
C16   C18   1.395128 A    
O5    C1    1.297334 A    
C11   C31   1.411757 A    
C55   H17   1.062897 S    
C42   H44   1.083134 S    
C54   C56   1.396954 A    
C53   C65   1.502231 S    
Zn3   O13   2.001256 S    
O8    C4    1.282950 A    
N2    C62   1.366053 A    
C17   C21   1.399907 A    
H19   C63   1.082073 S    
C67   H31   1.111074 S    
O3    Zn2   2.001263 S    
C57   N3    1.375923 A    
C70   H42   1.109062 S    
O7    Zn4   1.999328 S    
N1    C61   1.366141 A    
Zn4   O15   2.001256 S    
C50   H14   1.062739 S    
C10   C30   1.418406 A    
C38   C44   1.366269 A    
C70   H40   1.110723 S    
C11   H3    1.077710 S    
O4    C4    1.284757 A    
O2    C2    1.278892 A    
C12   H4    1.079630 S    
C3    C36   1.438463 S    
C68   H35   1.110215 S    
C65   H25   1.110762 S    
C2    C33   1.434769 S    
O13   C5    1.294681 A    
C28   C48   1.418628 A    
C51   C53   1.389853 A    
Zn2   O11   1.999218 S    
O16   C8    1.290923 A    
Zn3   N1    2.018537 S    
O6    C2    1.301465 A    
C15   H7    1.082999 S    
C57   C59   1.430079 A    
C14   H6    1.083606 S    
C18   C22   1.398968 A    
C60   N2    1.377607 A    
Zn1   O9    1.999218 S    
O9    C5    1.285726 A    
C65   H27   1.110066 S    
C25   C45   1.410326 A    
C43   H45   1.083161 S    
C66   H28   1.111008 S    
C68   H34   1.110338 S    
C64   N4    1.366105 A    
C33   C37   1.397117 A    
C49   C59   1.410122 A    
C11   C15   1.395310 A    
C37   C43   1.363491 A    
C35   C39   1.391302 A    
C12   C16   1.393627 A    
O4    Zn2   1.995723 S    
C67   H32   1.110817 S    
C21   H9    1.082302 S    
O3    C3    1.280432 A    
C26   C46   1.415428 A    
C55   C57   1.409470 A    
C29   C33   1.425783 A    
C20   C24   1.397232 A    
C23   C27   1.416399 A    
C24   C28   1.417329 A    
C53   C55   1.395639 A    
C42   C46   1.396544 A    
C9    C13   1.395724 A    
C70   H41   1.110994 S    
C41   C45   1.390573 A    
C62   H48   1.081720 S    
C65   H26   1.109930 S    
C43   C47   1.393430 A    
C49   C51   1.391079 A    
C24   H12   1.079008 S    
C69   H38   1.109836 S    
