data_mof_unit_14575.cif
_audit_creation_date              2013-03-05T15:49:58-0500
_audit_creation_method            fapswitch 2.2
_symmetry_space_group_name_H-M    P1
_symmetry_Int_Tables_number       1
_space_group_crystal_system       triclinic
_cell_length_a                    13.591991
_cell_length_b                    13.583327
_cell_length_c                    27.623778
_cell_angle_alpha                 90.242191
_cell_angle_beta                  90.125813
_cell_angle_gamma                 119.940517
_cell_volume                      4419.30219498

loop_
_atom_site_label
_atom_site_type_symbol
_atom_site_description
_atom_site_fract_x
_atom_site_fract_y
_atom_site_fract_z
_atom_type_partial_charge
O1    O     O_R   0.302900 0.805360 0.446400 -0.504360
O2    O     O_R   0.522090 0.841370 0.450730 -0.482370
C1    C     C_R   0.619934 0.898110 0.431618 0.549769
O3    O     O_R   0.693280 0.995650 0.447220 -0.509026
O4    O     O_R   0.657260 0.178740 0.451050 -0.489953
C2    C     C_R   0.599631 0.218471 0.431294 0.555301
O5    O     O_R   0.502640 0.195380 0.446850 -0.507150
O6    O     O_R   0.319630 0.976590 0.450330 -0.502438
C3    C     C_R   0.279577 0.879015 0.430527 0.536121
O7    O     O_R   0.303680 0.807790 0.552740 -0.523311
O8    O     O_R   0.522820 0.843620 0.549310 -0.469234
C4    C     C_R   0.619669 0.901316 0.569318 0.583263
O9    O     O_R   0.694060 0.998080 0.553560 -0.513125
O10   O     O_R   0.657980 0.180990 0.549630 -0.482873
C5    C     C_R   0.601421 0.222884 0.568688 0.604300
O11   O     O_R   0.503420 0.197810 0.553190 -0.467935
O12   O     O_R   0.320350 0.978840 0.548910 -0.441030
C6    C     C_R   0.278102 0.880399 0.567973 0.556866
Cr1   Cr    Cr6+3 0.417720 0.831920 0.499820 1.068669
Cr2   Cr    Cr6+3 0.668190 0.085770 0.500360 1.062488
Cr3   Cr    Cr6+3 0.414060 0.082260 0.499840 1.069291
O13   O     O_3   0.499990 0.999990 0.500010 -0.277608
C7    C     C_1   0.630375 0.263854 0.383532 -0.008932
C8    C     C_R   0.688869 0.241940 0.260784 -0.117030
C9    C     C_R   0.695189 0.256111 0.210535 -0.122420
C10   C     C_R   0.647294 0.405032 0.219227 -0.132399
C11   C     C_R   0.641080 0.390969 0.269373 -0.115004
C12   C     C_R   0.662189 0.309658 0.290274 0.032843
C13   C     C_R   0.674070 0.337560 0.189702 0.008679
C14   C     C_1   0.686298 0.358544 0.138525 -0.071886
C15   C     C_1   0.648210 0.289384 0.341474 -0.059795
C16   C     C_1   0.698292 0.386669 0.096709 -0.004061
H1    H     H_    0.703964 0.177767 0.276610 0.095646
H2    H     H_    0.716924 0.204227 0.188082 0.122448
H3    H     H_    0.632054 0.469143 0.203469 0.104758
H4    H     H_    0.619133 0.442829 0.291747 0.124164
C17   C     C_1   0.232171 0.863255 0.382749 -0.003517
C18   C     C_R   0.221340 0.943911 0.261498 -0.102479
C19   C     C_R   0.210531 0.936400 0.210501 0.255120
C20   C     C_R   0.113640 0.729660 0.216652 0.243267
C21   C     C_R   0.129075 0.739089 0.267001 -0.121113
C22   C     C_R   0.181265 0.845592 0.289493 -0.055552
C23   C     C_R   0.154257 0.828313 0.188394 0.075848
C24   C     C_1   0.130845 0.815902 0.136977 0.078264
C25   C     C_1   0.204386 0.854340 0.340743 -0.051016
C26   C     C_1   0.100704 0.796339 0.095212 0.043865
H5    H     H_    0.261463 0.025956 0.279416 0.130357
H6    H     H_    0.102035 0.663200 0.288389 0.134618
C27   C     C_1   0.637157 0.864695 0.384680 0.007582
C28   C     C_R   0.560880 0.761799 0.264531 0.242054
C29   C     C_R   0.569816 0.748081 0.214608 0.254562
C30   C     C_R   0.775843 0.875363 0.219536 0.005610
C31   C     C_R   0.765478 0.891464 0.269492 0.210189
C32   C     C_R   0.658830 0.830628 0.292045 -0.026267
C33   C     C_R   0.676103 0.807400 0.191853 -0.082480
C34   C     C_1   0.682286 0.796255 0.140098 0.035015
C35   C     C_1   0.648234 0.845308 0.343114 0.025852
C36   C     C_1   0.695118 0.785944 0.097648 0.044783
C37   C     C_R   0.637896 0.276788 0.616533 -0.026926
C38   C     C_R   0.754460 0.339042 0.629613 -0.003186
C39   C     C_R   0.783869 0.361442 0.678692 -0.169454
C40   C     C_R   0.700000 0.318888 0.714161 -0.032658
C41   C     C_R   0.584336 0.252715 0.701366 0.091149
C42   C     C_R   0.553635 0.243681 0.652565 0.205219
C43   C     C_R   0.674774 0.427824 0.778317 0.238485
C44   C     C_R   0.642192 0.420009 0.826649 0.009729
C45   C     C_R   0.766325 0.342818 0.846392 0.261823
C46   C     C_R   0.773883 0.325027 0.796759 -0.115261
C47   C     C_R   0.727439 0.366667 0.763092 -0.025280
C48   C     C_R   0.696791 0.387264 0.861690 -0.012501
H7    H     H_    0.871735 0.415952 0.689395 0.153558
H8    H     H_    0.811273 0.275183 0.784553 0.139737
C49   C     C_R   0.214989 0.856285 0.613749 0.004431
C50   C     C_R   0.190368 0.936173 0.635341 0.270592
C51   C     C_R   0.167409 0.929863 0.685553 0.081947
C52   C     C_R   0.158886 0.836200 0.711650 -0.004773
C53   C     C_R   0.165848 0.749108 0.687900 -0.129592
C54   C     C_R   0.194700 0.759378 0.639596 -0.146729
C55   C     C_R   0.223347 0.842016 0.798192 0.087936
C56   C     C_R   0.192315 0.820511 0.847222 -0.124498
C57   C     C_R   0.997314 0.762867 0.826482 -0.114387
C58   C     C_R   0.025708 0.782822 0.778158 -0.115340
C59   C     C_R   0.137557 0.822664 0.763640 0.046849
C60   C     C_R   0.080431 0.782687 0.861011 0.015415
H9    H     H_    0.254588 0.833462 0.874789 0.160502
H10   H     H_    0.960128 0.765899 0.751716 0.117993
H11   H     H_    0.909545 0.729095 0.836974 0.094318
H12   H     H_    0.154884 0.675511 0.707655 0.137888
H13   H     H_    0.208162 0.694272 0.623446 0.176350
C61   C     C_R   0.629806 0.872103 0.619142 0.021463
C62   C     C_R   0.580080 0.758032 0.635134 0.054498
C63   C     C_R   0.571585 0.737139 0.685118 -0.092784
C64   C     C_R   0.614325 0.827465 0.718177 0.025202
C65   C     C_R   0.660088 0.938968 0.702074 -0.094905
C66   C     C_R   0.668442 0.961147 0.653069 -0.124077
C67   C     C_R   0.749590 0.852434 0.783300 0.043360
C68   C     C_R   0.770828 0.842374 0.831452 -0.154936
C69   C     C_R   0.568613 0.747035 0.850167 0.068615
C70   C     C_R   0.547245 0.757728 0.801150 -0.080044
C71   C     C_R   0.636660 0.809638 0.768057 -0.010520
C72   C     C_R   0.682404 0.787015 0.864818 -0.005734
H14   H     H_    0.858154 0.873733 0.842439 0.167092
H15   H     H_    0.538309 0.651407 0.698429 0.161413
H16   H     H_    0.461273 0.727958 0.788620 0.180943
H17   H     H_    0.694047 0.009265 0.727611 0.137947
H18   H     H_    0.702523 0.048481 0.641711 0.141116
O14   O     O_R   0.819150 0.845650 0.033320 -0.484431
O15   O     O_R   0.006060 0.815720 0.028680 -0.481343
C73   C     C_R   0.049889 0.761438 0.048066 0.547525
O16   O     O_R   0.028100 0.664460 0.032550 -0.498289
O17   O     O_R   0.811290 0.477490 0.029660 -0.487439
C74   C     C_R   0.713745 0.434905 0.049461 0.553996
O18   O     O_R   0.638120 0.455970 0.034270 -0.502033
O19   O     O_R   0.667540 0.672320 0.030160 -0.488681
C75   C     C_R   0.723506 0.770725 0.049447 0.563122
O20   O     O_R   0.814460 0.840990 0.926980 -0.515793
O21   O     O_R   0.001710 0.811400 0.930110 -0.492128
C76   C     C_R   0.044094 0.755929 0.910730 0.535431
O22   O     O_R   0.023410 0.659800 0.926210 -0.520698
O23   O     O_R   0.806940 0.473170 0.931090 -0.476438
C77   C     C_R   0.708790 0.430906 0.911471 0.569909
O24   O     O_R   0.633420 0.451310 0.927930 -0.479196
O25   O     O_R   0.663190 0.668000 0.931580 -0.464075
C78   C     C_R   0.716843 0.766563 0.912338 0.573088
Cr4   Cr    Cr6+3 0.908000 0.821090 0.979770 1.070880
Cr5   Cr    Cr6+3 0.912420 0.571130 0.979880 1.052163
Cr6   Cr    Cr6+3 0.657970 0.566940 0.980940 1.099446
O26   O     O_3   0.826130 0.653050 0.980200 -0.283301
O27   O     O_3   0.472960 0.680401 0.187676 -0.537531
C79   C     C_3   0.454290 0.568525 0.187462 -0.076760
H19   H     H_    0.442135 0.533652 0.224755 0.147610
H20   H     H_    0.524918 0.564042 0.169252 0.098733
H21   H     H_    0.375452 0.513613 0.166667 0.160684
C80   C     C_2   0.891041 0.926659 0.197235 0.614967
O28   O     O_2   0.909559 0.876397 0.164871 -0.532565
O29   O     O_R   0.979318 0.031016 0.213853 -0.663194
H22   H     H_    0.053080 0.055917 0.196007 0.365211
O30   O     O_3   0.861072 0.960327 0.297015 -0.515765
C81   C     C_3   0.870369 0.068247 0.302047 -0.066390
H23   H     H_    0.803241 0.064735 0.326049 0.096808
H24   H     H_    0.867406 0.104967 0.266453 0.137599
H25   H     H_    0.953519 0.127024 0.319092 0.162712
C82   C     C_2   0.846325 0.387936 0.592879 0.587793
O31   O     O_2   0.942702 0.410538 0.603778 -0.518227
O32   O     O_R   0.823871 0.411457 0.546205 -0.692270
H26   H     H_    0.893489 0.445175 0.524769 0.338537
O33   O     O_3   0.631240 0.470397 0.744180 -0.537539
C83   C     C_3   0.720128 0.576628 0.728956 -0.080724
H27   H     H_    0.793897 0.571051 0.714870 0.101586
H28   H     H_    0.747586 0.639825 0.758978 0.137632
H29   H     H_    0.688789 0.607366 0.698854 0.173594
C84   C     C_2   0.542466 0.433224 0.837982 0.647356
O34   O     O_2   0.468277 0.365417 0.864812 -0.473637
O35   O     O_R   0.528326 0.516755 0.815057 -0.674243
H30   H     H_    0.452582 0.510457 0.822862 0.352101
O36   O     O_3   0.814498 0.305156 0.880732 -0.533268
C85   C     C_3   0.932508 0.355632 0.872922 -0.078712
H31   H     H_    0.972159 0.344182 0.905963 0.155265
H32   H     H_    0.973189 0.448788 0.866406 0.124630
H33   H     H_    0.950483 0.313086 0.842586 0.126486
C86   C     C_2   0.495632 0.198362 0.739478 0.641585
O37   O     O_2   0.403382 0.192112 0.734792 -0.442203
O38   O     O_R   0.519225 0.156850 0.781533 -0.687534
H34   H     H_    0.454717 0.127169 0.805667 0.368829
O39   O     O_3   0.440068 0.195282 0.640215 -0.505076
C87   C     C_3   0.416098 0.284343 0.633336 0.019597
H35   H     H_    0.433939 0.337305 0.666596 0.176131
H36   H     H_    0.324619 0.247183 0.624774 0.206696
H37   H     H_    0.464821 0.339440 0.602485 0.131802
O40   O     O_3   0.200049 0.026612 0.608766 -0.511994
C88   C     C_3   0.100426 0.988473 0.580801 -0.078706
H38   H     H_    0.023526 0.953473 0.604028 0.125605
H39   H     H_    0.091300 0.924102 0.553420 0.104039
H40   H     H_    0.106088 0.061971 0.560988 0.154771
C89   C     C_2   0.344465 0.885137 0.784797 0.584070
O41   O     O_2   0.413016 0.894700 0.815878 -0.512501
O42   O     O_R   0.381774 0.917117 0.737314 -0.679642
H41   H     H_    0.465965 0.946287 0.733504 0.345445
C90   C     C_2   0.157351 0.022683 0.710354 0.663631
O43   O     O_2   0.133765 0.084679 0.687169 -0.470971
O44   O     O_R   0.176722 0.041105 0.760195 -0.639432
H42   H     H_    0.169932 0.108015 0.772315 0.378238
C91   C     C_2   0.541805 0.660595 0.600970 0.570816
O45   O     O_2   0.471486 0.564809 0.613836 -0.546850
O46   O     O_R   0.588211 0.677232 0.554561 -0.689061
H43   H     H_    0.555739 0.604142 0.535049 0.340477
C92   C     C_2   0.847353 0.905326 0.749609 0.556684
O47   O     O_2   0.936917 0.986607 0.763126 -0.495277
O48   O     O_R   0.837961 0.861313 0.702894 -0.729232
H44   H     H_    0.910391 0.904472 0.683602 0.343017
C93   C     C_2   0.471726 0.698487 0.884560 0.599881
O49   O     O_2   0.488117 0.715177 0.928116 -0.494573
O50   O     O_R   0.360454 0.636431 0.866853 -0.712284
H45   H     H_    0.301714 0.609298 0.893545 0.343323
O51   O     O_3   0.247199 0.032111 0.181817 -0.565370
C94   C     C_3   0.362046 0.112184 0.191792 -0.111028
H46   H     H_    0.415541 0.071718 0.195954 0.115120
H47   H     H_    0.369362 0.163764 0.224328 0.124645
H48   H     H_    0.396578 0.171501 0.160837 0.159514
O52   O     O_3   0.067701 0.624445 0.194375 -0.558090
C95   C     C_3   0.949362 0.565540 0.201422 -0.097591
H49   H     H_    0.909529 0.613644 0.186644 0.132845
H50   H     H_    0.927450 0.545455 0.240272 0.125447
H51   H     H_    0.913123 0.483830 0.181433 0.163488
O53   O     O_3   0.456479 0.702465 0.286928 -0.545375
C96   C     C_3   0.402098 0.767597 0.284360 -0.079400
H52   H     H_    0.381455 0.777096 0.246274 0.163245
H53   H     H_    0.453868 0.852590 0.301698 0.091047
H54   H     H_    0.321131 0.722426 0.304494 0.152794

loop_
_geom_bond_atom_site_label_1
_geom_bond_atom_site_label_2
_geom_bond_distance
_ccdc_geom_bond_type
O6    C3    1.274606 A    
C14   C16   1.203846 T    
C88   H38   1.113414 S    
C65   H17   1.084146 S    
O39   C87   1.414511 S    
C62   C91   1.487594 S    
C30   C80   1.495150 S    
C21   C22   1.395769 A    
O33   C83   1.409197 S    
C16   C74   1.431055 S    
C83   H29   1.107299 S    
C33   C34   1.444064 S    
C86   O37   1.220281 D    
C29   O27   1.383296 S    
O25   C78   1.280587 A    
C89   O42   1.397898 S    
O4    Cr2   1.916550 S    
C44   C48   1.419690 A    
C53   C54   1.379481 A    
C30   C31   1.414593 A    
C4    O9    1.272632 A    
C88   H39   1.112536 S    
O8    Cr1   1.922978 S    
C37   C42   1.413959 A    
C56   H9    1.083804 S    
C4    C61   1.459129 S    
O36   C85   1.412239 S    
C83   H28   1.112095 S    
C18   C22   1.400968 A    
C91   O46   1.398616 S    
C38   C82   1.487711 S    
O4    C2    1.274840 A    
C81   H25   1.109148 S    
C96   H53   1.113693 S    
O40   C88   1.410842 S    
C82   O31   1.223490 D    
C69   C70   1.407461 A    
C27   C35   1.203399 T    
O15   C73   1.275026 A    
C82   O32   1.398809 S    
C49   C50   1.415340 A    
O24   Cr6   2.043967 S    
C76   O22   1.267158 A    
C51   C52   1.418704 A    
C63   H15   1.083738 S    
C20   C23   1.407865 A    
O38   H34   1.013779 S    
C53   H12   1.084284 S    
O52   C95   1.408294 S    
Cr4   O26   1.978208 S    
C49   C54   1.401788 A    
C10   C13   1.401982 A    
O15   Cr4   1.922798 S    
C43   O33   1.384738 S    
C51   C90   1.497616 S    
C68   H14   1.083982 S    
O9    Cr2   2.032902 S    
C30   C33   1.419540 A    
C56   C60   1.394975 A    
C9    H2    1.083336 S    
C39   H7    1.084373 S    
C70   H16   1.083581 S    
C37   C38   1.418912 A    
C85   H32   1.115006 S    
C61   C62   1.419342 A    
Cr3   O13   1.978845 S    
C69   C93   1.488491 S    
C87   H36   1.108126 S    
C95   H50   1.112491 S    
C67   C92   1.485298 S    
O48   H44   1.012770 S    
O17   Cr5   1.917306 S    
C94   H48   1.109391 S    
C52   C59   1.459893 S    
C74   O18   1.267768 A    
C86   O38   1.398109 S    
C42   O39   1.383512 S    
C24   C26   1.206718 T    
O32   H26   1.013869 S    
C52   C53   1.394379 A    
C54   H13   1.083120 S    
C9    C13   1.399738 A    
C88   H40   1.109167 S    
O1    Cr1   2.041243 S    
C72   C78   1.466156 S    
C50   O40   1.382776 S    
C50   C51   1.415914 A    
C45   C46   1.404032 A    
C1    C27   1.429842 S    
O10   Cr2   1.926047 S    
C61   C66   1.404009 A    
Cr1   O13   1.978365 S    
O1    C3    1.270192 A    
C8    C9    1.399067 A    
O14   Cr4   2.040521 S    
C94   H47   1.110547 S    
C62   C63   1.404166 A    
C96   H52   1.112751 S    
C46   C47   1.393419 A    
C19   C23   1.408173 A    
C20   O52   1.382456 S    
C28   C29   1.404434 A    
O44   H42   1.013870 S    
C19   O51   1.389260 S    
C5    O11   1.271608 A    
C57   C58   1.380293 A    
C41   C42   1.396967 A    
C85   H31   1.109223 S    
C45   O36   1.387807 S    
C22   C25   1.440991 S    
C7    C15   1.203968 T    
C79   H20   1.112875 S    
C91   O45   1.223427 D    
C93   O50   1.399232 S    
C44   C84   1.487217 S    
C13   C14   1.436849 S    
C66   H18   1.084236 S    
C55   C89   1.494016 S    
O25   Cr6   1.915102 S    
C89   O41   1.223469 D    
C96   H54   1.108362 S    
O7    Cr1   2.038113 S    
C46   H8    1.082888 S    
C67   C68   1.382218 A    
C40   C41   1.410208 A    
C3    C17   1.434943 S    
O12   C6    1.279006 A    
O35   H30   1.013361 S    
C65   C66   1.380638 A    
C64   C65   1.394725 A    
C28   C32   1.404029 A    
C83   H27   1.113451 S    
C64   C71   1.457294 S    
O14   C75   1.268828 A    
C77   O24   1.271761 A    
C57   H11   1.083492 S    
O23   Cr5   1.927319 S    
O16   Cr5   2.044716 S    
C20   C21   1.401866 A    
C84   O35   1.395919 S    
C58   C59   1.395751 A    
C6    C49   1.473052 S    
C31   O30   1.384801 S    
C23   C24   1.445487 S    
C10   C11   1.396111 A    
C87   H35   1.113447 S    
C95   H51   1.107824 S    
C55   C56   1.407304 A    
C79   H21   1.109252 S    
C17   C25   1.206224 T    
C1    O3    1.268787 A    
C57   C60   1.395714 A    
O23   C77   1.277774 A    
O27   C79   1.410231 S    
O5    Cr3   2.033057 S    
C93   O49   1.222617 D    
C41   C86   1.493557 S    
O53   C96   1.409658 S    
Cr5   O26   1.979032 S    
O20   C78   1.265420 A    
O17   C74   1.277463 A    
O2    Cr1   1.922478 S    
O10   C5    1.275879 A    
C5    C37   1.468079 S    
C12   C15   1.436831 S    
C8    C12   1.403281 A    
Cr2   O13   1.981191 S    
C94   H46   1.114965 S    
O6    Cr3   1.927385 S    
C80   O29   1.397874 S    
C81   H23   1.110768 S    
O11   Cr3   2.044564 S    
O19   C75   1.275312 A    
C2    O5    1.269579 A    
O18   Cr6   2.032161 S    
C11   H4    1.083551 S    
C85   H33   1.110697 S    
C69   C72   1.416979 A    
C80   O28   1.223129 D    
O46   H43   1.013910 S    
C8    H1    1.083693 S    
C70   C71   1.401703 A    
C18   H5    1.082526 S    
O20   Cr4   2.038202 S    
C45   C48   1.416132 A    
O2    C1    1.274648 A    
C31   C32   1.408841 A    
C58   H10   1.082645 S    
C73   O16   1.269606 A    
C55   C59   1.423656 A    
O19   Cr6   1.926496 S    
C81   H24   1.114094 S    
C48   C77   1.471271 S    
C36   C75   1.429691 S    
C18   C19   1.414033 A    
O7    C6    1.268888 A    
C43   C47   1.404035 A    
C2    C7    1.430916 S    
C67   C71   1.405587 A    
C63   C64   1.397680 A    
C21   H6    1.083821 S    
C34   C36   1.203742 T    
C79   H19   1.113407 S    
C29   C33   1.406308 A    
C43   C44   1.395254 A    
C39   C40   1.394814 A    
O12   Cr3   1.915916 S    
C92   O48   1.398420 S    
O30   C81   1.413326 S    
O42   H41   1.012829 S    
O51   C94   1.412951 S    
O3    Cr2   2.042872 S    
C28   O53   1.382904 S    
C10   H3    1.083329 S    
C92   O47   1.221977 D    
C95   H49   1.114066 S    
C40   C47   1.461511 S    
C87   H37   1.112699 S    
C60   C76   1.445818 S    
O50   H45   1.013937 S    
C26   C73   1.435933 S    
C11   C12   1.398758 A    
C90   O43   1.222800 D    
O22   Cr5   2.033635 S    
C38   C39   1.401140 A    
C84   O34   1.223272 D    
O21   C76   1.271784 A    
O21   Cr4   1.922230 S    
C68   C72   1.402861 A    
O29   H22   1.013736 S    
Cr6   O26   1.981016 S    
O8    C4    1.271165 A    
C90   O44   1.399022 S    
C32   C35   1.441470 S    
