data_mof_unit_42893.cif
_audit_creation_date              2012-12-10T20:06:28-0500
_audit_creation_method            fapswitch 2.2
_symmetry_space_group_name_H-M    P1
_symmetry_Int_Tables_number       1
_space_group_crystal_system       triclinic
_cell_length_a                    18.945796
_cell_length_b                    18.483309
_cell_length_c                    10.628866
_cell_angle_alpha                 90.091667
_cell_angle_beta                  90.189771
_cell_angle_gamma                 90.506042
_cell_volume                      3721.85641937

loop_
_atom_site_label
_atom_site_type_symbol
_atom_type_description
_atom_site_fract_x
_atom_site_fract_y
_atom_site_fract_z
_atom_type_partial_charge
C1    C     C_R   0.365294 0.499728 0.501904 0.833421
C2    C     C_R   0.634814 0.500377 0.502581 0.865024
C3    C     C_R   0.852737 0.498931 0.591890 0.057175
C4    C     C_R   0.150870 0.508069 0.607803 0.050748
C5    C     C_R   0.807670 0.548896 0.648785 -0.194434
C6    C     C_R   0.174051 0.543872 0.498519 -0.170134
C7    C     C_R   0.736943 0.550733 0.615697 -0.193056
C8    C     C_R   0.244192 0.540627 0.462300 -0.204183
C9    C     C_R   0.709958 0.501413 0.527580 -0.039786
C10   C     C_R   0.291189 0.499378 0.532395 -0.026108
C11   C     C_R   0.963737 0.569435 0.615826 -0.178597
C12   C     C_R   0.036829 0.572061 0.623409 -0.190163
C13   C     C_R   0.075040 0.507830 0.635032 0.107643
C14   C     C_R   0.928225 0.502684 0.622412 0.103861
C15   C     C_R   0.039180 0.441846 0.651924 -0.145803
C16   C     C_R   0.965940 0.439581 0.648443 -0.161902
C17   C     C_R   0.556239 0.726607 0.548493 0.028852
C18   C     C_R   0.443794 0.725530 0.451412 0.027578
C19   C     C_R   0.557484 0.802576 0.548885 -0.278550
C20   C     C_R   0.442577 0.801472 0.451035 -0.278652
C21   C     C_R   0.500036 0.841595 0.499970 0.139167
C22   C     C_R   0.498136 0.499931 0.260252 0.875761
C23   C     C_R   0.498168 0.500043 0.739735 0.866569
C24   C     C_R   0.467444 0.961959 0.402344 -0.232620
C25   C     C_R   0.532681 0.962743 0.597512 -0.232528
C26   C     C_R   0.466088 0.038229 0.402032 0.005184
C27   C     C_R   0.534020 0.039043 0.597809 0.004912
C28   C     C_R   0.500038 0.077895 0.499925 0.002652
C29   C     C_R   0.500057 0.923141 0.499941 0.091772
C30   C     C_R   0.467737 0.197888 0.597583 -0.265906
C31   C     C_R   0.532252 0.198319 0.402308 -0.266596
C32   C     C_R   0.468144 0.273802 0.595607 0.027089
C33   C     C_R   0.531837 0.274228 0.404342 0.027517
C34   C     C_R   0.500003 0.159138 0.499935 0.112917
C35   C     C_R   0.377525 0.560744 0.130668 -0.187287
C36   C     C_R   0.377863 0.561507 0.868382 -0.188806
C37   C     C_R   0.320853 0.590143 0.064736 -0.138460
C38   C     C_R   0.321006 0.590491 0.933792 -0.118298
C39   C     C_R   0.435830 0.531615 0.933838 0.089679
C40   C     C_R   0.435705 0.531331 0.065656 0.102017
C41   C     C_R   0.493376 0.499543 0.128150 -0.093484
C42   C     C_R   0.493523 0.499888 0.871793 -0.099270
C43   C     C_R   0.548043 0.465942 0.064430 -0.214687
C44   C     C_R   0.548111 0.466105 0.935925 -0.208827
C45   C     C_R   0.753928 0.450670 0.471176 -0.240919
C46   C     C_R   0.269087 0.463698 0.641618 -0.236908
C47   C     C_R   0.825672 0.450007 0.500539 0.039524
C48   C     C_R   0.199416 0.468964 0.681498 0.024428
H1    H     H_    0.591403 0.440927 0.114548 0.143767
H2    H     H_    0.591502 0.441167 0.886149 0.152536
H3    H     H_    0.600568 0.697320 0.586683 0.122592
H4    H     H_    0.399482 0.695419 0.413033 0.124698
H5    H     H_    0.603664 0.830310 0.585727 0.134695
H6    H     H_    0.396420 0.828318 0.414139 0.134421
H7    H     H_    0.442385 0.932864 0.325526 0.139387
H8    H     H_    0.557745 0.934252 0.674334 0.139178
H9    H     H_    0.442103 0.169553 0.674201 0.139633
H10   H     H_    0.557890 0.170331 0.325666 0.138950
H11   H     H_    0.442868 0.303407 0.670593 0.127977
H12   H     H_    0.557084 0.304173 0.329351 0.124769
H13   H     H_    0.374708 0.560285 0.232221 0.133755
H14   H     H_    0.375386 0.561874 0.766826 0.150808
H15   H     H_    0.276469 0.612205 0.115406 0.130247
H16   H     H_    0.276735 0.612780 0.882684 0.140477
H17   H     H_    0.732504 0.412836 0.402542 0.140639
H18   H     H_    0.306946 0.434244 0.698250 0.143151
H19   H     H_    0.827404 0.586779 0.718696 0.140489
H20   H     H_    0.137514 0.573486 0.439767 0.141645
H21   H     H_    0.702836 0.589397 0.661524 0.142883
H22   H     H_    0.261603 0.569373 0.379065 0.125526
H23   H     H_    0.935341 0.618893 0.597060 0.135103
H24   H     H_    0.063774 0.623531 0.611533 0.132685
H25   H     H_    0.067614 0.391461 0.659176 0.139992
H26   H     H_    0.938978 0.387970 0.657935 0.137662
N1    N     N_R   0.500000 0.689440 0.500000 -0.090354
N2    N     N_R   0.500000 0.310560 0.500000 -0.092233
O1    O     O_R   0.398180 0.560840 0.499970 -0.635823
O2    O     O_R   0.601820 0.560840 0.500030 -0.622537
O3    O     O_R   0.398180 0.439210 0.499910 -0.608698
O4    O     O_R   0.601820 0.439210 0.500090 -0.614689
O5    O     O_R   0.500000 0.560830 0.316760 -0.614344
O6    O     O_R   0.500000 0.560830 0.683240 -0.617609
O7    O     O_R   0.500000 0.439200 0.316700 -0.621894
O8    O     O_R   0.500000 0.439200 0.683300 -0.623813
Zn1   Zn    Zn3+2 0.500000 0.581210 0.500000 0.939647
Zn2   Zn    Zn3+2 0.500000 0.418790 0.500000 0.943932
C49   C     C_R   0.427158 0.075015 0.299348 0.122298
C50   C     C_R   0.372291 0.123200 0.327044 -0.128599
C51   C     C_R   0.336368 0.158380 0.230051 -0.130607
C52   C     C_R   0.354319 0.145208 0.104765 -0.103410
C53   C     C_R   0.407981 0.096549 0.076252 -0.135654
C54   C     C_R   0.444188 0.061348 0.172985 -0.184126
H27   H     H_    0.357241 0.133398 0.423609 0.129189
H28   H     H_    0.294477 0.195729 0.252039 0.136009
H29   H     H_    0.326448 0.172464 0.029753 0.127286
H30   H     H_    0.421464 0.086182 0.979121 0.128615
H31   H     H_    0.485836 0.023955 0.149550 0.122999
C55   C     C_R   0.572900 0.076754 0.700529 0.122251
C56   C     C_R   0.627643 0.126043 0.672894 -0.126708
C57   C     C_R   0.663435 0.162153 0.769926 -0.134488
C58   C     C_R   0.645486 0.148820 0.895195 -0.106764
C59   C     C_R   0.591968 0.099066 0.923650 -0.133229
C60   C     C_R   0.555895 0.062929 0.826875 -0.183866
H32   H     H_    0.642684 0.136400 0.576346 0.128511
H33   H     H_    0.705214 0.200359 0.747981 0.131797
H34   H     H_    0.673249 0.176803 0.970237 0.123275
H35   H     H_    0.578479 0.088581 0.020767 0.128296
H36   H     H_    0.514361 0.024688 0.850260 0.122587
C61   C     C_1   0.870392 0.401397 0.430959 0.126315
N3    N     N_1   0.906158 0.362472 0.375076 -0.203828
C62   C     C_1   0.180003 0.436600 0.800197 0.125729
N4    N     N_1   0.164546 0.410737 0.895404 -0.200653

loop_
_geom_bond_atom_site_label_1
_geom_bond_atom_site_label_2
_ccdc_geom_bond_type
C49   C50   A    
C27   C55   S    
C9    C45   A    
C18   N1    A    
C23   O6    A    
C1    O1    A    
C62   N4    T    
C25   H8    S    
C5    H19   S    
C17   H3    S    
C18   H4    S    
C52   H29   S    
C24   H7    S    
C57   H33   S    
C58   C59   A    
C23   C42   S    
C16   H26   S    
C31   H10   S    
C35   C37   A    
C24   C26   A    
C46   H18   S    
C11   C14   A    
C11   H23   S    
C22   C41   S    
C15   C16   A    
C30   H9    S    
C51   H28   S    
C4    C13   S    
C24   C29   A    
O4    Zn2   S    
C53   H30   S    
N1    Zn1   S    
C26   C49   S    
C10   C46   A    
C31   C33   A    
C60   H36   S    
C19   H5    S    
C6    H20   S    
C56   H32   S    
C12   H24   S    
C28   C34   S    
C49   C54   A    
C41   C43   A    
C42   C44   A    
C36   H14   S    
C37   H15   S    
C54   H31   S    
C39   C42   A    
C38   H16   S    
C45   C47   A    
C25   C29   A    
C46   C48   A    
C23   O8    A    
C30   C34   A    
C22   O5    A    
C20   H6    S    
C53   C54   A    
C5    C7    A    
C43   H1    S    
C6    C8    A    
C47   C61   S    
C21   C29   S    
C43   C44   A    
C32   N2    A    
C37   C38   A    
C2    O2    A    
C33   N2    A    
C56   C57   A    
O7    Zn2   S    
C31   C34   A    
C59   H35   S    
C35   H13   S    
C12   C13   A    
C3    C14   S    
O2    Zn1   S    
C4    C6    A    
C40   C41   A    
C15   H25   S    
C33   H12   S    
C13   C15   A    
C45   H17   S    
C1    O3    A    
C14   C16   A    
N2    Zn2   S    
C39   C40   A    
C4    C48   A    
C44   H2    S    
C58   H34   S    
C7    C9    A    
C50   H27   S    
C19   C21   A    
C20   C21   A    
C8    H22   S    
C36   C39   A    
C1    C10   S    
O8    Zn2   S    
C3    C5    A    
C7    H21   S    
C11   C12   A    
C25   C27   A    
O6    Zn1   S    
C26   C28   A    
C22   O7    A    
C36   C38   A    
C35   C40   A    
C61   N3    T    
C30   C32   A    
C52   C53   A    
C3    C47   A    
C57   C58   A    
C17   C19   A    
C18   C20   A    
C59   C60   A    
C2    O4    A    
O1    Zn1   S    
C48   C62   S    
C50   C51   A    
C8    C10   A    
C55   C56   A    
C27   C28   A    
C17   N1    A    
C32   H11   S    
C51   C52   A    
C2    C9    S    
O3    Zn2   S    
O5    Zn1   S    
C55   C60   A    
