data_mof_unit_45633.cif
_audit_creation_date              2012-12-10T18:12:41-0500
_audit_creation_method            fapswitch 2.2
_symmetry_space_group_name_H-M    P1
_symmetry_Int_Tables_number       1
_space_group_crystal_system       triclinic
_cell_length_a                    12.859654
_cell_length_b                    14.300079
_cell_length_c                    16.5054
_cell_angle_alpha                 98.540502
_cell_angle_beta                  107.257469
_cell_angle_gamma                 82.695687
_cell_volume                      2855.34617372

loop_
_atom_site_label
_atom_site_type_symbol
_atom_type_description
_atom_site_fract_x
_atom_site_fract_y
_atom_site_fract_z
_atom_type_partial_charge
C1    C     C_R   0.441317 0.688616 0.487412 0.978180
C2    C     C_3   0.505152 0.499780 0.919432 -0.202462
C3    C     C_3   0.478268 0.420170 0.015907 0.225674
C4    C     C_3   0.494516 0.509964 0.082554 -0.123178
C5    C     C_3   0.579810 0.438053 0.989959 0.340495
C6    C     C_3   0.596664 0.528531 0.054374 0.318660
C7    C     C_1   0.510466 0.499311 0.827820 0.169060
C8    C     C_1   0.488001 0.510872 0.173857 0.172325
C9    C     C_R   0.734596 0.066190 0.522819 0.529092
C10   C     C_R   0.594577 0.202334 0.513379 -0.383792
C11   C     C_R   0.297966 0.823905 0.465431 0.184703
C12   C     C_R   0.504680 0.500877 0.662777 0.866831
C13   C     C_R   0.262003 0.921319 0.464591 0.437973
C14   C     C_R   0.343356 0.987672 0.494810 0.415665
C15   C     C_R   0.459084 0.963667 0.499100 -0.123983
C16   C     C_R   0.491585 0.861737 0.485425 -0.215921
C17   C     C_R   0.541020 0.035298 0.512009 -0.055269
C18   C     C_R   0.652974 0.999768 0.513637 -0.262771
C19   C     C_R   0.677403 0.900051 0.502167 0.355922
C20   C     C_R   0.602599 0.834318 0.480347 0.534690
C21   C     C_R   0.516456 0.140987 0.522637 0.405529
C22   C     C_R   0.701807 0.160802 0.505712 0.353307
C23   C     C_R   0.560113 0.309604 0.508169 0.898307
C24   C     C_R   0.410393 0.792813 0.479015 -0.203948
C25   C     C_R   0.080303 0.336435 0.379918 0.521254
C26   C     C_R   0.807102 0.631326 0.609896 0.487971
C27   C     C_R   0.915842 0.659535 0.626883 0.160218
C28   C     C_R   0.998391 0.597535 0.597743 0.541287
C29   C     C_R   0.966866 0.525301 0.528782 -0.236081
C30   C     C_R   0.852930 0.502845 0.505260 -0.159120
C31   C     C_R   0.041517 0.479320 0.479482 -0.115115
C32   C     C_R   0.004129 0.395342 0.421170 -0.265504
C33   C     C_R   0.892456 0.375607 0.406420 0.441097
C34   C     C_R   0.490580 0.512108 0.338564 0.826948
C35   C     C_R   0.817805 0.431816 0.439935 0.522468
C36   C     C_R   0.148069 0.510130 0.483534 0.429280
C37   C     C_R   0.186234 0.368162 0.396550 0.428371
C38   C     C_3   0.420291 0.570878 0.012111 0.208152
C39   C     C_3   0.521400 0.590446 0.986195 0.342837
C40   C     C_1   0.511821 0.500360 0.753598 -0.194822
C41   C     C_1   0.485045 0.511171 0.247819 -0.205071
C42   C     C_3   0.403145 0.481223 0.947241 0.367050
N1    N     N_R   0.222180 0.444680 0.455580 -0.288404
N2    N     N_R   0.776980 0.554790 0.543960 -0.147060
O1    O     O_R   0.366730 0.627160 0.478790 -0.584843
O2    O     O_R   0.544830 0.662520 0.507160 -0.525040
O3    O     O_R   0.410960 0.482330 0.609040 -0.688526
O4    O     O_R   0.589060 0.517690 0.637410 -0.579703
O5    O     O_R   0.455170 0.337480 0.492840 -0.606637
O6    O     O_R   0.633270 0.372840 0.521210 -0.563177
O7    O     O_R   0.410940 0.482310 0.362590 -0.634078
O8    O     O_R   0.589040 0.517670 0.390960 -0.584441
Zn1   Zn    Zn3+2 0.381080 0.476390 0.481050 0.982377
Zn2   Zn    Zn3+2 0.618920 0.523610 0.518950 1.048687
O9    O     O_3   0.545784 0.676655 0.965209 -0.597031
C43   C     C_3   0.550611 0.751700 0.031512 -0.238050
H1    H     H_    0.626131 0.741344 0.084749 0.180848
H2    H     H_    0.477209 0.757544 0.054284 0.205180
H3    H     H_    0.551221 0.820224 0.007821 0.176100
O10   O     O_3   0.412291 0.187678 0.529065 -0.652691
H4    H     H_    0.421642 0.226582 0.583088 0.346409
O11   O     O_3   0.230668 0.757535 0.474312 -0.641778
H5    H     H_    0.162334 0.762948 0.422120 0.323869
O12   O     O_3   0.304013 0.072552 0.529460 -0.620748
H6    H     H_    0.341314 0.076735 0.592107 0.331477
O13   O     O_3   0.151005 0.963046 0.456951 -0.525431
C44   C     C_3   0.063277 0.905099 0.408850 -0.318486
H7    H     H_    0.043899 0.858171 0.451851 0.179013
H8    H     H_    0.073651 0.869041 0.345838 0.140162
H9    H     H_    0.987632 0.952617 0.389446 0.172085
O14   O     O_3   0.654218 0.742583 0.483828 -0.576143
C45   C     C_3   0.719894 0.695932 0.431616 -0.147826
H10   H     H_    0.804534 0.666349 0.473576 0.132569
H11   H     H_    0.722924 0.742455 0.381715 0.162939
H12   H     H_    0.678924 0.634957 0.395078 0.201685
O15   O     O_3   0.251257 0.320629 0.346087 -0.662970
H13   H     H_    0.329351 0.345167 0.376397 0.376699
O16   O     O_3   0.853536 0.297616 0.353044 -0.859780
H14   H     H_    0.799737 0.247524 0.331987 0.337747
O17   O     O_3   0.072743 0.244559 0.332034 -0.541277
C46   C     C_3   0.975877 0.199077 0.293853 -0.106314
H15   H     H_    0.915757 0.245362 0.250606 0.179545
H16   H     H_    0.952959 0.169155 0.342818 0.228290
H17   H     H_    0.993493 0.135386 0.252146 0.144166
O18   O     O_3   0.195364 0.588989 0.531875 -0.649871
H18   H     H_    0.271554 0.569324 0.547418 0.399759
O19   O     O_3   0.729199 0.687161 0.648950 -0.556896
C47   C     C_3   0.754567 0.712179 0.741645 -0.264642
H19   H     H_    0.670682 0.722399 0.754232 0.199389
H20   H     H_    0.807129 0.653927 0.776270 0.164765
H21   H     H_    0.787328 0.783547 0.764446 0.160646
O20   O     O_3   0.336887 0.638782 0.023672 -0.762116
H22   H     H_    0.302089 0.660867 0.967429 0.359681
O21   O     O_3   0.112461 0.614573 0.643328 -0.489375
C48   C     C_3   0.192075 0.532334 0.670350 -0.103225
H23   H     H_    0.177331 0.466276 0.624618 0.130930
H24   H     H_    0.192342 0.513549 0.733861 0.175179
H25   H     H_    0.277731 0.550405 0.677476 0.193243
O22   O     O_3   0.942314 0.747188 0.671543 -0.713929
H26   H     H_    0.874128 0.789404 0.673586 0.335423
O23   O     O_3   0.716494 0.404576 0.428007 -0.575352
C49   C     C_3   0.662197 0.361525 0.347494 -0.141015
H27   H     H_    0.660781 0.292129 0.360036 0.130118
H28   H     H_    0.688317 0.370590 0.289960 0.160099
H29   H     H_    0.573587 0.361943 0.335630 0.141398
O24   O     O_3   0.697029 0.554908 0.113310 -0.610884
C50   C     C_3   0.778101 0.563689 0.073836 -0.268718
H30   H     H_    0.752223 0.618091 0.028699 0.194164
H31   H     H_    0.802647 0.495160 0.041985 0.201263
H32   H     H_    0.852374 0.586213 0.123953 0.173200
O25   O     O_3   0.663653 0.369895 0.974506 -0.589043
C51   C     C_3   0.714571 0.318897 0.045447 -0.268685
H33   H     H_    0.656667 0.279184 0.060947 0.196347
H34   H     H_    0.754223 0.366579 0.101731 0.185347
H35   H     H_    0.779139 0.266665 0.030285 0.179033
O26   O     O_3   0.456392 0.333436 0.033278 -0.763058
H36   H     H_    0.450153 0.290264 0.981346 0.361507
O27   O     O_3   0.302817 0.454264 0.888094 -0.610704
C52   C     C_3   0.220690 0.449025 0.927749 -0.220191
H37   H     H_    0.200949 0.518393 0.961250 0.197107
H38   H     H_    0.243883 0.392333 0.971260 0.204033
H39   H     H_    0.143960 0.430899 0.877616 0.168650
O28   O     O_3   0.761284 0.198652 0.461459 -0.755053
H40   H     H_    0.744789 0.267575 0.460708 0.389758
O29   O     O_3   0.775643 0.857069 0.503336 -0.842200
H41   H     H_    0.799598 0.818153 0.550925 0.364983
O30   O     O_3   0.851134 0.054015 0.557187 -0.579190
C53   C     C_3   0.906667 0.967107 0.529727 -0.056726
H42   H     H_    0.864571 0.946812 0.458676 0.177031
H43   H     H_    0.929597 0.919927 0.584533 0.213914
H44   H     H_    0.988176 0.978881 0.526211 0.188187

loop_
_geom_bond_atom_site_label_1
_geom_bond_atom_site_label_2
_ccdc_geom_bond_type
O19   C47   S    
C3    C42   S    
C37   N1    A    
O23   C49   S    
C25   O17   S    
C19   C20   A    
O9    C43   S    
C11   O11   S    
C53   H42   S    
C51   H34   S    
C46   H15   S    
C48   H25   S    
C26   N2    A    
O28   H40   S    
O18   H18   S    
C10   C22   A    
O4    Zn2   S    
C27   O22   S    
C34   O7    A    
O6    Zn2   S    
C30   C35   A    
C28   C29   A    
C38   C42   S    
C3    O26   S    
C12   O3    A    
C5    C6    S    
C33   O16   S    
C23   O5    A    
O24   C50   S    
C15   C16   A    
C38   O20   S    
C11   C24   A    
C43   H1    S    
C49   H29   S    
C28   O21   S    
C18   C19   A    
C4    C8    S    
O27   C52   S    
C2    C7    S    
C25   C37   A    
C2    C39   S    
N1    Zn1   S    
C39   O9    S    
C48   H23   S    
C26   O19   S    
C50   H30   S    
C20   O14   S    
C12   O4    A    
O3    Zn1   S    
C25   C32   A    
O13   C44   S    
O1    Zn1   S    
C16   C24   A    
C13   C14   A    
C50   H31   S    
C30   N2    A    
C49   H27   S    
C34   C41   S    
C45   H12   S    
C51   H33   S    
C46   H16   S    
O8    Zn2   S    
C13   O13   S    
C52   H38   S    
C10   C21   A    
C44   H7    S    
C22   O28   S    
O15   H13   S    
C21   O10   S    
C45   H11   S    
O16   H14   S    
C42   O27   S    
C23   O6    A    
C5    O25   S    
C3    C5    S    
C19   O29   S    
C17   C21   A    
O10   H4    S    
C44   H8    S    
C12   C40   S    
C29   C30   A    
O22   H26   S    
C47   H21   S    
C7    C40   T    
C14   O12   S    
O2    Zn2   S    
O11   H5    S    
C17   C18   A    
C6    O24   S    
C16   C20   A    
C8    C41   T    
C49   H28   S    
C4    C6    S    
C37   O15   S    
C4    C38   S    
C26   C27   A    
O29   H41   S    
C36   O18   S    
C50   H32   S    
C2    C5    S    
O30   C53   S    
C53   H44   S    
C46   H17   S    
C52   H39   S    
C9    O30   S    
O25   C51   S    
C31   C36   A    
C31   C32   A    
C47   H20   S    
O17   C46   S    
C35   O23   S    
C53   H43   S    
C52   H37   S    
C48   H24   S    
C15   C17   A    
C6    C39   S    
C10   C23   S    
C34   O8    A    
C43   H3    S    
C44   H9    S    
C32   C33   A    
O14   C45   S    
C29   C31   A    
O12   H6    S    
C11   C13   A    
C1    O1    A    
C38   C39   S    
C2    C42   S    
C45   H10   S    
O5    Zn1   S    
O20   H22   S    
C33   C35   A    
C43   H2    S    
O26   H36   S    
O21   C48   S    
C1    O2    A    
N2    Zn2   S    
C9    C18   A    
C47   H19   S    
C1    C24   S    
C9    C22   A    
C27   C28   A    
C14   C15   A    
C36   N1    A    
O7    Zn1   S    
C51   H35   S    
C3    C4    S    
