data_mof_unit_45526.cif
_audit_creation_date              2012-12-11T14:21:12-0500
_audit_creation_method            fapswitch 2.2
_symmetry_space_group_name_H-M    P1
_symmetry_Int_Tables_number       1
_space_group_crystal_system       triclinic
_cell_length_a                    11.642407
_cell_length_b                    11.457895
_cell_length_c                    19.546568
_cell_angle_alpha                 90.388611
_cell_angle_beta                  90.522324
_cell_angle_gamma                 59.75816
_cell_volume                      2252.50519858

loop_
_atom_site_label
_atom_site_type_symbol
_atom_type_description
_atom_site_fract_x
_atom_site_fract_y
_atom_site_fract_z
_atom_type_partial_charge
C1    C     C_R   0.640488 0.117724 0.599185 0.549815
C2    C     C_1   0.641715 0.703472 0.667958 0.002488
C3    C     C_1   0.126329 0.198214 0.859268 -0.000983
C4    C     C_1   0.171830 0.170057 0.727695 -0.033054
C5    C     C_1   0.149984 0.181854 0.798946 -0.033664
C6    C     C_1   0.195783 0.160847 0.667408 -0.001004
C7    C     C_1   0.678144 0.191282 0.860792 -0.002644
C8    C     C_1   0.658541 0.167414 0.728988 -0.032901
C9    C     C_1   0.665324 0.181052 0.800304 -0.034555
C10   C     C_1   0.653177 0.149876 0.668579 0.000535
C11   C     C_R   0.665552 0.671273 0.193372 -0.057852
C12   C     C_R   0.612533 0.745897 0.598542 0.543495
C13   C     C_R   0.539297 0.725405 0.222876 0.010133
C14   C     C_R   0.532672 0.700311 0.292079 -0.013942
C15   C     C_R   0.768086 0.617907 0.306619 0.238070
C16   C     C_R   0.779717 0.618855 0.235661 -0.131175
C17   C     C_R   0.421802 0.784532 0.183035 -0.044716
C18   C     C_R   0.308003 0.789233 0.207472 -0.081611
C19   C     C_R   0.307931 0.741831 0.272793 -0.133263
C20   C     C_R   0.418918 0.697689 0.314906 -0.096103
C21   C     C_R   0.642436 0.673383 0.335064 -0.012772
C22   C     C_R   0.172114 0.180653 0.184995 -0.003546
C23   C     C_R   0.241121 0.145385 0.598247 0.554730
C24   C     C_R   0.250688 0.234904 0.207347 -0.008059
C25   C     C_R   0.285880 0.225330 0.277396 0.005500
C26   C     C_R   0.201813 0.070765 0.294160 -0.152452
C27   C     C_R   0.149662 0.098983 0.228797 -0.167297
C28   C     C_R   0.286318 0.307019 0.162166 -0.079950
C29   C     C_R   0.322862 0.398369 0.187315 0.294412
C30   C     C_R   0.340492 0.402825 0.257269 -0.069154
C31   C     C_R   0.330864 0.312475 0.301060 -0.148447
C32   C     C_R   0.267069 0.135138 0.320628 -0.005624
C33   C     C_R   0.735332 0.204200 0.206452 0.012593
C34   C     C_R   0.642996 0.109588 0.400790 0.524619
C35   C     C_R   0.810024 0.067839 0.232196 0.026278
C36   C     C_R   0.760361 0.036070 0.289436 -0.019657
C37   C     C_R   0.622864 0.276892 0.314879 -0.171449
C38   C     C_R   0.648279 0.307762 0.250016 -0.156858
C39   C     C_R   0.929098 0.960148 0.202502 -0.149018
C40   C     C_R   0.988234 0.828647 0.226206 -0.133244
C41   C     C_R   0.933690 0.798647 0.280407 0.270424
C42   C     C_R   0.809115 0.897682 0.303614 -0.088072
C43   C     C_R   0.671041 0.142290 0.333205 0.006674
C44   C     C_R   0.081709 0.230725 0.928537 0.547671
C45   C     C_R   0.616370 0.734850 0.403356 0.548303
C46   C     C_R   0.683579 0.604320 0.929542 0.545961
C47   C     C_R   0.708178 0.206352 0.930187 0.554929
C48   C     C_R   0.088651 0.232328 0.123512 0.523759
C49   C     C_R   0.682975 0.613988 0.124948 0.525133
C50   C     C_R   0.744897 0.235137 0.134422 0.558027
C51   C     C_R   0.304123 0.115048 0.393812 0.545623
C52   C     C_1   0.669297 0.646789 0.860161 0.002224
C53   C     C_1   0.654843 0.683413 0.728452 -0.033127
C54   C     C_1   0.662681 0.666852 0.799705 -0.033984
Cr1   Cr    Cr6+3 0.404720 0.198220 0.499960 0.992832
Cr2   Cr    Cr6+3 0.698290 0.897110 0.500380 1.002665
Cr3   Cr    Cr6+3 0.396970 0.904720 0.499610 1.007038
Cr4   Cr    Cr6+3 0.926180 0.151990 0.028120 0.996178
Cr5   Cr    Cr6+3 0.921330 0.451820 0.027470 0.991259
Cr6   Cr    Cr6+3 0.626260 0.446870 0.028710 1.021683
H1    H     H_    0.367550 0.473507 0.277720 0.118878
H2    H     H_    0.355068 0.318186 0.353249 0.166952
H3    H     H_    0.560703 0.358034 0.349675 0.103788
H4    H     H_    0.985927 0.972703 0.163262 0.147909
H5    H     H_    0.599854 0.412233 0.233742 0.155546
H6    H     H_    0.079661 0.750350 0.204072 0.119128
H7    H     H_    0.757246 0.865132 0.336112 0.171682
H8    H     H_    0.420822 0.817924 0.131193 0.118590
H9    H     H_    0.878589 0.568637 0.213949 0.173194
H10   H     H_    0.221502 0.827402 0.174814 0.081667
H11   H     H_    0.221896 0.740736 0.291836 0.124859
H12   H     H_    0.416399 0.656224 0.364041 0.128359
H13   H     H_    0.180427 0.007003 0.325862 0.143360
H14   H     H_    0.280926 0.296316 0.107466 0.124201
H15   H     H_    0.085428 0.061988 0.213909 0.119700
O1    O     O_R   0.267740 0.231960 0.575440 -0.503489
O2    O     O_R   0.685970 0.784660 0.430010 -0.498067
O3    O     O_R   0.502530 0.767000 0.423990 -0.542598
O4    O     O_R   0.288330 0.026350 0.429250 -0.505294
O5    O     O_3   0.499990 0.000020 0.499980 -0.262632
O6    O     O_R   0.821500 0.119340 0.952830 -0.502174
O7    O     O_R   0.037130 0.162530 0.957360 -0.493790
O8    O     O_R   0.056440 0.344740 0.951340 -0.518684
O9    O     O_R   0.797900 0.560360 0.957470 -0.493321
O10   O     O_R   0.596130 0.579390 0.952730 -0.518935
O11   O     O_R   0.639060 0.321160 0.958670 -0.503934
O12   O     O_R   0.527280 0.186640 0.570530 -0.492155
O13   O     O_R   0.821240 0.124200 0.104370 -0.534055
O14   O     O_R   0.036890 0.167040 0.097840 -0.531012
O15   O     O_R   0.056180 0.349610 0.102880 -0.532375
O16   O     O_R   0.797660 0.564870 0.097950 -0.508704
O17   O     O_R   0.595880 0.584250 0.104270 -0.509601
O18   O     O_R   0.638830 0.325670 0.099150 -0.451006
O19   O     O_3   0.824590 0.350230 0.028100 -0.266064
O20   O     O_R   0.728090 0.003450 0.576380 -0.505181
O21   O     O_R   0.682970 0.789190 0.570490 -0.492514
O22   O     O_R   0.499290 0.771880 0.575530 -0.506905
O23   O     O_R   0.285330 0.030870 0.569730 -0.488162
O24   O     O_R   0.270980 0.227080 0.423890 -0.555895
O25   O     O_R   0.530280 0.182120 0.430050 -0.531661
O26   O     O_R   0.731330 0.998570 0.424830 -0.549091
O27   O     O_3   0.879039 0.554233 0.348340 -0.538520
C55   C     C_3   0.929046 0.413071 0.347254 0.016889
H16   H     H_    0.034620 0.363503 0.363239 0.187292
H17   H     H_    0.927945 0.373467 0.295061 0.122526
C56   C     C_3   0.854891 0.373352 0.398096 -0.278544
H18   H     H_    0.856033 0.414754 0.449530 0.177771
H19   H     H_    0.749898 0.416233 0.381472 0.150538
C57   C     C_3   0.918106 0.220332 0.402965 -0.468623
H20   H     H_    0.920950 0.176362 0.351749 0.153444
H21   H     H_    0.858727 0.195291 0.437727 0.159870
H22   H     H_    0.020580 0.174975 0.423883 0.178714
O28   O     O_3   0.351535 0.477345 0.145154 -0.554760
C58   C     C_3   0.249929 0.548921 0.095938 -0.003433
H23   H     H_    0.220042 0.657229 0.099810 0.128501
H24   H     H_    0.157280 0.544691 0.104062 0.128887
C59   C     C_3   0.304140 0.500003 0.023970 -0.248977
H25   H     H_    0.387768 0.518269 0.014697 0.205574
H26   H     H_    0.342529 0.389840 0.019293 0.161909
C60   C     C_3   0.196968 0.574096 0.969617 -0.472468
H27   H     H_    0.112580 0.556376 0.977419 0.175113
H28   H     H_    0.239227 0.536199 0.918092 0.160138
H29   H     H_    0.159946 0.684320 0.971993 0.142407
O29   O     O_3   0.009676 0.677143 0.314045 -0.529511
C61   C     C_3   0.029580 0.703515 0.382893 0.022577
H30   H     H_    0.940885 0.727232 0.413913 0.192126
H31   H     H_    0.049500 0.789021 0.387304 0.102891
C62   C     C_3   0.148478 0.579826 0.413489 -0.352936
H32   H     H_    0.240458 0.559139 0.386709 0.113601
H33   H     H_    0.158905 0.598000 0.468464 0.091895
H34   H     H_    0.134452 0.491389 0.408974 0.201729

loop_
_geom_bond_atom_site_label_1
_geom_bond_atom_site_label_2
_ccdc_geom_bond_type
C25   C31   A    
Cr2   O20   S    
C22   C48   S    
C26   C32   A    
C41   C42   A    
Cr3   O4    S    
C36   C42   A    
C35   C36   A    
Cr3   O5    S    
C23   O1    A    
C44   O8    A    
C2    C12   S    
C62   H32   S    
C59   H26   S    
C58   H23   S    
C53   C54   S    
C39   H4    S    
C26   C27   A    
C29   C30   A    
C14   C21   A    
C28   C29   A    
Cr5   O8    S    
Cr2   O26   S    
C44   O7    A    
C57   H21   S    
C30   C31   A    
C56   H18   S    
Cr3   O23   S    
C15   C16   A    
C46   C52   S    
C26   H13   S    
Cr2   O21   S    
C18   C19   A    
C1    O12   A    
C19   H11   S    
C19   C20   A    
C60   H28   S    
C8    C9    S    
Cr1   O25   S    
C61   C62   S    
C34   O25   A    
C45   O3    A    
Cr5   O19   S    
C60   H29   S    
C50   O13   A    
C46   O10   A    
Cr6   O18   S    
C25   C32   A    
C28   H14   S    
C48   O15   A    
C13   C14   A    
C31   H2    S    
C49   O16   A    
C27   H15   S    
C37   H3    S    
C52   C54   T    
C21   C45   S    
Cr6   O17   S    
C51   O24   A    
C3    C44   S    
C34   O26   A    
C1    C10   S    
C47   O11   A    
C14   C20   A    
Cr5   O9    S    
C4    C6    T    
C57   H20   S    
C57   H22   S    
C39   C40   A    
Cr6   O11   S    
C33   C50   S    
C40   H6    S    
Cr2   O2    S    
C62   H33   S    
Cr5   O15   S    
C7    C47   S    
C37   C43   A    
C35   C39   A    
C32   C51   S    
C37   C38   A    
C11   C49   S    
C11   C16   A    
C38   H5    S    
C1    O20   A    
Cr3   O22   S    
C17   C18   A    
C36   C43   A    
C55   H17   S    
Cr5   O16   S    
C24   C25   A    
C12   O22   A    
C46   O9    A    
Cr1   O1    S    
C40   C41   A    
C22   C27   A    
C61   H30   S    
C22   C24   A    
C59   C60   S    
C49   O17   A    
C62   H34   S    
C60   H27   S    
C41   O29   S    
O28   C58   S    
C7    C9    T    
C29   O28   S    
Cr4   O6    S    
C17   H8    S    
Cr3   O3    S    
C12   O21   A    
C16   H9    S    
C24   C28   A    
C4    C5    S    
C3    C5    T    
C2    C53   T    
Cr4   O13   S    
C58   H24   S    
Cr6   O10   S    
C50   O18   A    
C18   H10   S    
Cr2   O5    S    
C13   C17   A    
C48   O14   A    
Cr4   O7    S    
Cr4   O19   S    
C59   H25   S    
Cr1   O5    S    
C11   C13   A    
C42   H7    S    
C56   H19   S    
C6    C23   S    
C33   C35   A    
C55   C56   S    
C47   O6    A    
C15   O27   S    
Cr1   O12   S    
O27   C55   S    
Cr4   O14   S    
C51   O4    A    
C58   C59   S    
C15   C21   A    
C23   O23   A    
C8    C10   T    
C30   H1    S    
Cr1   O24   S    
C55   H16   S    
C61   H31   S    
C20   H12   S    
C33   C38   A    
C45   O2    A    
C34   C43   S    
O29   C61   S    
C56   C57   S    
Cr6   O19   S    
