data_mof_unit_67115.cif
_audit_creation_date              2013-03-05T15:58:40-0500
_audit_creation_method            fapswitch 2.2
_symmetry_space_group_name_H-M    P1
_symmetry_Int_Tables_number       1
_space_group_crystal_system       triclinic
_cell_length_a                    8.34672
_cell_length_b                    12.754542
_cell_length_c                    14.938837
_cell_angle_alpha                 96.717227
_cell_angle_beta                  97.98971
_cell_angle_gamma                 98.339462
_cell_volume                      1542.94050309

loop_
_atom_site_label
_atom_site_type_symbol
_atom_site_description
_atom_site_fract_x
_atom_site_fract_y
_atom_site_fract_z
_atom_type_partial_charge
P1    P     P_3+3 0.998770 0.403620 0.291990 0.502274
O1    O     O_2   0.827930 0.435360 0.277760 -0.350911
O2    O     O_3   0.100310 0.439010 0.391180 -0.374535
O3    O     O_3   0.625610 0.634200 0.333270 -0.331310
O4    O     O_2   0.697229 0.559417 0.176015 -0.316724
O5    O     O_3   0.993675 0.265977 0.269032 -0.639355
O6    O     O_3   0.645713 0.755648 0.187257 -0.429429
H1    H     H_    0.490788 0.866913 0.184715 0.132925
C1    C     C_3   0.573504 0.843198 0.056477 -0.802495
H2    H     H_    0.482194 0.889306 0.025879 0.213388
H3    H     H_    0.693930 0.896200 0.076412 0.297684
P2    P     P_3+3 0.687370 0.751000 0.571300 0.499788
P3    P     P_3+3 0.107350 0.829712 0.387373 0.516161
O7    O     O_2   0.857120 0.766320 0.543890 -0.388045
O8    O     O_3   0.056570 0.691100 0.379020 -0.350908
O9    O     O_2   0.992833 0.879620 0.446354 -0.339176
O10   O     O_3   0.736988 0.780198 0.690100 -0.548828
O11   O     O_3   0.043699 0.861769 0.279094 -0.448143
C2    C     C_3   0.163665 0.842808 0.225065 0.268485
H4    H     H_    0.199110 0.762369 0.229108 0.058380
H5    H     H_    0.273410 0.905162 0.248488 0.054389
C3    C     C_3   0.098004 0.849876 0.125902 -0.217371
H6    H     H_    0.035397 0.920459 0.120631 0.196686
C4    C     C_3   0.262512 0.791586 0.669842 0.933341
H7    H     H_    0.217525 0.745826 0.600723 0.069151
C5    C     C_3   0.183058 0.891414 0.676497 -0.940885
H8    H     H_    0.243518 0.947876 0.737809 0.252815
H9    H     H_    0.192607 0.931239 0.614934 0.257751
H10   H     H_    0.053015 0.869224 0.683856 0.245290
Ba1   Ba    Ba6+2 0.843760 0.550230 0.455610 1.625904
C6    C     C_3   0.849313 0.202784 0.278847 0.593880
H11   H     H_    0.765942 0.248296 0.312463 0.094023
C7    C     C_3   0.901299 0.119951 0.338200 -0.265207
H12   H     H_    0.014508 0.093216 0.320337 0.169142
H13   H     H_    0.929975 0.157067 0.410469 0.135285
C8    C     C_3   0.774493 0.689149 0.726587 0.421453
H14   H     H_    0.876455 0.659894 0.696625 0.083590
H15   H     H_    0.665686 0.625000 0.714237 0.145451
C9    C     C_3   0.826217 0.719507 0.828821 -0.961879
H16   H     H_    0.940971 0.779074 0.843486 0.274970
H17   H     H_    0.847427 0.647605 0.860492 0.241075
H18   H     H_    0.728052 0.754213 0.859142 0.266510
P4    P     P_3+3 0.190950 0.596470 0.708020 0.454209
O12   O     O_2   0.361790 0.564680 0.722290 -0.367259
O13   O     O_3   0.089410 0.561080 0.608830 -0.416449
O14   O     O_3   0.564100 0.365890 0.666740 -0.386092
O15   O     O_3   0.223066 0.734937 0.740772 -0.631090
P5    P     P_3+3 0.084484 0.170507 0.620399 0.444097
O16   O     O_3   0.601940 0.368260 0.453780 -0.370405
O17   O     O_3   0.133140 0.308990 0.620990 -0.359513
O18   O     O_2   0.183939 0.117755 0.553543 -0.384957
O19   O     O_3   0.172239 0.143599 0.726599 -0.564525
Ba2   Ba    Ba6+2 0.346080 0.449860 0.544400 1.580465
P6    P     P_3+3 0.577456 0.627952 0.214647 0.542682
C10   C     C_3   0.518247 0.799462 0.139914 0.368340
H19   H     H_    0.400194 0.745931 0.119349 -0.004139
H20   H     H_    0.586401 0.777751 0.003777 0.224668
O20   O     O_3   0.587770 0.631830 0.546230 -0.398884
C11   C     C_3   0.364984 0.216035 0.258987 0.509255
H21   H     H_    0.278234 0.254074 0.296084 0.050940
C12   C     C_3   0.271143 0.123346 0.186798 0.321406
H22   H     H_    0.180579 0.075146 0.219132 0.056706
P7    P     P_3+3 0.508583 0.231971 0.431594 0.439312
O21   O     O_2   0.332600 0.233710 0.456170 -0.377222
O22   O     O_3   0.483679 0.176276 0.316206 -0.581891
H23   H     H_    0.199050 0.855436 0.085102 0.100751
C13   C     C_3   0.083720 0.180250 0.794356 1.087708
H24   H     H_    0.989903 0.229151 0.770597 -0.128091
C14   C     C_3   0.996446 0.083425 0.829121 -0.922244
H25   H     H_    0.925336 0.110104 0.882337 0.250824
H26   H     H_    0.910608 0.031581 0.772503 0.199537
H27   H     H_    0.086912 0.035867 0.858545 0.265587
P8    P     P_3+3 0.614972 0.379638 0.785006 0.465248
C15   C     C_3   0.585152 0.175312 0.777877 0.493306
H28   H     H_    0.715196 0.192814 0.768099 -0.008541
O23   O     O_2   0.520666 0.464112 0.825043 -0.383551
O24   O     O_3   0.533813 0.263142 0.824761 -0.467222
H29   H     H_    0.506433 0.150716 0.710093 0.119387
H30   H     H_    0.644599 0.107810 0.902431 0.280283
C16   C     C_3   0.568948 0.083414 0.833891 -0.928809
H31   H     H_    0.612054 0.013746 0.799006 0.218398
H32   H     H_    0.439474 0.060948 0.843081 0.277112
C17   C     C_R   0.361404 0.562235 0.170220 0.110582
H33   H     H_    0.316215 0.544028 0.306473 0.166914
H34   H     H_    0.517410 0.607394 0.028747 0.181622
C18   C     C_R   0.108122 0.470095 0.207405 0.345622
C19   C     C_R   0.929684 0.467508 0.763189 -0.494250
C20   C     C_R   0.834141 0.425969 0.824232 0.209419
C21   C     C_R   0.898778 0.431009 0.916170 -0.251820
C22   C     C_R   0.061631 0.480500 0.950551 0.091728
C23   C     C_R   0.155949 0.529049 0.888066 -0.027730
C24   C     C_R   0.130346 0.489568 0.046098 0.115411
C25   C     C_R   0.295211 0.541291 0.075556 0.030129
C26   C     C_R   0.388548 0.575851 0.010356 -0.174513
C27   C     C_R   0.316517 0.579857 0.921732 -0.088246
C28   C     C_R   0.041267 0.450650 0.113787 -0.216790
C29   C     C_R   0.264636 0.529580 0.234722 -0.433541
C30   C     C_R   0.087742 0.523808 0.793490 0.258164
H35   H     H_    0.920043 0.404178 0.096109 0.167599
H36   H     H_    0.875284 0.463169 0.692482 0.166458
H37   H     H_    0.817129 0.398070 0.959363 0.171934
H38   H     H_    0.391414 0.622269 0.880117 0.179365
C31   C     C_R   0.761595 0.184488 0.550899 -0.472643
C32   C     C_R   0.422205 0.812400 0.470696 -0.424251
C33   C     C_R   0.381340 0.991027 0.448918 -0.152294
C34   C     C_R   0.322016 0.881928 0.438220 0.103254
C35   C     C_R   0.578867 0.850982 0.519849 0.399028
C36   C     C_R   0.639059 0.963505 0.535884 -0.039243
C37   C     C_R   0.538936 0.034063 0.498092 -0.027244
C38   C     C_R   0.604387 0.144263 0.504091 0.289712
C39   C     C_R   0.862949 0.116342 0.585094 0.172294
C40   C     C_R   0.800674 0.006992 0.580115 -0.210638
H39   H     H_    0.301923 0.040516 0.417666 0.176175
H40   H     H_    0.882373 0.956443 0.606291 0.176322
H41   H     H_    0.811934 0.267856 0.551864 0.167813
H42   H     H_    0.374414 0.727628 0.461253 0.151591
I1    I     I_    0.742189 0.132207 0.141819 -0.298469
I2    I     I_    0.727815 0.978990 0.324777 -0.264382
I3    I     I_    0.489316 0.332776 0.192726 -0.230507
O25   O     O_3   0.380307 0.057400 0.158568 -0.704476
H43   H     H_    0.337534 0.024665 0.094817 0.335701
I4    I     I_    0.135290 0.173994 0.069659 -0.383324
O26   O     O_3   0.193899 0.242790 0.866687 -0.683183
H44   H     H_    0.233088 0.310569 0.844120 0.333778
I5    I     I_    0.931019 0.710254 0.066025 -0.385450
O27   O     O_3   0.432150 0.822296 0.680704 -0.785808
H45   H     H_    0.472819 0.844109 0.746898 0.334259

loop_
_geom_bond_atom_site_label_1
_geom_bond_atom_site_label_2
_geom_bond_distance
_ccdc_geom_bond_type
C10   H19   1.096863 S    
P7    O22   1.757922 S    
O27   H45   0.992679 S    
O16   P7    1.771791 S    
C14   H27   1.110989 S    
Ba1   O13   2.828657 S    
C2    H4    1.114168 S    
P4    C30   1.892682 S    
O6    C10   1.414275 S    
C19   C20   1.393150 A    
C32   C34   1.387114 A    
O26   H44   0.992362 S    
C9    H17   1.105240 S    
P1    Ba1   3.414224 S    
C5    H8    1.106338 S    
C25   C26   1.400600 A    
P3    O11   1.744935 S    
C31   C38   1.392727 A    
H33   C29   1.081996 S    
C33   H39   1.077065 S    
C8    H14   1.105804 S    
C2    H5    1.108366 S    
C4    C5    1.518065 S    
O11   C2    1.400655 S    
C14   H25   1.107490 S    
Ba2   O21   2.892944 S    
C17   C25   1.424122 A    
C28   H35   1.077024 S    
C24   C28   1.428685 A    
C36   C37   1.425778 A    
C31   C39   1.388933 A    
P1    O1    1.531580 D    
C14   H26   1.108711 S    
C18   C29   1.393072 A    
C6    I1    2.151002 S    
C32   H42   1.082416 S    
O12   Ba2   2.856748 S    
P4    Ba2   3.414781 S    
P5    O18   1.540974 D    
C3    H23   1.106130 S    
C39   C40   1.405567 A    
C15   O24   1.402930 S    
P2    O10   1.748200 S    
C35   C36   1.430560 A    
C6    C7    1.528335 S    
C1    C10   1.524923 S    
O10   C8    1.396351 S    
C1    H2    1.109809 S    
C21   H37   1.076992 S    
C27   H38   1.076356 S    
C19   C30   1.394331 A    
O3    P6    1.751541 S    
P5    O17   1.752724 S    
O5    C6    1.384949 S    
O13   Ba2   2.943428 S    
C7    I2    2.109309 S    
C15   C16   1.518984 S    
C12   O25   1.400596 S    
C4    O27   1.394624 S    
C26   C27   1.385766 A    
O7    Ba1   2.892673 S    
H1    C10   1.098050 S    
C40   H40   1.070498 S    
P6    C17   1.869143 S    
C9    H18   1.110826 S    
Ba1   Ba2   4.586970 S    
C11   C12   1.540268 S    
O17   Ba2   2.795753 S    
C15   H28   1.109400 S    
C13   H24   1.115519 S    
O4    P6    1.546752 D    
C2    C3    1.524089 S    
C4    H7    1.111515 S    
C16   H32   1.108800 S    
C9    H16   1.110974 S    
C16   H31   1.107766 S    
C3    I5    2.115382 S    
H30   C16   1.110253 S    
C12   I4    2.165794 S    
P1    O2    1.581510 S    
O2    Ba1   2.942586 S    
C31   H41   1.082833 S    
P4    O12   1.531869 D    
P8    C20   1.829340 S    
P4    O13   1.581511 S    
H34   C26   1.077347 S    
C22   C24   1.447153 A    
C6    H11   1.104314 S    
P5    O19   1.746013 S    
C7    H12   1.105728 S    
C1    H3    1.108428 S    
O19   C13   1.409400 S    
C18   C28   1.410876 A    
Ba1   O16   2.841200 S    
P2    O7    1.520863 D    
P3    O8    1.742739 S    
C17   C29   1.402497 A    
P8    O23   1.537637 D    
O25   H43   0.988937 S    
O8    Ba1   2.795104 S    
C19   H36   1.081984 S    
P1    C18   1.869598 S    
C33   C37   1.413805 A    
C11   I3    2.110915 S    
P2    Ba1   3.436513 S    
C4    O15   1.400109 S    
C8    C9    1.516144 S    
P3    C34   1.840678 S    
C13   O26   1.399601 S    
P2    C35   1.846067 S    
Ba2   O20   2.840558 S    
C33   C34   1.390369 A    
C5    H9    1.108185 S    
O1    Ba1   2.856329 S    
P7    C38   1.834661 S    
C8    H15   1.109428 S    
P2    O20   1.598560 S    
C37   C38   1.419950 A    
C11   O22   1.407490 S    
O2    Ba2   2.829265 S    
C22   C23   1.439660 A    
O16   Ba2   2.931798 S    
Ba1   O20   2.932714 S    
O14   Ba2   2.810237 S    
C24   C25   1.422279 A    
C7    H13   1.105759 S    
C1    H20   1.106376 S    
O14   P8    1.740647 S    
C23   C30   1.438064 A    
C12   H22   1.104010 S    
C23   C27   1.397679 A    
P7    O21   1.565365 D    
C36   C40   1.418934 A    
C11   H21   1.103334 S    
P5    C39   1.856794 S    
C20   C21   1.394572 A    
C5    H10   1.105298 S    
C15   H29   1.111964 S    
P3    O9    1.540968 D    
P1    O5    1.742096 S    
P8    O24   1.745188 S    
C3    H6    1.109657 S    
O6    P6    1.759612 S    
C13   C14   1.523065 S    
C21   C22   1.411064 A    
P4    O15   1.747678 S    
C32   C35   1.397531 A    
O3    Ba1   2.810900 S    
