data_mof_unit_66481.cif
_audit_creation_date              2012-12-10T19:50:18-0500
_audit_creation_method            fapswitch 2.2
_symmetry_space_group_name_H-M    P1
_symmetry_Int_Tables_number       1
_space_group_crystal_system       triclinic
_cell_length_a                    36.756871
_cell_length_b                    18.275435
_cell_length_c                    18.275975
_cell_angle_alpha                 89.999917
_cell_angle_beta                  119.733416
_cell_angle_gamma                 90.000187
_cell_volume                      10660.5060966

loop_
_atom_site_label
_atom_site_type_symbol
_atom_type_description
_atom_site_fract_x
_atom_site_fract_y
_atom_site_fract_z
_atom_type_partial_charge
C1    C     C_R   0.499985 0.000000 0.358766 0.935265
C2    C     C_1   0.336891 0.000491 0.334483 -0.120026
C3    C     C_1   0.163109 0.500495 0.665516 -0.120031
C4    C     C_1   0.836892 0.500480 0.334476 -0.120043
C5    C     C_1   0.625633 0.000107 0.626635 -0.151300
C6    C     C_1   0.374367 0.000104 0.373362 -0.151302
C7    C     C_1   0.125633 0.500105 0.626640 -0.151318
C8    C     C_1   0.874367 0.500102 0.373359 -0.151309
C9    C     C_1   0.499943 0.000000 0.282309 -0.177342
C10   C     C_1   0.500057 0.000000 0.717691 -0.177320
C11   C     C_1   0.999943 0.500000 0.282309 -0.177362
C12   C     C_R   0.500014 0.000000 0.641234 0.935287
C13   C     C_1   0.000057 0.500000 0.717691 -0.177336
C14   C     C_1   0.499930 0.000000 0.217556 -0.174976
C15   C     C_1   0.500070 0.000000 0.782444 -0.174959
C16   C     C_1   0.999930 0.500001 0.217556 -0.174988
C17   C     C_1   0.000070 0.500000 0.782444 -0.174968
C18   C     C_R   1.000000 0.141041 1.000000 0.932966
C19   C     C_R   0.000000 0.858959 0.000000 0.930891
C20   C     C_R   0.500000 0.641041 1.000000 0.932949
C21   C     C_R   0.500000 0.358959 0.000000 0.930898
C22   C     C_R   0.918797 0.999979 0.918836 0.907838
C23   C     C_R   0.999985 0.500000 0.358766 0.935249
C24   C     C_R   0.081203 0.999979 0.081163 0.907825
C25   C     C_R   0.418797 0.499980 0.918836 0.907833
C26   C     C_R   0.581203 0.499979 0.081163 0.907820
C27   C     C_R   0.500000 0.858714 1.000000 0.929472
C28   C     C_R   0.500000 0.141285 1.000000 0.928227
C29   C     C_R   1.000000 0.358714 1.000000 0.929485
C30   C     C_R   1.000000 0.641285 1.000000 0.928208
C31   C     C_R   0.499974 0.000000 0.141185 0.928931
C32   C     C_R   0.500026 0.000000 0.858815 0.928926
C33   C     C_R   0.999974 0.500000 0.141185 0.928931
C34   C     C_R   0.000014 0.500000 0.641234 0.935273
C35   C     C_R   0.000025 0.500000 0.858815 0.928923
C36   C     C_1   1.000000 0.217495 1.000000 -0.182926
C37   C     C_1   0.000000 0.782505 0.000000 -0.186112
C38   C     C_1   0.500000 0.717495 1.000000 -0.182956
C39   C     C_1   0.500000 0.282505 0.000000 -0.186091
C40   C     C_R   0.581199 0.000008 0.581151 0.911621
C41   C     C_R   0.418801 0.000008 0.418849 0.911601
C42   C     C_R   0.081199 0.500008 0.581153 0.911610
C43   C     C_R   0.918801 0.500007 0.418849 0.911580
C44   C     C_1   0.500000 0.782259 1.000000 -0.177726
C45   C     C_1   0.836859 0.000326 0.838044 -0.095227
C46   C     C_1   0.500000 0.217741 0.000000 -0.181091
C47   C     C_1   1.000000 0.282259 1.000000 -0.177687
C48   C     C_1   0.000000 0.717741 0.000000 -0.181112
C49   C     C_3   0.725709 0.060559 0.676790 -0.395118
C50   C     C_3   0.274289 0.926614 0.298243 -0.409179
C51   C     C_3   0.274290 0.060949 0.322726 -0.395133
C52   C     C_3   0.725712 0.926422 0.702333 -0.409167
C53   C     C_3   0.225708 0.560691 0.676956 -0.394968
C54   C     C_3   0.774291 0.426761 0.298692 -0.409269
C55   C     C_3   0.774291 0.561242 0.322356 -0.394997
C56   C     C_1   0.163141 0.000314 0.161952 -0.095230
C57   C     C_3   0.225712 0.426485 0.702127 -0.409257
C58   C     C_3   0.774119 0.925889 0.750768 -0.404796
C59   C     C_3   0.225842 0.062093 0.273271 -0.368942
C60   C     C_3   0.225882 0.926071 0.249795 -0.404789
C61   C     C_3   0.774158 0.061727 0.726253 -0.368879
C62   C     C_3   0.274120 0.425957 0.750553 -0.404811
C63   C     C_3   0.725842 0.562389 0.272882 -0.368901
C64   C     C_3   0.725883 0.426222 0.250264 -0.404800
C65   C     C_3   0.274157 0.561865 0.726428 -0.368826
C66   C     C_1   0.874348 0.000119 0.874688 -0.167533
C67   C     C_1   0.336859 0.500323 0.838043 -0.095237
C68   C     C_1   0.125652 0.000114 0.125311 -0.167540
C69   C     C_1   0.374348 0.500119 0.874687 -0.167529
C70   C     C_1   0.625652 0.500110 0.125312 -0.167535
C71   C     C_3   0.708935 0.001270 0.713586 0.204703
C72   C     C_3   0.291064 0.001241 0.286401 0.204672
C73   C     C_3   0.208935 0.501255 0.713590 0.204774
C74   C     C_3   0.791065 0.501213 0.286393 0.204729
C75   C     C_3   0.791166 0.000697 0.793962 0.290815
C76   C     C_3   0.208834 0.000676 0.206030 0.290807
C77   C     C_3   0.291166 0.500690 0.793962 0.290828
C78   C     C_1   0.663141 0.500304 0.161953 -0.095238
C79   C     C_3   0.708834 0.500657 0.206029 0.290824
C80   C     C_3   0.775360 0.014705 0.857135 -0.404096
C81   C     C_3   0.224639 0.014084 0.142752 -0.404106
C82   C     C_3   0.275361 0.514468 0.857176 -0.404031
C83   C     C_3   0.724638 0.513565 0.142667 -0.404038
C84   C     C_3   0.725989 0.017602 0.810257 -0.013230
C85   C     C_3   0.274011 0.016945 0.189603 -0.013309
C86   C     C_3   0.225990 0.517366 0.810306 -0.013174
C87   C     C_3   0.774009 0.516429 0.189501 -0.013289
C88   C     C_2   0.709835 0.092428 0.819631 0.475522
C89   C     C_1   0.663109 0.000502 0.665510 -0.120012
C90   C     C_2   0.289416 0.958331 0.151788 0.349368
C91   C     C_2   0.290173 0.091558 0.179635 0.475585
C92   C     C_2   0.710577 0.959420 0.848531 0.349048
C93   C     C_2   0.209839 0.592127 0.819881 0.475323
C94   C     C_2   0.789418 0.457502 0.152041 0.349293
C95   C     C_2   0.790163 0.590891 0.179082 0.475445
C96   C     C_2   0.210579 0.459041 0.848426 0.348878
H1    H     H_    0.786259 0.053992 0.681721 0.170237
H2    H     H_    0.285642 0.917001 0.366380 0.187296
H3    H     H_    0.285286 0.049679 0.390411 0.178389
H4    H     H_    0.714353 0.916355 0.634271 0.187285
H5    H     H_    0.214723 0.549116 0.609337 0.178312
H6    H     H_    0.785649 0.417490 0.366889 0.187292
H7    H     H_    0.785282 0.550311 0.390105 0.178350
H8    H     H_    0.214350 0.416574 0.634038 0.187295
H9    H     H_    0.713595 0.880469 0.723956 0.167127
H10   H     H_    0.286598 0.115884 0.320044 0.181354
H11   H     H_    0.286412 0.880397 0.276997 0.167080
H12   H     H_    0.214225 0.914440 0.294391 0.181284
H13   H     H_    0.713395 0.115608 0.679021 0.181411
H14   H     H_    0.213598 0.380438 0.723628 0.167119
H15   H     H_    0.786605 0.616084 0.319355 0.181448
H16   H     H_    0.786409 0.380342 0.277719 0.167057
H17   H     H_    0.213390 0.615699 0.679328 0.181536
H18   H     H_    0.785559 0.881453 0.798737 0.174525
H19   H     H_    0.214768 0.116336 0.242378 0.191835
H20   H     H_    0.214448 0.881359 0.202164 0.174475
H21   H     H_    0.785224 0.116121 0.756732 0.191922
H22   H     H_    0.285563 0.381414 0.798392 0.174527
H23   H     H_    0.213748 0.054781 0.317870 0.170269
H24   H     H_    0.714776 0.616506 0.241647 0.191931
H25   H     H_    0.714445 0.381280 0.202919 0.174456
H26   H     H_    0.285219 0.616204 0.757065 0.192005
H27   H     H_    0.790156 0.065520 0.892939 0.222800
H28   H     H_    0.212308 0.969682 0.094626 0.146930
H29   H     H_    0.209848 0.064748 0.106580 0.222803
H30   H     H_    0.787684 0.970566 0.905585 0.146878
H31   H     H_    0.290159 0.565217 0.893140 0.222765
H32   H     H_    0.712312 0.468928 0.094834 0.146911
H33   H     H_    0.709841 0.564082 0.106156 0.222783
H34   H     H_    0.785770 0.913837 0.706252 0.181264
H35   H     H_    0.287682 0.470218 0.905490 0.146865
H36   H     H_    0.676307 0.101011 0.791494 0.092517
H37   H     H_    0.277982 0.902640 0.145345 0.085018
H38   H     H_    0.323704 0.100111 0.207779 0.092379
H39   H     H_    0.721999 0.903684 0.855400 0.085094
H40   H     H_    0.176316 0.600654 0.791910 0.092663
H41   H     H_    0.777998 0.401834 0.145959 0.085056
H42   H     H_    0.823689 0.599389 0.207064 0.092464
H43   H     H_    0.221986 0.403309 0.855109 0.085163
H44   H     H_    0.286260 0.554298 0.681878 0.170199
H45   H     H_    0.714232 0.414951 0.294942 0.181298
H46   H     H_    0.713744 0.555442 0.317520 0.170226
H47   H     H_    0.285767 0.414071 0.705996 0.181282
H48   H     H_    0.714721 0.048833 0.609201 0.178361
O1    O     O_R   0.500010 0.060620 0.392670 -0.619092
O2    O     O_R   0.438570 0.939380 0.438570 -0.614441
O3    O     O_R   0.438570 0.060620 0.438570 -0.620528
O4    O     O_R   0.561430 0.939380 0.561430 -0.614514
O5    O     O_R   0.061430 0.560620 0.561430 -0.620485
O6    O     O_R   0.938570 0.439380 0.438570 -0.614393
O7    O     O_R   0.938570 0.560620 0.438570 -0.620553
O8    O     O_R   0.061430 0.439380 0.561430 -0.614494
O9    O     O_R   1.000000 0.107140 0.939380 -0.617341
O10   O     O_R   1.000000 0.892860 0.060620 -0.618211
O11   O     O_R   1.000000 0.107140 0.060620 -0.617321
O12   O     O_R   0.499990 0.939380 0.607330 -0.617141
O13   O     O_R   1.000000 0.892860 0.939380 -0.618194
O14   O     O_R   0.500000 0.607140 0.939380 -0.617342
O15   O     O_R   0.500000 0.392860 0.060620 -0.618201
O16   O     O_R   0.500000 0.607140 0.060620 -0.617334
O17   O     O_R   0.500000 0.392860 0.939380 -0.618186
O18   O     O_R   0.938580 1.000000 0.877970 -0.619277
O19   O     O_R   0.061420 0.000000 0.122030 -0.619277
O20   O     O_R   0.438580 0.500000 0.877970 -0.619275
O21   O     O_R   0.561420 0.500000 0.122030 -0.619281
O22   O     O_R   0.938570 0.000000 0.999140 -0.614008
O23   O     O_R   0.499990 0.060620 0.607330 -0.619049
O24   O     O_R   0.061430 0.000000 0.000860 -0.613996
O25   O     O_R   0.438570 0.500000 0.999140 -0.614005
O26   O     O_R   0.561430 0.500000 0.000860 -0.613985
O27   O     O_R   0.534690 0.892630 0.034650 -0.617546
O28   O     O_R   0.465310 0.107370 0.965350 -0.619318
O29   O     O_R   0.465310 0.892630 0.965350 -0.617460
O30   O     O_R   0.534690 0.107370 0.034650 -0.619299
O31   O     O_R   0.034690 0.392630 0.034650 -0.617524
O32   O     O_R   0.965310 0.607370 0.965350 -0.619336
O33   O     O_R   0.965310 0.392630 0.965350 -0.617438
O34   O     O_R   0.500010 0.939380 0.392670 -0.617092
O35   O     O_R   0.034690 0.607370 0.034650 -0.619306
O36   O     O_R   0.534680 0.000000 0.141990 -0.624817
O37   O     O_R   0.465320 0.000000 0.858010 -0.624801
O38   O     O_R   0.034680 0.500000 0.141990 -0.624804
O39   O     O_R   0.965320 0.500000 0.858010 -0.624795
O40   O     O_R   0.465320 0.000000 0.072630 -0.608742
O41   O     O_R   0.534680 0.000000 0.927370 -0.608744
O42   O     O_R   0.965320 0.500000 0.072630 -0.608763
O43   O     O_R   0.034680 0.500000 0.927370 -0.608753
O44   O     O_2   0.733222 0.143365 0.857212 -0.582498
O45   O     O_R   0.000010 0.560620 0.392670 -0.619126
O46   O     O_2   0.314208 0.972211 0.127458 -0.559621
O47   O     O_2   0.266789 0.142355 0.141556 -0.582599
O48   O     O_2   0.685793 0.973703 0.872767 -0.559781
O49   O     O_2   0.233224 0.643078 0.857417 -0.582656
O50   O     O_2   0.814196 0.471100 0.127596 -0.559591
O51   O     O_2   0.766775 0.641636 0.140835 -0.582713
O52   O     O_2   0.185815 0.473201 0.872748 -0.559786
O53   O     O_R   0.999990 0.439380 0.607330 -0.617126
O54   O     O_R   0.999990 0.560620 0.607330 -0.619068
O55   O     O_R   0.000010 0.439380 0.392670 -0.617053
O56   O     O_R   0.561430 0.060620 0.561430 -0.620477
Zn1   Zn    Zn3+2 0.500000 0.080950 0.500000 0.978785
Zn2   Zn    Zn3+2 0.453690 0.000000 0.953700 0.992739
Zn3   Zn    Zn3+2 0.046310 0.500000 0.046300 0.992668
Zn4   Zn    Zn3+2 0.953690 0.500000 0.953700 0.992741
Zn5   Zn    Zn3+2 0.500000 0.919050 0.500000 0.985942
Zn6   Zn    Zn3+2 0.000000 0.580950 0.500000 0.978714
Zn7   Zn    Zn3+2 1.000000 0.419050 0.500000 0.986009
Zn8   Zn    Zn3+2 0.000010 1.000000 0.919080 0.979256
Zn9   Zn    Zn3+2 0.999990 0.000000 0.080920 0.979248
Zn10  Zn    Zn3+2 0.500010 0.500000 0.919080 0.979279
Zn11  Zn    Zn3+2 0.499990 0.500000 0.080920 0.979251
Zn12  Zn    Zn3+2 0.546310 0.000000 0.046300 0.992634

loop_
_geom_bond_atom_site_label_1
_geom_bond_atom_site_label_2
_ccdc_geom_bond_type
O14   Zn10  S    
C83   C87   S    
C87   C94   S    
C26   O21   A    
C56   C76   S    
O43   Zn3   S    
C31   O40   A    
C70   C78   T    
O32   Zn4   S    
C62   C77   S    
C1    O1    A    
O37   Zn2   S    
C67   C77   S    
C8    C43   S    
C83   H32   S    
C80   C84   S    
C93   H40   S    
C27   O29   A    
C96   H43   S    
C72   C85   S    
C85   C91   S    
C57   C62   S    
C63   C79   S    
C61   C75   S    
C91   H38   S    
C28   C46   S    
C52   C71   S    
C80   H30   S    
C32   O41   A    
C29   C47   S    
O30   Zn12  S    
O39   Zn4   S    
C30   C48   S    
C24   O24   A    
C12   O12   A    
O6    Zn7   S    
C83   H33   S    
O10   Zn9   S    
C3    C7    T    
C10   C15   T    
O22   Zn9   S    
C22   O18   A    
O54   Zn6   S    
C64   H45   S    
C25   O20   A    
C35   O39   A    
C64   H25   S    
O25   Zn11  S    
C49   H48   S    
C55   H7    S    
O15   Zn11  S    
C36   C47   T    
C1    O34   A    
C7    C42   S    
C57   C73   S    
O36   Zn12  S    
C42   O5    A    
C50   C72   S    
C22   C66   S    
C23   O55   A    
C63   H24   S    
O8    Zn7   S    
C54   C74   S    
C65   H44   S    
C27   C44   S    
C28   O28   A    
C41   O2    A    
C53   H5    S    
O56   Zn1   S    
C6    C41   S    
C55   C63   S    
C59   H23   S    
C30   O35   A    
O24   Zn8   S    
C62   H47   S    
C33   O42   A    
O41   Zn12  S    
C74   C87   S    
C53   C65   S    
C75   C80   S    
C14   C31   S    
C4    C74   S    
C60   H12   S    
C4    C8    T    
C55   H15   S    
C21   O17   A    
C20   O14   A    
C21   O15   A    
C2    C6    T    
O13   Zn8   S    
C81   H29   S    
C29   O31   A    
O2    Zn5   S    
C2    C72   S    
C30   O32   A    
C53   H17   S    
C58   C75   S    
C51   C59   S    
C51   H3    S    
C73   C86   S    
C53   C73   S    
C50   H2    S    
C65   C77   S    
C40   O4    A    
C81   H28   S    
O42   Zn4   S    
O38   Zn3   S    
C19   O13   A    
C32   O37   A    
O11   Zn9   S    
C1    C9    S    
O20   Zn10  S    
C90   H37   S    
C34   O53   A    
C78   C79   S    
O21   Zn11  S    
C40   O56   A    
C82   C86   S    
C52   C58   S    
C91   O47   D    
C60   C76   S    
C87   C95   S    
O29   Zn2   S    
C67   C69   T    
O40   Zn2   S    
C76   C81   S    
C96   O52   D    
C9    C14   T    
C38   C44   T    
C86   C93   S    
C16   C33   S    
O9    Zn8   S    
C20   C38   S    
C11   C16   T    
C34   O54   A    
C57   H14   S    
C21   C39   S    
O3    Zn1   S    
O45   Zn6   S    
O55   Zn7   S    
O33   Zn4   S    
C54   H16   S    
O1    Zn1   S    
C65   H26   S    
C86   C96   S    
C12   O23   A    
O28   Zn2   S    
O12   Zn5   S    
C43   O6    A    
C18   O9    A    
C10   C12   S    
C71   C89   S    
C39   C46   T    
O4    Zn5   S    
C59   H19   S    
O35   Zn3   S    
C52   H9    S    
C20   O16   A    
C50   H11   S    
C26   C70   S    
C64   C79   S    
C60   H20   S    
C92   H39   S    
C19   C37   S    
C51   C72   S    
C88   H36   S    
C27   O27   A    
C23   O45   A    
C43   O7    A    
C49   H13   S    
C71   C84   S    
C90   O46   D    
C25   O25   A    
C94   H41   S    
C57   H8    S    
C95   H42   S    
C95   O51   D    
C82   H31   S    
C37   C48   T    
O26   Zn10  S    
O18   Zn8   S    
C94   O50   D    
C41   O3    A    
C54   H6    S    
C61   H1    S    
C84   C88   S    
C15   C32   S    
O5    Zn6   S    
C85   C90   S    
C33   O38   A    
C17   C35   S    
O16   Zn11  S    
C52   H4    S    
C24   O19   A    
C13   C17   T    
C31   O36   A    
C45   C75   S    
C50   C60   S    
O31   Zn3   S    
C13   C34   S    
C55   C74   S    
C61   H21   S    
C56   C68   T    
C79   C83   S    
O27   Zn12  S    
C49   C61   S    
C28   O30   A    
O17   Zn10  S    
C54   C64   S    
C77   C82   S    
C58   H34   S    
C51   H10   S    
C11   C23   S    
O19   Zn9   S    
C63   H46   S    
O23   Zn1   S    
O7    Zn6   S    
C3    C73   S    
C5    C89   T    
O34   Zn5   S    
C62   H22   S    
O53   Zn7   S    
C24   C68   S    
C22   O22   A    
C88   O44   D    
C25   C69   S    
C26   O26   A    
C35   O43   A    
C49   C71   S    
C5    C40   S    
C93   O49   D    
C45   C66   T    
C58   H18   S    
C19   O10   A    
C29   O33   A    
C84   C92   S    
C82   H35   S    
C18   C36   S    
C59   C76   S    
C81   C85   S    
C18   O11   A    
C92   O48   D    
C42   O8    A    
C80   H27   S    
