data_mof_unit_45299.cif
_audit_creation_date              2012-12-10T18:46:12-0500
_audit_creation_method            fapswitch 2.2
_symmetry_space_group_name_H-M    P1
_symmetry_Int_Tables_number       1
_space_group_crystal_system       triclinic
_cell_length_a                    9.866954
_cell_length_b                    10.679836
_cell_length_c                    13.054716
_cell_angle_alpha                 90.189453
_cell_angle_beta                  71.569781
_cell_angle_gamma                 90.296362
_cell_volume                      1305.09412747

loop_
_atom_site_label
_atom_site_type_symbol
_atom_type_description
_atom_site_fract_x
_atom_site_fract_y
_atom_site_fract_z
_atom_type_partial_charge
C1    C     C_R   0.498820 0.740016 0.503657 1.024143
C2    C     C_R   0.445889 0.414505 0.971380 0.033199
C3    C     C_R   0.489646 0.400219 0.858441 -0.096174
C4    C     C_R   0.552276 0.438908 0.020953 0.094586
C5    C     C_R   0.698920 0.432703 0.959063 -0.019162
C6    C     C_R   0.737674 0.395767 0.851786 -0.264942
C7    C     C_R   0.634633 0.374736 0.802790 0.641469
C8    C     C_R   0.517490 0.471013 0.129561 -0.287573
C9    C     C_R   0.768317 0.485346 0.115715 0.653901
C10   C     C_R   0.386028 0.408387 0.805108 -0.220906
C11   C     C_R   0.553566 0.940213 0.577360 0.400235
C12   C     C_R   0.425978 0.463690 0.695626 0.970296
C13   C     C_R   0.556589 0.068853 0.571214 -0.167535
C14   C     C_R   0.498602 0.128578 0.500544 -0.162070
C15   C     C_R   0.437239 0.063091 0.434223 -0.215963
C16   C     C_R   0.438083 0.934602 0.436015 0.615794
C17   C     C_R   0.497261 0.873001 0.506535 -0.330520
C18   C     C_R   0.960935 0.438847 0.421048 0.737820
C19   C     C_R   0.104520 0.438683 0.421266 -0.147721
C20   C     C_R   0.039040 0.560748 0.579052 0.005923
C21   C     C_R   0.895103 0.558794 0.580035 -0.100576
C22   C     C_R   0.500346 0.260349 0.498146 0.925075
C23   C     C_R   0.578059 0.500742 0.295613 0.912965
C24   C     C_R   0.805298 0.458708 0.006109 -0.195304
C25   C     C_R   0.623638 0.488742 0.178317 -0.186968
C26   C     C_R   0.245995 0.368923 0.861373 0.410365
C27   C     C_R   0.202585 0.367399 0.974261 -0.143752
C28   C     C_R   0.298763 0.399040 0.029027 -0.169645
H1    H     H_    0.600866 0.123167 0.623274 0.247197
H2    H     H_    0.392447 0.111421 0.379540 0.184030
H3    H     H_    0.184830 0.389234 0.358420 0.150202
H4    H     H_    0.066823 0.609093 0.642631 0.169908
H5    H     H_    0.814044 0.603206 0.645582 0.197279
H6    H     H_    0.847707 0.381778 0.805582 0.237099
H7    H     H_    0.917104 0.456348 0.958281 0.189740
H8    H     H_    0.407373 0.482035 0.177809 0.188609
H9    H     H_    0.257728 0.398026 0.116018 0.174852
H10   H     H_    0.095453 0.338484 0.020381 0.224572
N1    N     N_R   0.142790 0.500030 0.500030 -0.100140
N2    N     N_R   0.857180 0.499940 0.500010 -0.126285
O1    O     O_R   0.385370 0.683250 0.500010 -0.571948
O2    O     O_R   0.614700 0.683220 0.500010 -0.579383
O3    O     O_R   0.328400 0.499990 0.653620 -0.576516
O4    O     O_R   0.557730 0.499960 0.653620 -0.583638
O5    O     O_R   0.385300 0.316780 0.499990 -0.598793
O6    O     O_R   0.614630 0.316750 0.499990 -0.566539
O7    O     O_R   0.442270 0.500040 0.346380 -0.641900
O8    O     O_R   0.671600 0.500010 0.346380 -0.523107
Zn1   Zn    Zn3+2 0.346870 0.500020 0.500000 1.052651
Zn2   Zn    Zn3+2 0.653130 0.499980 0.500000 1.112542
F1    F     F_    0.873697 0.506257 0.159990 -0.621437
F2    F     F_    0.384700 0.870425 0.367134 -0.627750
F3    F     F_    0.926105 0.376184 0.342448 -0.612878
S1    S     S_3+6 0.145724 0.282275 0.794595 0.012628
O9    O     O_2   0.097859 0.364665 0.720128 -0.338718
O10   O     O_2   0.238974 0.180697 0.729326 -0.276476
O11   O     O_3   0.002264 0.216197 0.884816 -0.567176
H11   H     H_    0.956782 0.165142 0.841126 0.407951
F4    F     F_    0.676416 0.320352 0.703664 -0.657985
S2    S     S_3+6 0.617315 0.870334 0.676003 0.052406
O12   O     O_2   0.769177 0.830762 0.622620 -0.302395
O13   O     O_2   0.613185 0.963240 0.763749 -0.254064
O14   O     O_3   0.516399 0.745765 0.731403 -0.564922
H12   H     H_    0.560578 0.711999 0.783892 0.373427

loop_
_geom_bond_atom_site_label_1
_geom_bond_atom_site_label_2
_ccdc_geom_bond_type
C2    C4    A    
C1    O2    A    
C9    C24   A    
C6    C7    A    
O6    Zn2   S    
C1    C17   S    
C9    F1    S    
O5    Zn1   S    
C4    C8    A    
C19   H3    S    
C10   C26   A    
O8    Zn2   S    
C2    C3    A    
C26   C27   A    
O3    Zn1   S    
C9    C25   A    
C7    F4    S    
O7    Zn1   S    
C3    C10   A    
C13   C14   A    
S2    O13   D    
C8    C25   A    
C11   C13   A    
C14   C22   S    
O11   H11   S    
C16   F2    S    
C21   N2    A    
C19   N1    A    
C28   H9    S    
O2    Zn2   S    
S2    O14   S    
N2    Zn2   S    
C10   C12   S    
C1    O1    A    
C22   O6    A    
C12   O3    A    
C3    C7    A    
C23   C25   S    
C8    H8    S    
C5    C6    A    
S1    O10   D    
C24   H7    S    
C23   O7    A    
C15   C16   A    
C6    H6    S    
C27   H10   S    
O4    Zn2   S    
O14   H12   S    
C26   S1    S    
C5    C24   A    
C4    C5    A    
C22   O5    A    
C21   H5    S    
C20   C21   A    
C15   H2    S    
C12   O4    A    
C18   C19   A    
C20   H4    S    
O1    Zn1   S    
C27   C28   A    
C20   N1    A    
C18   N2    A    
C14   C15   A    
C16   C17   A    
C2    C28   A    
C23   O8    A    
C18   F3    S    
N1    Zn1   S    
S1    O9    D    
C11   C17   A    
C11   S2    S    
C13   H1    S    
S2    O12   D    
S1    O11   S    
