data_mof_unit_19319.cif
_audit_creation_date              2013-03-05T16:14:48-0500
_audit_creation_method            fapswitch 2.2
_symmetry_space_group_name_H-M    P1
_symmetry_Int_Tables_number       1
_space_group_crystal_system       triclinic
_cell_length_a                    9.402221
_cell_length_b                    10.702638
_cell_length_c                    17.126285
_cell_angle_alpha                 90.098245
_cell_angle_beta                  85.254283
_cell_angle_gamma                 89.602288
_cell_volume                      1717.4392961

loop_
_atom_site_label
_atom_site_type_symbol
_atom_site_description
_atom_site_fract_x
_atom_site_fract_y
_atom_site_fract_z
_atom_type_partial_charge
O1    O     O_R   0.379130 0.683150 0.499960 -0.567445
O2    O     O_R   0.620870 0.316850 0.500040 -0.545631
O3    O     O_R   0.620910 0.683140 0.500000 -0.561056
O4    O     O_R   0.379090 0.316860 0.500000 -0.556215
C1    C     C_R   0.499895 0.739668 0.496515 0.945248
C2    C     C_R   0.500591 0.260060 0.502665 0.991494
O5    O     O_R   0.365090 0.500030 0.613580 -0.597511
O6    O     O_R   0.634910 0.499970 0.386420 -0.592009
O7    O     O_R   0.606870 0.500020 0.613610 -0.560421
O8    O     O_R   0.393130 0.499980 0.386390 -0.555635
C3    C     C_R   0.480114 0.501427 0.650140 0.879600
C4    C     C_R   0.519734 0.500101 0.349579 0.872515
Cu1   Cu    Cu3+1 0.356850 0.500010 0.499980 1.045978
Cu2   Cu    Cu3+1 0.643150 0.499990 0.500020 1.053874
C5    C     C_R   0.465562 0.517200 0.734992 -0.123605
C6    C     C_R   0.534706 0.512509 0.264083 -0.125342
C7    C     C_R   0.545965 0.444776 0.784195 0.290724
C8    C     C_R   0.433067 0.464195 0.215780 0.321580
C9    C     C_R   0.542136 0.475600 0.863669 -0.181573
C10   C     C_R   0.447343 0.491338 0.135675 -0.176000
C11   C     C_R   0.460212 0.577653 0.894244 0.047541
C12   C     C_R   0.559124 0.566506 0.103275 0.047077
C13   C     C_R   0.374122 0.643697 0.845616 -0.109495
C14   C     C_R   0.662445 0.608716 0.150887 -0.112881
C15   C     C_R   0.376527 0.613467 0.766560 -0.157523
C16   C     C_R   0.650253 0.582195 0.230502 -0.179517
C17   C     C_2   0.455863 0.609943 0.978281 0.278606
C18   C     C_2   0.573870 0.594256 0.018550 0.282339
H1    H     H_    0.729521 0.619751 0.266395 0.197299
H2    H     H_    0.312633 0.668392 0.729280 0.192002
H3    H     H_    0.307159 0.720253 0.868372 0.163318
H4    H     H_    0.751489 0.664091 0.126886 0.161778
H5    H     H_    0.372800 0.450543 0.098180 0.209958
H6    H     H_    0.599832 0.417249 0.902045 0.210193
C19   C     C_3   0.392689 0.964162 0.458364 0.182268
C20   C     C_3   0.610283 0.034780 0.540079 0.199588
C21   C     C_3   0.518818 0.045891 0.427294 0.162687
C22   C     C_3   0.484220 0.953112 0.571419 0.180163
C23   C     C_3   0.504077 0.124384 0.503285 -0.392792
C24   C     C_3   0.498407 0.874970 0.495288 -0.392310
C25   C     C_3   0.378196 0.041378 0.534650 0.177275
C26   C     C_3   0.624055 0.957553 0.464097 0.185372
C27   C     C_3   0.953819 0.393329 0.476704 0.035152
C28   C     C_3   0.046202 0.606750 0.523273 -0.000104
C29   C     C_3   0.044372 0.414735 0.546205 0.013955
C30   C     C_3   0.955568 0.585330 0.453805 -0.006312
H7    H     H_    0.086472 0.343408 0.585313 0.206534
H8    H     H_    0.913260 0.656617 0.414689 0.194501
H9    H     H_    0.910532 0.303686 0.456587 0.201169
H10   H     H_    0.089696 0.696602 0.542948 0.185797
N1    N     N_3   0.141720 0.500030 0.499940 -0.202298
N2    N     N_3   0.858280 0.499970 0.500060 -0.198250
C31   C     C_3   0.060924 0.478694 0.430463 -0.035387
C32   C     C_3   0.939008 0.521419 0.569562 -0.042664
H11   H     H_    0.116208 0.460906 0.371776 0.203334
H12   H     H_    0.883436 0.539640 0.628242 0.167015
N3    N     N_R   0.624767 0.336453 0.755317 0.135704
O9    O     O_R   0.740246 0.302215 0.786688 -0.309607
O10   O     O_R   0.570031 0.261599 0.706096 -0.300131
N4    N     N_R   0.318060 0.385235 0.245866 0.117526
O11   O     O_R   0.339080 0.300411 0.298056 -0.289693
O12   O     O_R   0.197614 0.386099 0.213477 -0.349457
O13   O     O_3   0.709289 0.582753 0.979959 -0.603999
C33   C     C_3   0.755042 0.700512 0.950769 0.031518
H13   H     H_    0.764927 0.767188 0.000005 0.140685
H14   H     H_    0.679535 0.740157 0.910380 0.158799
C34   C     C_3   0.900822 0.684718 0.905168 -0.320669
H15   H     H_    0.977835 0.643914 0.944084 0.241996
H16   H     H_    0.891129 0.619366 0.855373 0.245328
C35   C     C_3   0.957982 0.809375 0.873390 -0.815088
H17   H     H_    0.882721 0.851747 0.834113 0.293776
H18   H     H_    0.062318 0.794195 0.839313 0.261399
H19   H     H_    0.973345 0.874769 0.922382 0.254090
O14   O     O_3   0.322971 0.636265 0.016675 -0.612912
C36   C     C_3   0.319474 0.761175 0.043689 0.028635
H20   H     H_    0.333097 0.826884 0.993284 0.149972
H21   H     H_    0.404648 0.778716 0.083783 0.154071
C37   C     C_3   0.175075 0.786428 0.088846 -0.340361
H22   H     H_    0.088373 0.771569 0.049533 0.220317
H23   H     H_    0.159880 0.719814 0.138561 0.252827
C38   C     C_3   0.164978 0.919677 0.120755 -0.750942
H24   H     H_    0.249155 0.935971 0.161434 0.292384
H25   H     H_    0.059068 0.934626 0.153287 0.277637
H26   H     H_    0.177179 0.987977 0.071912 0.252897
N5    N     N_R   0.544378 0.095851 0.348309 0.190933
O15   O     O_R   0.474097 0.052882 0.291874 -0.262201
O16   O     O_R   0.650136 0.171687 0.332076 -0.318171
N6    N     N_R   0.467166 0.899481 0.649866 0.157361
O17   O     O_R   0.353787 0.923674 0.696249 -0.305194
O18   O     O_R   0.563766 0.823581 0.672894 -0.348738
N7    N     N_R   0.275012 0.931805 0.411772 0.201332
O19   O     O_R   0.195248 0.019999 0.386188 -0.220933
O20   O     O_R   0.258567 0.817611 0.388381 -0.338751
N8    N     N_R   0.730986 0.064415 0.585185 0.222824
O21   O     O_R   0.801378 0.974577 0.615951 -0.235537
O22   O     O_R   0.776806 0.178205 0.589568 -0.278220
N9    N     N_R   0.246288 0.088198 0.575577 0.177999
O23   O     O_R   0.123209 0.058994 0.551543 -0.244591
O24   O     O_R   0.251408 0.157690 0.637634 -0.296431
N10   N     N_R   0.755343 0.911488 0.422207 0.173247
O25   O     O_R   0.878610 0.935037 0.447970 -0.245347
O26   O     O_R   0.749601 0.849895 0.357044 -0.360241

loop_
_geom_bond_atom_site_label_1
_geom_bond_atom_site_label_2
_geom_bond_distance
_ccdc_geom_bond_type
C20   C26   1.536308 S    
C36   H20   1.114098 S    
C38   H24   1.111270 S    
C23   C25   1.545843 S    
N5    O15   1.300254 A    
O5    C3    1.293879 A    
O1    C1    1.287326 A    
C21   N5    1.457396 S    
C19   C21   1.538242 S    
C14   C16   1.388802 A    
C37   H23   1.112209 S    
C27   N2    1.481319 S    
C5    C15   1.402089 A    
C29   N1    1.480871 S    
C30   N2    1.480898 S    
C21   C26   1.537021 S    
N4    O12   1.301561 A    
C29   H7    1.108815 S    
O4    Cu1   1.969870 S    
N9    O24   1.300494 A    
Cu1   N1    2.022755 S    
C3    C5    1.457715 S    
C27   C31   1.535991 S    
Cu2   N2    2.022755 S    
C4    C6    1.465674 S    
C28   C30   1.537430 S    
C35   H17   1.110959 S    
C17   O14   1.389771 S    
C8    C10   1.398549 A    
C28   C32   1.536680 S    
C24   C26   1.540740 S    
C11   C17   1.476784 S    
C12   C18   1.477049 S    
Cu1   Cu2   2.691910 S    
O2    C2    1.285140 A    
C19   C25   1.540686 S    
C38   H25   1.110534 S    
N2    C32   1.482107 S    
N9    O23   1.299875 A    
C30   H8    1.109402 S    
C31   H11   1.108235 S    
C6    C16   1.405920 A    
C32   H12   1.109961 S    
O14   C36   1.413192 S    
N5    O16   1.300399 A    
C34   H15   1.111623 S    
C33   C34   1.528519 S    
C22   C25   1.541278 S    
O4    C2    1.294504 A    
N7    O19   1.300514 A    
C37   H22   1.111483 S    
C27   H9    1.110097 S    
C9    H6    1.082571 S    
C22   N6    1.458924 S    
N4    O11   1.300641 A    
C34   H16   1.111981 S    
C33   H14   1.113814 S    
O7    Cu2   1.947058 S    
C14   H4    1.082551 S    
C26   N10   1.457841 S    
N7    O20   1.299737 A    
C27   C29   1.537412 S    
O6    C4    1.297625 A    
C35   H19   1.110925 S    
N10   O26   1.300335 A    
N8    O22   1.298737 A    
C36   H21   1.113864 S    
O3    Cu2   1.969870 S    
O8    C4    1.300106 A    
C10   H5    1.082572 S    
C28   N1    1.481766 S    
C8    N4    1.439064 S    
C10   C12   1.405867 A    
C29   C32   1.536969 S    
O7    C3    1.299359 A    
C25   N9    1.458386 S    
O1    Cu1   1.972686 S    
C38   H26   1.111130 S    
C28   H10   1.110279 S    
C15   H2    1.083486 S    
C5    C7    1.407795 A    
O6    Cu2   1.953482 S    
C9    C11   1.407168 A    
C20   C23   1.551385 S    
N6    O18   1.300174 A    
O3    C1    1.290738 A    
O8    Cu1   1.947056 S    
C34   C35   1.526119 S    
C33   H13   1.113888 S    
C11   C13   1.397866 A    
C19   C24   1.546630 S    
C21   C23   1.543853 S    
C22   C24   1.543755 S    
C37   C38   1.525885 S    
N3    O9    1.301337 A    
C30   C31   1.536488 S    
C20   C22   1.538729 S    
N10   O25   1.299895 A    
C7    C9    1.397464 A    
C12   C14   1.395930 A    
C13   C15   1.389843 A    
N8    O21   1.300295 A    
O2    Cu2   1.972686 S    
C36   C37   1.528030 S    
N3    O10   1.300945 A    
O13   C33   1.413343 S    
C18   O13   1.389750 S    
C20   N8    1.460998 S    
O5    Cu1   1.953482 S    
N6    O17   1.299919 A    
C16   H1    1.083526 S    
C6    C8    1.414633 A    
C1    C24   1.448263 S    
C7    N3    1.436349 S    
C17   C18   1.363552 D    
C2    C23   1.452309 S    
C35   H18   1.109981 S    
N1    C31   1.481913 S    
C13   H3    1.082012 S    
C19   N7    1.459897 S    
