data_mof_unit_45903.cif
_audit_creation_date              2012-12-10T17:19:17-0500
_audit_creation_method            fapswitch 2.2
_symmetry_space_group_name_H-M    P1
_symmetry_Int_Tables_number       1
_space_group_crystal_system       triclinic
_cell_length_a                    18.314386
_cell_length_b                    18.30231
_cell_length_c                    34.429218
_cell_angle_alpha                 90.065011
_cell_angle_beta                  90.131638
_cell_angle_gamma                 89.953766
_cell_volume                      11540.4797326

loop_
_atom_site_label
_atom_site_type_symbol
_atom_type_description
_atom_site_fract_x
_atom_site_fract_y
_atom_site_fract_z
_atom_type_partial_charge
C1    C     C_R   0.576147 0.109729 0.520303 -0.184744
C2    C     C_R   0.880980 0.561802 0.979841 -0.178894
C3    C     C_R   0.455696 0.949395 0.959267 0.007225
C4    C     C_R   0.938186 0.529050 0.041135 0.027990
C5    C     C_R   0.057112 0.467109 0.959464 0.010987
C6    C     C_R   0.457446 0.947936 0.041110 0.006409
C7    C     C_R   0.544774 0.049357 0.959453 0.005490
C8    C     C_R   0.999924 0.499818 0.644187 0.957845
C9    C     C_R   0.000114 0.499747 0.355698 0.936538
C10   C     C_R   0.500156 0.999860 0.644194 0.860806
C11   C     C_R   0.500180 0.000052 0.355755 0.865946
C12   C     C_R   0.499913 0.999991 0.144315 0.883262
C13   C     C_R   0.584438 0.102262 0.020624 -0.179492
C14   C     C_R   0.500080 0.999807 0.855833 0.935800
C15   C     C_R   0.999819 0.500072 0.144314 0.902282
C16   C     C_R   0.000086 0.499956 0.855787 0.876670
C17   C     C_R   0.860244 0.639947 0.749962 0.782632
C18   C     C_R   0.139970 0.360201 0.249885 0.774565
C19   C     C_R   0.360008 0.860375 0.749884 0.783681
C20   C     C_R   0.639750 0.139931 0.250026 0.769988
C21   C     C_R   0.139913 0.360279 0.750028 0.784361
C22   C     C_R   0.860183 0.639857 0.249988 0.787628
C23   C     C_R   0.639698 0.139998 0.750101 0.776946
C24   C     C_R   0.415253 0.897243 0.979973 -0.198892
C25   C     C_R   0.360342 0.859968 0.249900 0.769886
C26   C     C_R   0.860179 0.360167 0.249949 0.776240
C27   C     C_R   0.139982 0.639682 0.750176 0.785060
C28   C     C_R   0.360103 0.139711 0.250083 0.773337
C29   C     C_R   0.639803 0.860184 0.749985 0.785751
C30   C     C_R   0.139762 0.639924 0.250068 0.783027
C31   C     C_R   0.860281 0.360022 0.749903 0.778647
C32   C     C_R   0.639515 0.859995 0.249841 0.779757
C33   C     C_R   0.360011 0.139578 0.749841 0.784255
C34   C     C_R   0.267412 0.625979 0.798420 -0.148689
C35   C     C_R   0.880096 0.560297 0.020293 -0.180206
C36   C     C_R   0.714738 0.392875 0.223831 -0.144421
C37   C     C_R   0.380910 0.272633 0.792187 -0.143873
C38   C     C_R   0.625514 0.733251 0.201336 -0.145895
C39   C     C_R   0.711745 0.396466 0.768265 -0.148401
C40   C     C_R   0.284853 0.606877 0.224007 -0.143239
C41   C     C_R   0.620873 0.728528 0.793762 -0.137362
C42   C     C_R   0.271996 0.164241 0.317746 -0.142535
C43   C     C_R   0.165933 0.273222 0.318046 -0.138551
C44   C     C_R   0.728435 0.620686 0.793612 -0.128473
C45   C     C_R   0.393396 0.713225 0.225496 -0.152716
C46   C     C_R   0.115324 0.436222 0.980427 -0.174975
C47   C     C_R   0.603784 0.289720 0.767486 -0.134309
C48   C     C_R   0.732886 0.625171 0.201836 -0.119764
C49   C     C_R   0.277003 0.383786 0.788715 -0.144762
C50   C     C_R   0.606311 0.286426 0.225625 -0.154675
C51   C     C_R   0.374705 0.734003 0.798258 -0.143531
C52   C     C_R   0.785264 0.107322 0.276206 -0.150343
C53   C     C_R   0.229671 0.877226 0.704359 -0.154006
C54   C     C_R   0.874401 0.767621 0.297870 -0.121979
C55   C     C_R   0.118974 0.226948 0.707555 -0.161845
C56   C     C_R   0.215554 0.892668 0.276572 -0.152006
C57   C     C_R   0.415675 0.896883 0.020336 -0.180288
C58   C     C_R   0.788004 0.103816 0.730944 -0.155880
C59   C     C_R   0.223977 0.330523 0.180963 -0.139225
C60   C     C_R   0.879749 0.772734 0.706866 -0.153417
C61   C     C_R   0.770066 0.878351 0.705114 -0.147926
C62   C     C_R   0.334936 0.226642 0.182156 -0.142674
C63   C     C_R   0.895838 0.210735 0.731388 -0.136890
C64   C     C_R   0.107521 0.785744 0.275999 -0.144235
C65   C     C_R   0.227498 0.120111 0.706410 -0.139469
C66   C     C_R   0.765764 0.874355 0.298335 -0.141003
C67   C     C_R   0.123660 0.767998 0.703297 -0.135141
C68   C     C_R   0.585340 0.101450 0.980278 -0.198367
C69   C     C_R   0.892840 0.214707 0.275965 -0.144486
C70   C     C_R   0.328665 0.619352 0.822254 -0.149003
C71   C     C_R   0.643995 0.409790 0.211910 -0.139336
C72   C     C_R   0.393000 0.338339 0.811559 -0.150864
C73   C     C_R   0.618283 0.671872 0.177659 -0.154955
C74   C     C_R   0.639506 0.415371 0.775597 -0.148619
C75   C     C_R   0.355349 0.589773 0.211928 -0.142508
C76   C     C_R   0.611209 0.664780 0.815197 -0.129936
C77   C     C_R   0.230406 0.176499 0.350933 -0.162244
C78   C     C_R   0.177729 0.231077 0.351138 -0.128235
C79   C     C_R   0.312747 0.742315 0.773968 0.063978
C80   C     C_R   0.664795 0.611042 0.815104 -0.166044
C81   C     C_R   0.409559 0.642729 0.212838 -0.140131
C82   C     C_R   0.585676 0.362233 0.775039 -0.143597
C83   C     C_R   0.671722 0.617915 0.177984 -0.142856
C84   C     C_R   0.342091 0.394369 0.809000 -0.150557
C85   C     C_R   0.589880 0.356763 0.212900 -0.139737
C86   C     C_R   0.382076 0.673187 0.822211 -0.126478
C87   C     C_R   0.855690 0.090865 0.288842 -0.145377
C88   C     C_R   0.167321 0.885151 0.681482 -0.156735
C89   C     C_R   0.881322 0.828951 0.321655 -0.137593
C90   C     C_R   0.677785 0.267809 0.238088 0.075909
C91   C     C_R   0.109722 0.163975 0.685338 -0.152959
C92   C     C_R   0.145391 0.909333 0.289356 -0.145178
C93   C     C_R   0.859991 0.085254 0.722642 -0.150380
C94   C     C_R   0.265037 0.317218 0.147672 -0.124350
C95   C     C_R   0.888192 0.835430 0.684393 -0.128128
C96   C     C_R   0.833333 0.887867 0.683334 -0.165312
C97   C     C_R   0.320934 0.266014 0.148394 -0.164886
C98   C     C_R   0.913766 0.138511 0.722962 -0.143266
C99   C     C_R   0.091474 0.856051 0.288980 -0.141782
C100  C     C_R   0.163764 0.110700 0.684805 -0.139832
C101  C     C_R   0.262636 0.316812 0.769551 0.078632
C102  C     C_R   0.827054 0.882007 0.321993 -0.156333
C103  C     C_R   0.114773 0.830497 0.680727 -0.132327
C104  C     C_R   0.909328 0.144425 0.288748 -0.145504
C105  C     C_R   0.502862 0.998813 0.520360 -0.010305
C106  C     C_R   0.502494 0.999114 0.479429 -0.010080
C107  C     C_R   0.999579 0.499128 0.520280 -0.006077
C108  C     C_R   0.999740 0.499098 0.479302 -0.013647
C109  C     C_R   0.998323 0.499589 0.020739 -0.019682
C110  C     C_R   0.998228 0.499194 0.979720 -0.021877
C111  C     C_R   0.499949 0.999648 0.020749 -0.012670
C112  C     C_R   0.430028 0.887625 0.479453 -0.185572
C113  C     C_R   0.741782 0.687304 0.225927 0.072936
C114  C     C_R   0.500086 0.999507 0.979770 -0.003015
C115  C     C_3   0.355138 0.906946 0.606126 0.089216
C116  C     C_3   0.312693 0.838232 0.616267 -0.787073
C117  C     C_3   0.651492 0.077999 0.390981 0.098359
C118  C     C_3   0.695801 0.135452 0.369570 -0.800250
C119  C     C_3   0.137704 0.390674 0.601448 0.100733
C120  C     C_3   0.172130 0.334143 0.628087 -0.780227
C121  C     C_3   0.046804 0.663468 0.395229 0.094870
C122  C     C_3   0.038849 0.735926 0.374228 -0.853532
C123  C     C_3   0.650622 0.078886 0.609931 0.097365
C124  C     C_R   0.676565 0.269319 0.758460 0.074140
C125  C     C_3   0.693717 0.136216 0.632309 -0.793199
C126  C     C_3   0.350172 0.921701 0.391773 0.095695
C127  C     C_3   0.305369 0.864711 0.370121 -0.797536
C128  C     C_3   0.861646 0.608179 0.601108 0.101565
C129  C     C_3   0.827276 0.664739 0.627729 -0.781800
C130  C     C_3   0.961156 0.333296 0.392303 0.086818
C131  C     C_3   0.974601 0.261658 0.371098 -0.867635
C132  C     C_3   0.835625 0.493907 0.117399 0.129564
C133  C     C_3   0.761559 0.490756 0.097341 -0.889074
C134  C     C_3   0.169863 0.484778 0.891713 0.092464
C135  C     C_R   0.322088 0.732043 0.238006 0.075405
C136  C     C_3   0.242306 0.444314 0.890510 -0.838198
C137  C     C_3   0.459663 0.835680 0.110770 0.087437
C138  C     C_3   0.412497 0.779018 0.130922 -0.809270
C139  C     C_3   0.665092 0.063917 0.897855 0.121131
C140  C     C_3   0.714195 0.114368 0.874509 -0.776212
C141  C     C_3   0.165531 0.526849 0.105209 0.089954
C142  C     C_3   0.235179 0.513599 0.128260 -0.867445
C143  C     C_3   0.837054 0.505717 0.881437 0.132272
C144  C     C_3   0.758979 0.514311 0.895715 -0.879286
C145  C     C_3   0.538428 0.164456 0.110577 0.081953
C146  C     C_R   0.739623 0.685066 0.771641 0.079491
C147  C     C_3   0.584914 0.222042 0.130605 -0.804603
C148  C     C_3   0.336334 0.931315 0.896901 0.117523
C149  C     C_3   0.288910 0.878734 0.873712 -0.774577
C150  C     C_R   0.208062 0.262396 0.283999 0.063179
C151  C     C_R   0.262185 0.207465 0.283961 0.077291
C152  C     C_R   0.685079 0.739646 0.771686 0.067652
C153  C     C_R   0.267245 0.677882 0.237611 0.075978
C154  C     C_R   0.731268 0.323610 0.758636 0.073552
C155  C     C_R   0.687242 0.741918 0.225781 0.076122
C156  C     C_R   0.955907 0.624725 0.519966 -0.200539
C157  C     C_R   0.316175 0.261280 0.770436 0.074745
C158  C     C_R   0.732596 0.322001 0.237521 0.076121
C159  C     C_R   0.258318 0.687642 0.774077 0.077444
C160  C     C_R   0.821824 0.232705 0.262566 0.077113
C161  C     C_R   0.186327 0.758820 0.726977 0.071264
C162  C     C_R   0.757462 0.812535 0.273923 0.077729
C163  C     C_R   0.238795 0.184320 0.728611 0.077742
C164  C     C_R   0.178403 0.767453 0.262663 0.076993
C165  C     C_R   0.823289 0.230824 0.741094 0.075134
C166  C     C_R   0.291980 0.237010 0.215965 0.079286
C167  C     C_R   0.039892 0.372320 0.479607 -0.186226
C168  C     C_R   0.760002 0.814892 0.727993 0.082939
C169  C     C_R   0.815136 0.760923 0.728487 0.064906
C170  C     C_R   0.236520 0.290563 0.215612 0.059255
C171  C     C_R   0.768624 0.176493 0.741008 0.071730
C172  C     C_R   0.233096 0.821766 0.262792 0.075124
C173  C     C_R   0.184010 0.238673 0.728989 0.070080
C174  C     C_R   0.812327 0.758287 0.273810 0.069687
C175  C     C_R   0.240399 0.813829 0.727204 0.072713
C176  C     C_R   0.767253 0.178264 0.262690 0.074845
C177  C     C_R   0.303786 0.804414 0.750121 -0.156879
C178  C     C_R   0.431373 0.886688 0.519753 -0.184823
C179  C     C_R   0.695764 0.196168 0.250264 -0.160668
C180  C     C_R   0.196142 0.304219 0.749744 -0.154560
C181  C     C_R   0.803949 0.695996 0.249898 -0.147133
C182  C     C_R   0.695816 0.196084 0.749951 -0.173815
C183  C     C_R   0.304303 0.803791 0.250141 -0.160448
C184  C     C_R   0.804209 0.696183 0.750060 -0.152845
C185  C     C_R   0.195824 0.303719 0.249861 -0.156170
C186  C     C_R   0.304095 0.195785 0.250066 -0.152368
C187  C     C_R   0.695831 0.804074 0.749904 -0.149435
C188  C     C_R   0.195923 0.695986 0.250024 -0.158020
C189  C     C_R   0.576239 0.109728 0.479917 -0.184640
C190  C     C_R   0.804152 0.303935 0.749951 -0.159258
C191  C     C_R   0.695547 0.803915 0.249860 -0.142421
C192  C     C_R   0.303921 0.195679 0.749834 -0.150775
C193  C     C_R   0.804092 0.304040 0.249876 -0.155541
C194  C     C_R   0.195921 0.696007 0.750254 -0.148929
C195  C     C_R   0.464438 0.943765 0.581301 0.355090
C196  C     C_R   0.541401 0.053366 0.418380 0.355545
C197  C     C_R   0.030009 0.439816 0.581524 0.327335
C198  C     C_R   0.986508 0.564637 0.418189 0.339811
C199  C     C_R   0.541236 0.053303 0.581660 0.356790
C200  C     C_R   0.043632 0.373696 0.520022 -0.200024
C201  C     C_R   0.461308 0.946190 0.418310 0.355874
C202  C     C_R   0.969287 0.558886 0.581434 0.326415
C203  C     C_R   0.014842 0.434059 0.418018 0.334868
C204  C     C_R   0.937055 0.526014 0.081923 0.367527
C205  C     C_R   0.057344 0.467353 0.918640 0.358049
C206  C     C_R   0.458397 0.947390 0.081872 0.351697
C207  C     C_R   0.548286 0.046029 0.918693 0.330939
C208  C     C_R   0.061276 0.476608 0.081925 0.351843
C209  C     C_R   0.939320 0.530177 0.918271 0.368091
C210  C     C_R   0.541028 0.052445 0.081980 0.353371
C211  C     C_R   0.960227 0.626112 0.479612 -0.183364
C212  C     C_R   0.452476 0.952494 0.918463 0.330250
C213  C     C_R   0.501635 0.999216 0.601743 -0.281072
C214  C     C_R   0.500826 0.000047 0.398130 -0.282487
C215  C     C_R   0.999734 0.499481 0.601702 -0.253935
C216  C     C_R   0.000361 0.499395 0.397986 -0.258731
C217  C     C_R   0.999029 0.500310 0.102048 -0.278155
C218  C     C_R   0.999028 0.499494 0.898224 -0.277896
C219  C     C_R   0.499735 0.999952 0.102042 -0.269741
C220  C     C_R   0.500258 0.999455 0.898346 -0.263045
C221  C     C_R   0.540084 0.054391 0.540903 -0.000621
C222  C     C_R   0.117046 0.439741 0.020761 -0.189711
C223  C     C_R   0.464585 0.943917 0.458945 -0.000435
C224  C     C_R   0.974822 0.561402 0.540683 0.007016
C225  C     C_R   0.018569 0.434784 0.458840 0.013006
C226  C     C_R   0.466295 0.942671 0.540590 0.000812
C227  C     C_R   0.539998 0.054567 0.459119 -0.000443
C228  C     C_R   0.024399 0.436999 0.540739 0.007058
C229  C     C_R   0.981604 0.563581 0.458907 0.007059
C230  C     C_R   0.059109 0.471486 0.041259 0.006993
C231  C     C_R   0.939282 0.530795 0.959122 0.024394
C232  C     C_R   0.542319 0.051514 0.041242 0.005024
H1    H     H_    0.227210 0.582714 0.799530 0.106637
H2    H     H_    0.768652 0.577395 0.794511 0.108036
H3    H     H_    0.016979 0.726462 0.344610 0.241392
H4    H     H_    0.680464 0.066528 0.582529 0.129515
H5    H     H_    0.648128 0.028531 0.628029 0.116656
H6    H     H_    0.665492 0.149597 0.659903 0.272831
H7    H     H_    0.749123 0.115035 0.639133 0.197224
H8    H     H_    0.698984 0.186668 0.614650 0.254039
H9    H     H_    0.351583 0.972279 0.373812 0.112537
H10   H     H_    0.322347 0.933781 0.419809 0.127804
H11   H     H_    0.301843 0.813831 0.387559 0.252541
H12   H     H_    0.249337 0.885793 0.364879 0.197837
H13   H     H_    0.437269 0.752695 0.224823 0.133303
H14   H     H_    0.331202 0.852098 0.341756 0.271578
H15   H     H_    0.844616 0.553018 0.611367 0.165194
H16   H     H_    0.839828 0.616803 0.571282 0.138577
H17   H     H_    0.843681 0.720592 0.618696 0.251224
H18   H     H_    0.766851 0.660365 0.626452 0.210954
H19   H     H_    0.845411 0.654973 0.658005 0.267392
H20   H     H_    0.922572 0.366506 0.374560 0.156035
H21   H     H_    0.935266 0.320486 0.420758 0.144665
H22   H     H_    0.011089 0.226090 0.388617 0.247912
H23   H     H_    0.921943 0.232896 0.366395 0.222273
H24   H     H_    0.559915 0.250402 0.768866 0.139751
H25   H     H_    0.000207 0.272346 0.342485 0.242233
H26   H     H_    0.826752 0.504418 0.148801 0.136546
H27   H     H_    0.862010 0.438997 0.115095 0.124736
H28   H     H_    0.768427 0.474108 0.066547 0.250524
H29   H     H_    0.726150 0.450225 0.112143 0.216661
H30   H     H_    0.734769 0.545161 0.098410 0.263943
H31   H     H_    0.174303 0.528014 0.914540 0.128916
H32   H     H_    0.160534 0.511601 0.863168 0.136054
H33   H     H_    0.239485 0.399438 0.868900 0.279060
H34   H     H_    0.286731 0.482559 0.882678 0.193423
H35   H     H_    0.773001 0.581781 0.201149 0.103990
H36   H     H_    0.254969 0.420539 0.919377 0.243265
H37   H     H_    0.505417 0.850352 0.130648 0.124009
H38   H     H_    0.482374 0.810615 0.083862 0.135367
H39   H     H_    0.368094 0.760738 0.111164 0.254053
H40   H     H_    0.446304 0.731066 0.139140 0.192972
H41   H     H_    0.387937 0.803041 0.157484 0.265321
H42   H     H_    0.666257 0.008779 0.884192 0.167766
H43   H     H_    0.688207 0.059328 0.927657 0.128134
H44   H     H_    0.716237 0.169164 0.888363 0.242397
H45   H     H_    0.770329 0.091514 0.873305 0.206904
H46   H     H_    0.238201 0.428413 0.788415 0.123990
H47   H     H_    0.692899 0.120094 0.844468 0.278825
H48   H     H_    0.133707 0.569926 0.120604 0.153106
H49   H     H_    0.181149 0.547490 0.075945 0.145262
H50   H     H_    0.270739 0.474278 0.112665 0.246626
H51   H     H_    0.265357 0.565812 0.131761 0.221308
H52   H     H_    0.221838 0.492063 0.157498 0.241812
H53   H     H_    0.855085 0.448543 0.887730 0.120606
H54   H     H_    0.837442 0.512596 0.849385 0.136453
H55   H     H_    0.739737 0.571092 0.890710 0.271671
H56   H     H_    0.722729 0.475813 0.879864 0.210686
H57   H     H_    0.562483 0.246898 0.225009 0.135865
H58   H     H_    0.756103 0.501944 0.927237 0.246837
H59   H     H_    0.492805 0.149647 0.130380 0.117786
H60   H     H_    0.515469 0.188753 0.083500 0.132409
H61   H     H_    0.628887 0.240722 0.110811 0.254355
H62   H     H_    0.550447 0.269587 0.138717 0.196408
H63   H     H_    0.610049 0.198680 0.157212 0.265250
H64   H     H_    0.333698 0.985981 0.882855 0.170336
H65   H     H_    0.312850 0.936170 0.926552 0.127399
H66   H     H_    0.288562 0.824236 0.887873 0.244486
H67   H     H_    0.232092 0.899766 0.872178 0.206166
H68   H     H_    0.417623 0.774586 0.799295 0.122550
H69   H     H_    0.310504 0.872889 0.843788 0.277519
H70   H     H_    0.745199 0.064044 0.277671 0.129179
H71   H     H_    0.269477 0.920881 0.703637 0.113799
H72   H     H_    0.917909 0.727667 0.298559 0.113959
H73   H     H_    0.755068 0.435844 0.221884 0.120491
H74   H     H_    0.075525 0.267028 0.706905 0.121978
H75   H     H_    0.255826 0.935760 0.278155 0.130743
H76   H     H_    0.748115 0.060493 0.729006 0.137961
H77   H     H_    0.182463 0.372294 0.179009 0.164569
H78   H     H_    0.923765 0.733243 0.706566 0.123406
H79   H     H_    0.729005 0.920809 0.703500 0.107146
H80   H     H_    0.379840 0.188285 0.181305 0.124729
H81   H     H_    0.939559 0.250215 0.729923 0.137547
H82   H     H_    0.063873 0.746056 0.276865 0.126570
H83   H     H_    0.268080 0.077166 0.705035 0.107474
H84   H     H_    0.422638 0.230967 0.794552 0.115435
H85   H     H_    0.725043 0.917191 0.299511 0.106858
H86   H     H_    0.081104 0.727074 0.701882 0.118563
H87   H     H_    0.936276 0.254625 0.277056 0.132286
H88   H     H_    0.067101 0.836449 0.662423 0.125196
H89   H     H_    0.963861 0.131664 0.298893 0.139864
H90   H     H_    0.156423 0.062139 0.667352 0.119497
H91   H     H_    0.832442 0.929308 0.340680 0.121483
H92   H     H_    0.969531 0.123788 0.716371 0.142776
H93   H     H_    0.037090 0.869125 0.299028 0.136261
H94   H     H_    0.839833 0.936173 0.665566 0.124309
H95   H     H_    0.582450 0.773744 0.200168 0.107142
H96   H     H_    0.353646 0.256724 0.122699 0.128996
H97   H     H_    0.253718 0.347013 0.121231 0.163568
H98   H     H_    0.937185 0.843100 0.667443 0.127356
H99   H     H_    0.132959 0.963738 0.299812 0.134635
H100  H     H_    0.874096 0.029385 0.715681 0.144502
H101  H     H_    0.928881 0.835467 0.339965 0.129078
H102  H     H_    0.060646 0.156754 0.668196 0.133458
H103  H     H_    0.868596 0.036452 0.298995 0.135485
H104  H     H_    0.160354 0.933265 0.663681 0.119876
H105  H     H_    0.535039 0.369932 0.203398 0.133762
H106  H     H_    0.751604 0.439786 0.770340 0.132196
H107  H     H_    0.429259 0.667942 0.840962 0.126685
H108  H     H_    0.665750 0.570233 0.159663 0.126770
H109  H     H_    0.352599 0.445809 0.823376 0.131654
H110  H     H_    0.464240 0.629324 0.203355 0.135462
H111  H     H_    0.529711 0.377383 0.780681 0.142997
H112  H     H_    0.145451 0.240435 0.376958 0.162784
H113  H     H_    0.656943 0.561653 0.831788 0.130552
H114  H     H_    0.562016 0.657074 0.832017 0.126343
H115  H     H_    0.238851 0.143203 0.376525 0.130206
H116  H     H_    0.625175 0.471445 0.781878 0.143136
H117  H     H_    0.244481 0.563921 0.222239 0.130339
H118  H     H_    0.367835 0.535251 0.201661 0.138440
H119  H     H_    0.442259 0.345958 0.828494 0.131762
H120  H     H_    0.571005 0.666150 0.158986 0.121554
H121  H     H_    0.334702 0.572469 0.840988 0.117786
H122  H     H_    0.631146 0.464194 0.201728 0.133349
H123  H     H_    0.604695 0.153248 0.535305 0.185871
H124  H     H_    0.401645 0.843997 0.464445 0.186623
H125  H     H_    0.938758 0.673915 0.534901 0.179362
H126  H     H_    0.054772 0.322381 0.464672 0.180364
H127  H     H_    0.404077 0.842214 0.534473 0.184702
H128  H     H_    0.577672 0.768870 0.794779 0.116220
H129  H     H_    0.604899 0.153211 0.465067 0.185925
H130  H     H_    0.060833 0.324585 0.534995 0.178858
H131  H     H_    0.945808 0.676136 0.464653 0.185419
H132  H     H_    0.163613 0.416710 0.035876 0.181757
H133  H     H_    0.835486 0.587129 0.964898 0.193284
H134  H     H_    0.617034 0.142903 0.035575 0.185037
H135  H     H_    0.383026 0.856225 0.965117 0.178936
H136  H     H_    0.833878 0.584305 0.035159 0.194810
H137  H     H_    0.160471 0.410042 0.965795 0.184040
H138  H     H_    0.383069 0.856271 0.035173 0.183463
H139  H     H_    0.311271 0.120146 0.318917 0.126039
H140  H     H_    0.617993 0.142090 0.965513 0.180410
H141  H     H_    0.330374 0.930443 0.579252 0.120443
H142  H     H_    0.349299 0.947062 0.630228 0.126674
H143  H     H_    0.331387 0.816457 0.644706 0.271955
H144  H     H_    0.253555 0.850890 0.617784 0.207092
H145  H     H_    0.321172 0.795950 0.593556 0.247796
H146  H     H_    0.649106 0.028054 0.372498 0.116972
H147  H     H_    0.680341 0.064818 0.418636 0.129325
H148  H     H_    0.700240 0.185736 0.387501 0.253333
H149  H     H_    0.751517 0.114245 0.363675 0.197517
H150  H     H_    0.123046 0.313704 0.319519 0.157648
H151  H     H_    0.669016 0.149115 0.341548 0.271987
H152  H     H_    0.154751 0.445848 0.611778 0.165009
H153  H     H_    0.159473 0.382010 0.571658 0.137279
H154  H     H_    0.155740 0.278274 0.618966 0.251435
H155  H     H_    0.232551 0.338544 0.626943 0.209865
H156  H     H_    0.154025 0.343910 0.658334 0.267850
H157  H     H_    0.085784 0.628913 0.378520 0.155230
H158  H     H_    0.070142 0.674666 0.424564 0.141037
H159  H     H_    0.001192 0.772222 0.390546 0.251930
H160  H     H_    0.092928 0.762960 0.371866 0.217105
O1    O     O_3   0.000000 0.500000 0.750000 -0.497941
O2    O     O_R   0.060740 0.500000 0.337440 -0.640675
O3    O     O_R   0.500000 0.939260 0.662560 -0.602815
O4    O     O_R   0.500000 0.060740 0.337440 -0.605545
O5    O     O_R   0.560740 1.000000 0.162560 -0.611134
O6    O     O_R   0.439260 1.000000 0.837440 -0.639280
O7    O     O_R   0.000000 0.560740 0.162560 -0.629496
O8    O     O_R   0.000000 0.439260 0.837440 -0.621170
O9    O     O_R   0.439260 1.000000 0.162560 -0.614983
O10   O     O_R   0.560740 1.000000 0.837440 -0.636862
O11   O     O_R   0.000000 0.439260 0.162560 -0.636260
O12   O     O_3   0.000000 0.500000 0.250000 -0.499597
O13   O     O_R   0.000000 0.560740 0.837440 -0.627776
O14   O     O_R   0.853850 0.585450 0.727070 -0.651516
O15   O     O_R   0.146150 0.414550 0.272930 -0.636200
O16   O     O_R   0.414550 0.853850 0.727070 -0.629357
O17   O     O_R   0.585450 0.146150 0.272930 -0.637799
O18   O     O_R   0.146150 0.414550 0.727070 -0.648873
O19   O     O_R   0.853850 0.585450 0.272930 -0.630768
O20   O     O_R   0.585450 0.146150 0.727070 -0.638820
O21   O     O_R   0.414550 0.853850 0.272930 -0.637673
O22   O     O_R   0.853850 0.414550 0.272930 -0.640899
O23   O     O_3   0.500000 0.000000 0.750000 -0.498936
O24   O     O_R   0.146150 0.585450 0.727070 -0.636719
O25   O     O_R   0.414550 0.146150 0.272930 -0.638593
O26   O     O_R   0.585450 0.853850 0.727070 -0.633711
O27   O     O_R   0.146150 0.585450 0.272930 -0.640554
O28   O     O_R   0.853850 0.414550 0.727070 -0.639916
O29   O     O_R   0.585450 0.853850 0.272930 -0.635410
O30   O     O_R   0.414550 0.146150 0.727070 -0.637446
O31   O     O_R   0.353850 0.085450 0.227070 -0.640161
O32   O     O_R   0.646150 0.914550 0.772930 -0.643246
O33   O     O_R   0.914550 0.353850 0.227070 -0.641719
O34   O     O_3   0.500000 0.000000 0.250000 -0.506548
O35   O     O_R   0.085450 0.646150 0.772930 -0.638652
O36   O     O_R   0.646150 0.914550 0.227070 -0.637512
O37   O     O_R   0.353850 0.085450 0.772930 -0.639626
O38   O     O_R   0.085450 0.646150 0.227070 -0.638746
O39   O     O_R   0.914550 0.353850 0.772930 -0.645475
O40   O     O_R   0.353850 0.914550 0.772930 -0.647020
O41   O     O_R   0.646150 0.085450 0.227070 -0.625690
O42   O     O_R   0.914550 0.646150 0.772930 -0.623399
O43   O     O_R   0.085450 0.353850 0.227070 -0.635745
O44   O     O_R   0.646150 0.085450 0.772930 -0.647809
O45   O     O_R   0.060740 0.500000 0.662560 -0.644706
O46   O     O_R   0.353850 0.914550 0.227070 -0.626238
O47   O     O_R   0.085450 0.353850 0.772930 -0.623646
O48   O     O_R   0.914550 0.646150 0.227070 -0.631419
O49   O     O_3   0.429396 0.888228 0.601196 -0.571509
O50   O     O_3   0.580762 0.105675 0.398263 -0.574092
O51   O     O_3   0.060895 0.382602 0.602122 -0.616196
O52   O     O_3   0.977721 0.629355 0.397921 -0.603575
O53   O     O_3   0.579912 0.106123 0.601949 -0.575045
O54   O     O_3   0.421302 0.894172 0.398168 -0.573002
O55   O     O_3   0.938455 0.616255 0.601929 -0.618132
O56   O     O_R   0.939260 0.500000 0.337440 -0.637127
O57   O     O_3   0.028198 0.370308 0.397493 -0.616318
O58   O     O_3   0.877139 0.552523 0.102088 -0.603655
O59   O     O_3   0.113513 0.433675 0.898605 -0.588227
O60   O     O_3   0.416344 0.897463 0.102106 -0.581666
O61   O     O_3   0.593490 0.093064 0.898340 -0.606324
O62   O     O_3   0.125050 0.461184 0.102105 -0.613091
O63   O     O_3   0.881383 0.561048 0.898104 -0.598378
O64   O     O_3   0.582437 0.102972 0.102322 -0.580043
O65   O     O_3   0.408713 0.904233 0.897855 -0.609152
O66   O     O_R   0.500000 0.060740 0.662560 -0.601810
O67   O     O_R   0.500000 0.939260 0.337440 -0.600378
O68   O     O_R   0.939260 0.500000 0.662560 -0.643319
Zn1   Zn    Zn3+2 0.000000 0.586740 0.782740 0.975436
Zn2   Zn    Zn3+2 0.500000 0.913260 0.717260 0.980865
Zn3   Zn    Zn3+2 0.913260 0.500000 0.282740 0.973773
Zn4   Zn    Zn3+2 0.086740 0.500000 0.717260 0.964730
Zn5   Zn    Zn3+2 0.500000 0.913260 0.282740 0.975137
Zn6   Zn    Zn3+2 0.500000 0.086740 0.717260 0.975199
Zn7   Zn    Zn3+2 0.086740 0.500000 0.282740 0.971633
Zn8   Zn    Zn3+2 0.913260 0.500000 0.717260 0.959584
Zn9   Zn    Zn3+2 0.000000 0.413260 0.217260 0.966022
Zn10  Zn    Zn3+2 0.413260 0.000000 0.782740 0.958609
Zn11  Zn    Zn3+2 0.586740 1.000000 0.217260 0.978302
Zn12  Zn    Zn3+2 0.000000 0.413260 0.782740 0.974079
Zn13  Zn    Zn3+2 0.000000 0.586740 0.217260 0.975619
Zn14  Zn    Zn3+2 0.586740 0.000000 0.782740 0.957126
Zn15  Zn    Zn3+2 0.413260 1.000000 0.217260 0.974336
Zn16  Zn    Zn3+2 0.500000 0.086740 0.282740 0.970945

loop_
_geom_bond_atom_site_label_1
_geom_bond_atom_site_label_2
_ccdc_geom_bond_type
C12   O9    A    
C159  C194  A    
C126  C127  S    
C83   H108  S    
C64   C164  A    
C198  C216  A    
C150  C185  A    
C175  C177  A    
C11   O67   A    
O23   Zn6   S    
O15   Zn7   S    
C15   O7    A    
C211  H131  S    
C52   C176  A    
C22   C181  S    
C60   H78   S    
C131  H23   S    
C61   H79   S    
C10   O3    A    
C149  H66   S    
O42   Zn1   S    
C208  C217  A    
C69   C160  A    
C1    C221  A    
C209  C231  A    
C39   C74   A    
C78   H112  S    
C31   O28   A    
C55   C173  A    
C46   H137  S    
C142  H52   S    
C7    C68   A    
C29   O26   A    
C50   C90   A    
C176  C179  A    
C201  O54   S    
C39   H106  S    
C167  C200  A    
C139  H42   S    
C163  C192  A    
C91   C100  A    
C36   C71   A    
C67   H86   S    
C168  C187  A    
C144  H55   S    
C96   H94   S    
C14   C220  S    
C189  C227  A    
O66   Zn6   S    
C152  C187  A    
C51   H68   S    
O34   Zn16  S    
C129  H17   S    
C158  C193  A    
C39   C154  A    
O20   Zn6   S    
C42   H139  S    
O45   Zn4   S    
C65   C100  A    
C23   C182  S    
O12   Zn7   S    
O13   Zn1   S    
C59   H77   S    
C137  H37   S    
O1    Zn1   S    
C212  C220  A    
C94   C97   A    
C164  C188  A    
C36   H73   S    
C75   H118  S    
C76   H114  S    
C17   O42   A    
C124  C182  A    
C109  C230  A    
O9    Zn15  S    
C119  C120  S    
C165  C190  A    
C178  H127  S    
C72   C84   A    
C120  H154  S    
C168  C169  A    
C149  H69   S    
C206  C219  A    
C202  O55   S    
C203  C225  A    
O23   Zn2   S    
C112  C178  A    
O47   Zn12  S    
C103  H88   S    
C28   O31   A    
C166  C186  A    
C45   C81   A    
C26   O33   A    
C115  H141  S    
C46   C222  A    
C139  C140  S    
C10   C213  S    
C121  H158  S    
C63   C98   A    
C9    O56   A    
C33   O37   A    
C5    C46   A    
C48   H35   S    
C61   C168  A    
C69   H87   S    
C130  C131  S    
C137  O60   S    
C47   H24   S    
C23   O20   A    
C142  H50   S    
C95   H98   S    
C132  O58   S    
C17   C184  S    
O29   Zn5   S    
C24   H135  S    
C30   O27   A    
C170  C185  A    
C112  H124  S    
C148  O65   S    
C58   C171  A    
C201  C214  A    
C11   C214  S    
C123  H4    S    
C60   C95   A    
C145  O64   S    
C141  O62   S    
C106  C227  A    
O32   Zn14  S    
C27   O24   A    
C32   O29   A    
C73   C83   A    
C125  H6    S    
C18   O15   A    
C85   H105  S    
C41   C76   A    
C165  C171  A    
C151  C186  A    
C4    C109  A    
C129  H19   S    
C209  O63   S    
C134  H31   S    
C6    C111  A    
O44   Zn14  S    
C135  C183  A    
C128  C129  S    
C19   O16   A    
C61   C96   A    
C67   C103  A    
C133  H29   S    
O34   Zn5   S    
C31   C190  S    
C23   O44   A    
C60   C169  A    
C49   C84   A    
C134  O59   S    
C18   O43   A    
C25   O21   A    
C5    C110  A    
C62   H80   S    
C115  C116  S    
C27   O35   A    
O2    Zn7   S    
C86   H107  S    
C43   H150  S    
C136  H34   S    
C37   C157  A    
O17   Zn16  S    
C120  H156  S    
C64   C99   A    
C113  C181  A    
C106  C223  A    
C24   C57   A    
C126  H10   S    
C107  C108  A    
C79   C177  A    
C16   C218  S    
O36   Zn11  S    
C19   C177  S    
O37   Zn10  S    
C128  O55   S    
C34   C159  A    
C99   H93   S    
C117  H147  S    
O23   Zn10  S    
C156  C211  A    
C15   O11   A    
C139  H43   S    
C3    C24   A    
C38   C155  A    
C66   H85   S    
C203  O57   S    
C20   C179  S    
C65   C163  A    
C122  H159  S    
C45   C135  A    
C127  H11   S    
C7    C207  A    
O38   Zn13  S    
C93   H100  S    
O27   Zn7   S    
O34   Zn11  S    
C73   H120  S    
C144  H58   S    
C156  H125  S    
C210  C219  A    
C63   H81   S    
O14   Zn8   S    
C169  C184  A    
C145  H60   S    
C28   C186  S    
C62   C97   A    
C196  C214  A    
C33   O30   A    
O68   Zn8   S    
C138  H40   S    
C127  H14   S    
C31   O39   A    
C50   H57   S    
C42   C151  A    
C125  H8    S    
C43   C150  A    
C143  H54   S    
C62   C166  A    
C166  C170  A    
C40   C153  A    
C164  C172  A    
C201  C223  A    
C27   C194  S    
C163  C173  A    
C53   C175  A    
C107  C224  A    
C14   O10   A    
C19   O40   A    
C16   O8    A    
C199  C213  A    
C72   H119  S    
C76   C80   A    
C56   H75   S    
C21   O18   A    
C41   H128  S    
C16   O13   A    
C80   H113  S    
C147  H62   S    
C123  O53   S    
O33   Zn9   S    
C18   C185  S    
C48   C83   A    
C146  C184  A    
C136  H36   S    
O39   Zn12  S    
C101  C180  A    
C117  C118  S    
C13   C232  A    
C172  C183  A    
C105  C221  A    
C148  H65   S    
C71   H122  S    
C51   C79   A    
C4    C35   A    
C110  C231  A    
O10   Zn14  S    
C197  C228  A    
C8    O68   A    
C222  C230  A    
C167  H126  S    
C210  C232  A    
C150  C151  A    
C34   H1    S    
C56   C172  A    
C92   C99   A    
C160  C193  A    
C123  H5    S    
C13   C68   A    
C1    C189  A    
C2    C35   A    
C11   O4    A    
C13   H134  S    
C100  H90   S    
C144  H56   S    
C9    O2    A    
O41   Zn11  S    
O5    Zn11  S    
C198  C229  A    
C118  H148  S    
C77   C78   A    
C43   C78   A    
C10   O66   A    
C207  C220  A    
C68   H140  S    
O22   Zn3   S    
C7    C114  A    
O16   Zn2   S    
C58   C93   A    
C113  C155  A    
O19   Zn3   S    
C79   C159  A    
O26   Zn2   S    
C123  C125  S    
C108  C225  A    
C66   C162  A    
C200  C228  A    
C21   O47   A    
C197  O51   S    
C38   H95   S    
C77   H115  S    
C55   C91   A    
C50   C85   A    
O4    Zn16  S    
C210  O64   S    
C57   H138  S    
C59   C94   A    
C202  C215  A    
C15   C217  S    
C143  O63   S    
O12   Zn13  S    
C34   C70   A    
C116  H143  S    
C115  H142  S    
C122  H3    S    
C154  C190  A    
C196  C227  A    
C101  C157  A    
O12   Zn9   S    
C128  H15   S    
C6    C57   A    
C222  H132  S    
C74   C82   A    
C51   C86   A    
O31   Zn15  S    
C162  C191  A    
C145  C147  S    
C26   O22   A    
C138  H39   S    
C37   H84   S    
C138  H41   S    
C202  C224  A    
C203  C216  A    
C44   C80   A    
C91   H102  S    
C53   H71   S    
C45   H13   S    
O8    Zn12  S    
O1    Zn8   S    
C173  C180  A    
C121  H157  S    
C149  H67   S    
C3    C114  A    
C29   C187  S    
C30   C188  S    
C8    O45   A    
C2    H133  S    
O3    Zn2   S    
C52   H70   S    
C142  H51   S    
O24   Zn4   S    
C67   C161  A    
C40   H117  S    
O23   Zn14  S    
C65   H83   S    
C205  O59   S    
C141  H49   S    
C121  C122  S    
C207  O61   S    
C143  H53   S    
C1    H123  S    
C112  C223  A    
C82   H111  S    
O34   Zn15  S    
C74   H116  S    
C126  O54   S    
C129  H18   S    
C134  H32   S    
C211  C229  A    
C140  H45   S    
C64   H82   S    
C195  O49   S    
C141  H48   S    
C132  H26   S    
C137  H38   S    
C153  C188  A    
C130  H20   S    
C105  C106  A    
C81   H110  S    
C40   C75   A    
C156  C224  A    
C102  H91   S    
C143  C144  S    
C32   O36   A    
C157  C192  A    
C109  C110  A    
O30   Zn6   S    
C87   H103  S    
C47   C124  A    
C92   H99   S    
C147  H63   S    
O28   Zn8   S    
C54   C174  A    
C28   O25   A    
C111  C114  A    
C195  C213  A    
C4    C204  A    
C116  H145  S    
C87   C104  A    
C130  H21   S    
C32   C191  S    
C37   C72   A    
O67   Zn5   S    
C26   C193  S    
C48   C113  A    
O1    Zn4   S    
C117  H146  S    
O21   Zn5   S    
C124  C154  A    
C89   C102  A    
C66   C102  A    
C171  C182  A    
C95   C96   A    
C198  O52   S    
C8    C215  S    
C131  H22   S    
C196  O50   S    
C41   C152  A    
C122  H160  S    
C33   C192  S    
C209  C218  A    
C161  C175  A    
C167  C225  A    
C118  H151  S    
C25   O46   A    
C47   C82   A    
C58   H76   S    
C145  H59   S    
O12   Zn3   S    
C131  H25   S    
C21   C180  S    
C132  C133  S    
C44   C146  A    
C20   O41   A    
C199  C221  A    
O35   Zn1   S    
C59   C170  A    
C12   C219  S    
C197  C215  A    
C36   C158  A    
C208  O62   S    
C130  O57   S    
C98   H92   S    
O46   Zn15  S    
C71   C85   A    
C199  O53   S    
C111  C232  A    
C160  C176  A    
C140  H47   S    
C204  O58   S    
C174  C181  A    
C119  H153  S    
C132  H27   S    
C108  C229  A    
C133  H28   S    
C9    C216  S    
C133  H30   S    
C148  H64   S    
C119  O51   S    
C205  C218  A    
C6    C206  A    
C128  H16   S    
C148  C149  S    
O6    Zn10  S    
C54   C89   A    
C54   H72   S    
C75   C81   A    
C134  C136  S    
C147  H61   S    
C30   O38   A    
C89   H101  S    
C35   H136  S    
C136  H33   S    
C90   C158  A    
C104  H89   S    
C14   O6    A    
C44   H2    S    
O7    Zn13  S    
C120  H155  S    
C189  H129  S    
C17   O14   A    
C63   C165  A    
C107  C228  A    
O43   Zn9   S    
C126  H9    S    
C139  O61   S    
C105  C226  A    
C97   H96   S    
C155  C191  A    
C2    C231  A    
C88   H104  S    
C146  C152  A    
C29   O32   A    
O48   Zn13  S    
O1    Zn12  S    
O40   Zn10  S    
C70   C86   A    
C88   C103  A    
C12   O5    A    
C69   C104  A    
C3    C212  A    
C90   C179  A    
C22   O48   A    
C195  C226  A    
C52   C87   A    
C127  H12   S    
O11   Zn9   S    
C125  H7    S    
C212  O65   S    
C162  C174  A    
C118  H149  S    
C137  C138  S    
C135  C153  A    
C70   H121  S    
C204  C217  A    
C117  O50   S    
C140  H44   S    
C141  C142  S    
C49   H46   S    
C115  O49   S    
O56   Zn3   S    
C200  H130  S    
C161  C194  A    
C53   C88   A    
C22   O19   A    
C55   H74   S    
C178  C226  A    
C20   O17   A    
C5    C205  A    
C116  H144  S    
C56   C92   A    
C84   H109  S    
O25   Zn16  S    
C94   H97   S    
C42   C77   A    
C119  H152  S    
C206  O60   S    
C93   C98   A    
O18   Zn4   S    
C25   C183  S    
C49   C101  A    
C208  C230  A    
C121  O52   S    
C38   C73   A    
