data_mof_unit_58185.cif
_audit_creation_date              2013-03-05T15:52:02-0500
_audit_creation_method            fapswitch 2.2
_symmetry_space_group_name_H-M    P1
_symmetry_Int_Tables_number       1
_space_group_crystal_system       triclinic
_cell_length_a                    26.204753
_cell_length_b                    25.94827
_cell_length_c                    22.288482
_cell_angle_alpha                 89.999736
_cell_angle_beta                  126.279997
_cell_angle_gamma                 90.000077
_cell_volume                      12217.3411689

loop_
_atom_site_label
_atom_site_type_symbol
_atom_site_description
_atom_site_fract_x
_atom_site_fract_y
_atom_site_fract_z
_atom_type_partial_charge
Zn1   Zn    Zn3+2 0.074160 0.706620 0.561580 1.110210
Zn2   Zn    Zn3+2 0.925840 0.293380 0.438420 1.116756
Zn3   Zn    Zn3+2 0.925840 0.706620 0.438420 1.110257
Zn4   Zn    Zn3+2 0.074160 0.293380 0.561580 1.116799
Zn5   Zn    Zn3+2 0.574160 0.206620 0.561580 1.110257
Zn6   Zn    Zn3+2 0.425840 0.793380 0.438420 1.116710
Zn7   Zn    Zn3+2 0.425840 0.206620 0.438420 1.110197
Zn8   Zn    Zn3+2 0.574160 0.793380 0.561580 1.116687
Zn9   Zn    Zn3+2 0.012590 0.793370 0.438410 1.084283
Zn10  Zn    Zn3+2 0.987410 0.206630 0.561590 1.087672
Zn11  Zn    Zn3+2 0.987410 0.793370 0.561590 1.084028
Zn12  Zn    Zn3+2 0.012590 0.206630 0.438410 1.087776
Zn13  Zn    Zn3+2 0.512590 0.293370 0.438410 1.083848
Zn14  Zn    Zn3+2 0.487410 0.706630 0.561590 1.087754
Zn15  Zn    Zn3+2 0.487410 0.293370 0.561590 1.084216
Zn16  Zn    Zn3+2 0.512590 0.706630 0.438410 1.087677
O1    O     O_3   0.000000 0.750000 0.500000 -0.545284
O2    O     O_3   0.000000 0.250000 0.500000 -0.547073
O3    O     O_3   0.500000 0.250000 0.500000 -0.545225
O4    O     O_3   0.500000 0.750000 0.500000 -0.547075
O5    O     O_R   0.887450 0.719640 0.335600 -0.604316
O6    O     O_R   0.112550 0.280360 0.664400 -0.597406
O7    O     O_R   0.112550 0.719640 0.664400 -0.604312
O8    O     O_R   0.887450 0.280360 0.335600 -0.597462
O9    O     O_R   0.387450 0.219640 0.335600 -0.604300
O10   O     O_R   0.612550 0.780360 0.664400 -0.597466
O11   O     O_R   0.612550 0.219640 0.664400 -0.604311
O12   O     O_R   0.387450 0.780360 0.335600 -0.597431
O13   O     O_R   0.094250 0.780350 0.456890 -0.634428
O14   O     O_R   0.905750 0.219650 0.543110 -0.624332
O15   O     O_R   0.905750 0.780350 0.543110 -0.634448
O16   O     O_R   0.094250 0.219650 0.456890 -0.624455
O17   O     O_R   0.594250 0.280350 0.456890 -0.634458
O18   O     O_R   0.405750 0.719650 0.543110 -0.624501
O19   O     O_R   0.405750 0.280350 0.543110 -0.634432
O20   O     O_R   0.594250 0.719650 0.456890 -0.624424
O21   O     O_R   0.008810 0.865800 0.456890 -0.627208
O22   O     O_R   0.991190 0.134200 0.543110 -0.599250
O23   O     O_R   0.991190 0.865800 0.543110 -0.627386
O24   O     O_R   0.008810 0.134200 0.456890 -0.599035
O25   O     O_R   0.508810 0.365800 0.456890 -0.627461
O26   O     O_R   0.491190 0.634200 0.543110 -0.599009
O27   O     O_R   0.491190 0.365800 0.543110 -0.627218
O28   O     O_R   0.508810 0.634200 0.456890 -0.599159
O29   O     O_R   0.948090 0.634190 0.456900 -0.630788
O30   O     O_R   0.051910 0.365810 0.543100 -0.598899
O31   O     O_R   0.051910 0.634190 0.543100 -0.630813
O32   O     O_R   0.948090 0.365810 0.456900 -0.598903
O33   O     O_R   0.448090 0.134190 0.456900 -0.630824
O34   O     O_R   0.551910 0.865810 0.543100 -0.598895
O35   O     O_R   0.551910 0.134190 0.543100 -0.630793
O36   O     O_R   0.448090 0.865810 0.456900 -0.598889
O37   O     O_R   0.137350 0.719630 0.543100 -0.589166
O38   O     O_R   0.862650 0.280370 0.456900 -0.620307
O39   O     O_R   0.862650 0.719630 0.456900 -0.589151
O40   O     O_R   0.137350 0.280370 0.543100 -0.620244
O41   O     O_R   0.637350 0.219630 0.543100 -0.589186
O42   O     O_R   0.362650 0.780370 0.456900 -0.620224
O43   O     O_R   0.362650 0.219630 0.456900 -0.589206
O44   O     O_R   0.637350 0.780370 0.543100 -0.620256
O45   O     O_R   0.948170 0.780360 0.335600 -0.586807
O46   O     O_R   0.051830 0.219640 0.664400 -0.618653
O47   O     O_R   0.051830 0.780360 0.664400 -0.587044
O48   O     O_R   0.948170 0.219640 0.335600 -0.618388
O49   O     O_R   0.448170 0.280360 0.335600 -0.587296
O50   O     O_R   0.551830 0.719640 0.664400 -0.618332
O51   O     O_R   0.551830 0.280360 0.664400 -0.586914
O52   O     O_R   0.448170 0.719640 0.335600 -0.618482
C1    C     C_R   0.900306 0.749973 0.300748 0.867157
C2    C     C_R   0.099607 0.250134 0.699265 0.850639
C3    C     C_R   0.099695 0.749974 0.699253 0.867236
C4    C     C_R   0.900391 0.250134 0.300734 0.850354
C5    C     C_R   0.400303 0.249976 0.300747 0.867330
C6    C     C_R   0.599610 0.750133 0.699266 0.850260
C7    C     C_R   0.599695 0.249974 0.699252 0.867189
C8    C     C_R   0.400391 0.750134 0.300734 0.850418
C9    C     C_R   0.140284 0.749897 0.500111 0.911275
C10   C     C_R   0.859673 0.250077 0.499947 0.888531
C11   C     C_R   0.859715 0.749898 0.499888 0.911251
C12   C     C_R   0.140330 0.250076 0.500058 0.888343
C13   C     C_R   0.640287 0.249900 0.500114 0.911194
C14   C     C_R   0.359669 0.750075 0.499941 0.888280
C15   C     C_R   0.359715 0.249898 0.499889 0.911237
C16   C     C_R   0.640329 0.750076 0.500056 0.888375
C17   C     C_R   1.000000 0.889995 0.500000 0.764666
C18   C     C_R   1.000000 0.110010 0.500000 0.777238
C19   C     C_R   0.500000 0.389995 0.500000 0.764706
C20   C     C_R   0.500000 0.610010 0.500000 0.777196
C21   C     C_R   0.000000 0.609762 0.500000 0.887766
C22   C     C_R   0.000000 0.390077 0.500000 0.943109
C23   C     C_R   0.500000 0.109762 0.500000 0.887811
C24   C     C_R   0.500000 0.890077 0.500000 0.943071
H1    H     H_    0.218743 0.536546 0.666041 0.219256
H2    H     H_    0.798508 0.464182 0.277336 0.213503
H3    H     H_    0.781262 0.536553 0.333937 0.219315
H4    H     H_    0.201502 0.464177 0.722648 0.213159
H5    H     H_    0.718741 0.036549 0.666020 0.219285
H6    H     H_    0.298488 0.964179 0.277366 0.213250
H7    H     H_    0.281255 0.036547 0.333983 0.219222
H8    H     H_    0.701508 0.964181 0.722638 0.213530
C25   C     C_R   0.880459 0.544788 0.425812 0.352466
C26   C     C_R   0.102878 0.454284 0.629913 0.373327
C27   C     C_R   0.119543 0.544787 0.574179 0.352494
C28   C     C_R   0.897128 0.454284 0.370082 0.373209
C29   C     C_R   0.380458 0.044788 0.425835 0.352521
C30   C     C_R   0.602883 0.954285 0.629909 0.373279
C31   C     C_R   0.619538 0.044787 0.574164 0.352469
C32   C     C_R   0.397114 0.954286 0.370093 0.373424
C33   C     C_R   0.828690 0.521558 0.361079 -0.217054
C34   C     C_R   0.162080 0.478820 0.669306 -0.206622
C35   C     C_R   0.171315 0.521553 0.638905 -0.217136
C36   C     C_R   0.837928 0.478824 0.330681 -0.206363
C37   C     C_R   0.328682 0.021555 0.361113 -0.217320
C38   C     C_R   0.662084 0.978823 0.669296 -0.206312
C39   C     C_R   0.671314 0.021556 0.638889 -0.217113
C40   C     C_R   0.337913 0.978822 0.330706 -0.206638
C41   C     C_R   0.946877 0.474130 0.441130 -0.047036
C42   C     C_R   0.057853 0.525231 0.543031 -0.067283
C43   C     C_R   0.053126 0.474130 0.558866 -0.047075
C44   C     C_R   0.942149 0.525230 0.456964 -0.067263
C45   C     C_R   0.446871 0.974131 0.441138 -0.047063
C46   C     C_R   0.557851 0.025231 0.543026 -0.067290
C47   C     C_R   0.553126 0.974130 0.558863 -0.047065
C48   C     C_R   0.442146 0.025231 0.456975 -0.067293
C49   C     C_R   0.000001 0.446153 0.499999 -0.057821
C50   C     C_R   0.000001 0.553406 0.499999 -0.081801
C51   C     C_R   0.499999 0.946154 0.500000 -0.057819
C52   C     C_R   0.499999 0.053406 0.500000 -0.081805
C53   C     C_3   0.721443 0.224006 0.024956 -0.230063
C54   C     C_3   0.278413 0.777172 0.974982 -0.224378
C55   C     C_3   0.277162 0.222018 0.975021 -0.231320
C56   C     C_3   0.720874 0.775971 0.025014 -0.224539
C57   C     C_3   0.221838 0.723421 0.024962 -0.230600
C58   C     C_3   0.778777 0.276570 0.974984 -0.224205
C59   C     C_3   0.778940 0.724587 0.975050 -0.229891
C60   C     C_3   0.222511 0.278611 0.025026 -0.223960
C61   C     C_3   0.195937 0.772016 0.975884 0.346461
C62   C     C_3   0.803987 0.227963 0.024061 0.357635
C63   C     C_3   0.803467 0.773198 0.024124 0.346672
C64   C     C_3   0.194921 0.230093 0.975936 0.358583
C65   C     C_3   0.696234 0.272614 0.975880 0.346425
C66   C     C_3   0.304316 0.728578 0.024063 0.358100
C67   C     C_3   0.304747 0.270537 0.024103 0.346068
C68   C     C_3   0.696346 0.727359 0.975941 0.357514
H9    H     H_    0.697556 0.203259 0.045552 0.213721
H10   H     H_    0.301986 0.798409 0.954362 0.217591
H11   H     H_    0.299987 0.199593 0.954414 0.213612
H12   H     H_    0.696712 0.796223 0.045628 0.217529
H13   H     H_    0.198251 0.702180 0.045560 0.213559
H14   H     H_    0.802650 0.297313 0.954367 0.217730
H15   H     H_    0.803115 0.704330 0.954457 0.213631
H16   H     H_    0.199700 0.301032 0.045654 0.217839
H17   H     H_    0.769181 0.339654 0.046031 0.213420
H18   H     H_    0.232340 0.660997 0.953946 0.205207
H19   H     H_    0.235117 0.339371 0.953976 0.213171
H20   H     H_    0.770214 0.660863 0.046070 0.205500
H21   H     H_    0.267928 0.839594 0.046029 0.213202
H22   H     H_    0.731055 0.160921 0.953939 0.205446
H23   H     H_    0.729585 0.839693 0.953965 0.213413
H24   H     H_    0.264536 0.161256 0.046036 0.205064
C69   C     C_1   0.139513 0.749995 0.778516 -0.006444
C70   C     C_1   0.860664 0.250282 0.221456 -0.026914
C71   C     C_1   0.860498 0.749984 0.221485 -0.006233
C72   C     C_1   0.139314 0.250290 0.778540 -0.026974
C73   C     C_1   0.639508 0.249990 0.778515 -0.006263
C74   C     C_1   0.360670 0.750284 0.221457 -0.027045
C75   C     C_1   0.360476 0.250007 0.221481 -0.006570
C76   C     C_1   0.639342 0.750278 0.778545 -0.026993
C77   C     C_3   0.239883 0.701174 0.974744 -0.238490
C78   C     C_3   0.761058 0.299442 0.025217 -0.229922
C79   C     C_3   0.761535 0.701107 0.025266 -0.238061
C80   C     C_3   0.241282 0.299323 0.974784 -0.229992
C81   C     C_3   0.739170 0.201136 0.974739 -0.238226
C82   C     C_3   0.260376 0.799420 0.025216 -0.230097
C83   C     C_3   0.258381 0.201307 0.025244 -0.238806
C84   C     C_3   0.738271 0.799452 0.974783 -0.229949
C85   C     C_3   0.213232 0.750311 0.926284 0.002670
C86   C     C_3   0.787009 0.250270 0.073670 0.003370
C87   C     C_3   0.786795 0.750291 0.073719 0.002493
C88   C     C_3   0.212928 0.250294 0.926323 0.003800
C89   C     C_3   0.713220 0.250302 0.926283 0.002449
C90   C     C_3   0.287026 0.750277 0.073672 0.003647
C91   C     C_3   0.286738 0.250330 0.073711 0.002676
C92   C     C_3   0.713009 0.750261 0.926332 0.003349
C93   C     C_1   0.172876 0.750124 0.845259 0.099652
C94   C     C_1   0.827347 0.250323 0.154706 0.098790
C95   C     C_1   0.827144 0.750106 0.154744 0.099921
C96   C     C_1   0.172609 0.250338 0.845289 0.098751
C97   C     C_1   0.672867 0.250115 0.845257 0.099924
C98   C     C_1   0.327359 0.750327 0.154707 0.098625
C99   C     C_1   0.327104 0.250143 0.154738 0.099554
C100  C     C_1   0.672666 0.750318 0.845295 0.098688
C101  C     C_R   0.730775 0.708746 0.372415 0.298113
C102  C     C_R   0.241739 0.334089 0.571127 0.264771
C103  C     C_R   0.269226 0.708754 0.627585 0.298033
C104  C     C_R   0.758322 0.334128 0.428970 0.264695
C105  C     C_R   0.230773 0.208757 0.372411 0.298002
C106  C     C_R   0.741725 0.834098 0.571103 0.264748
C107  C     C_R   0.769222 0.208730 0.627583 0.298162
C108  C     C_R   0.258249 0.834083 0.428856 0.264791
C109  C     C_R   0.686975 0.668008 0.334243 -0.228475
C110  C     C_R   0.297767 0.355368 0.634728 -0.265550
C111  C     C_R   0.313031 0.668021 0.665766 -0.228526
C112  C     C_R   0.702306 0.355429 0.365379 -0.265543
C113  C     C_R   0.186967 0.168024 0.334230 -0.228482
C114  C     C_R   0.797750 0.855382 0.634702 -0.265645
C115  C     C_R   0.813013 0.167984 0.665739 -0.228374
C116  C     C_R   0.202220 0.855362 0.365257 -0.265641
C117  C     C_R   0.660430 0.643770 0.366425 0.201259
C118  C     C_R   0.355881 0.329548 0.667387 0.171957
C119  C     C_R   0.339579 0.643780 0.633589 0.200993
C120  C     C_R   0.644184 0.329617 0.332695 0.172100
C121  C     C_R   0.160420 0.143783 0.366407 0.201070
C122  C     C_R   0.855866 0.829563 0.667367 0.171992
C123  C     C_R   0.839552 0.143751 0.633547 0.201466
C124  C     C_R   0.144106 0.829542 0.332602 0.171911
C125  C     C_R   0.669580 0.665642 0.430270 0.250161
C126  C     C_R   0.360003 0.288536 0.628678 0.237447
C127  C     C_R   0.330424 0.665645 0.569738 0.250124
C128  C     C_R   0.640041 0.288596 0.371373 0.237105
C129  C     C_R   0.169575 0.165647 0.430258 0.250146
C130  C     C_R   0.859992 0.788549 0.628666 0.237313
C131  C     C_R   0.830409 0.165636 0.569713 0.250200
C132  C     C_R   0.139987 0.788528 0.371312 0.237512
C133  C     C_R   0.703522 0.712708 0.458321 -0.095201
C134  C     C_R   0.304817 0.274275 0.557915 -0.093632
C135  C     C_R   0.296476 0.712707 0.541675 -0.095236
C136  C     C_R   0.695213 0.274313 0.442130 -0.093655
C137  C     C_R   0.203522 0.212709 0.458320 -0.095150
C138  C     C_R   0.804809 0.774284 0.557904 -0.093647
C139  C     C_R   0.796480 0.212708 0.541682 -0.095087
C140  C     C_R   0.195176 0.774268 0.442075 -0.093635
C141  C     C_R   0.746627 0.724234 0.442684 -0.038374
C142  C     C_R   0.246188 0.286846 0.542239 -0.054229
C143  C     C_R   0.253370 0.724235 0.557311 -0.038363
C144  C     C_R   0.753849 0.286877 0.457822 -0.054201
C145  C     C_R   0.246628 0.224237 0.442684 -0.038374
C146  C     C_R   0.746179 0.786853 0.542224 -0.054250
C147  C     C_R   0.753375 0.224232 0.557322 -0.038384
C148  C     C_R   0.253804 0.786840 0.457748 -0.054267
C149  C     C_R   0.696713 0.750006 0.500178 -0.035743
C150  C     C_R   0.303619 0.249434 0.500083 -0.031257
C151  C     C_R   0.303280 0.750001 0.499810 -0.035770
C152  C     C_R   0.696392 0.249445 0.499935 -0.031324
C153  C     C_R   0.196717 0.250003 0.500183 -0.035740
C154  C     C_R   0.803616 0.749436 0.500078 -0.031245
C155  C     C_R   0.803298 0.250014 0.499841 -0.035698
C156  C     C_R   0.196378 0.749430 0.499912 -0.031212
C157  C     C_R   0.883069 0.945832 0.392622 -0.178895
C158  C     C_R   0.116566 0.054003 0.609365 -0.155295
C159  C     C_R   0.116931 0.945831 0.607376 -0.178998
C160  C     C_R   0.883436 0.054003 0.390629 -0.155221
C161  C     C_R   0.383069 0.445832 0.392623 -0.179038
C162  C     C_R   0.616564 0.554002 0.609370 -0.155204
C163  C     C_R   0.616932 0.445831 0.607374 -0.178909
C164  C     C_R   0.383434 0.554003 0.390633 -0.155259
C165  C     C_R   0.827984 0.973019 0.338922 0.228520
C166  C     C_R   0.171893 0.026517 0.661883 0.228362
C167  C     C_R   0.172018 0.973018 0.661072 0.228439
C168  C     C_R   0.828110 0.026518 0.338108 0.228508
C169  C     C_R   0.327983 0.473019 0.338926 0.228332
C170  C     C_R   0.671890 0.526517 0.661891 0.228569
C171  C     C_R   0.672016 0.473018 0.661076 0.228429
C172  C     C_R   0.328108 0.526518 0.338114 0.228447
C173  C     C_R   0.942008 0.027479 0.445762 0.011180
C174  C     C_R   0.058111 0.972516 0.553662 0.001644
C175  C     C_R   0.057993 0.027478 0.554235 0.011135
C176  C     C_R   0.941890 0.972517 0.446336 0.001701
C177  C     C_R   0.442007 0.527479 0.445764 0.011143
C178  C     C_R   0.558110 0.472516 0.553662 0.001702
C179  C     C_R   0.557992 0.527478 0.554237 0.011179
C180  C     C_R   0.441890 0.472517 0.446337 0.001644
C181  C     C_R   0.000000 0.053968 0.500000 -0.031266
C182  C     C_R   0.000000 0.946056 0.500000 -0.048119
C183  C     C_R   0.500000 0.553968 0.500000 -0.031253
C184  C     C_R   0.500000 0.446056 0.499999 -0.048149
N1    N     N_R   0.229939 0.945957 0.714463 0.245942
O53   O     O_R   0.231969 0.912340 0.759165 -0.315680
O54   O     O_R   0.281239 0.956133 0.720083 -0.246532
N2    N     N_R   0.771117 0.053270 0.281535 0.231635
O55   O     O_R   0.743777 0.084662 0.299946 -0.264504
O56   O     O_R   0.744512 0.043937 0.211505 -0.289624
N3    N     N_R   0.770064 0.945957 0.285529 0.245906
O57   O     O_R   0.768038 0.912338 0.240832 -0.315187
O58   O     O_R   0.718761 0.956135 0.279902 -0.246561
N4    N     N_R   0.228887 0.053270 0.718452 0.231585
O59   O     O_R   0.256224 0.084661 0.700035 -0.264427
O60   O     O_R   0.255497 0.043938 0.788484 -0.290315
N5    N     N_R   0.729936 0.445956 0.714468 0.245943
O61   O     O_R   0.731962 0.412334 0.759162 -0.315166
O62   O     O_R   0.781240 0.456136 0.720097 -0.246379
N6    N     N_R   0.271113 0.553271 0.281545 0.231602
O63   O     O_R   0.243776 0.584662 0.299960 -0.264615
O64   O     O_R   0.244504 0.543939 0.211513 -0.290135
N7    N     N_R   0.270062 0.445958 0.285535 0.245992
O65   O     O_R   0.268033 0.412341 0.240833 -0.315807
O66   O     O_R   0.218761 0.456134 0.279913 -0.246362
N8    N     N_R   0.728883 0.553269 0.718464 0.231633
O67   O     O_R   0.756224 0.584661 0.700054 -0.264675
O68   O     O_R   0.755487 0.543935 0.788494 -0.289572
C185  C     C_1   0.874556 0.890431 0.391116 0.298776
N9    N     N_1   0.867137 0.846310 0.389189 -0.146628
C186  C     C_1   0.123538 0.109608 0.617333 0.340775
N10   N     N_1   0.130150 0.153858 0.624548 -0.184401
C187  C     C_1   0.125443 0.890430 0.608886 0.298702
N11   N     N_1   0.132860 0.846308 0.610818 -0.146646
C188  C     C_1   0.876464 0.109609 0.382661 0.341188
N12   N     N_1   0.869852 0.153858 0.375445 -0.184269
C189  C     C_1   0.374557 0.390431 0.391113 0.298618
N13   N     N_1   0.367140 0.346309 0.389182 -0.146657
C190  C     C_1   0.623536 0.609608 0.617339 0.341272
N14   N     N_1   0.630149 0.653857 0.624555 -0.184266
C191  C     C_1   0.625446 0.390431 0.608875 0.298728
N15   N     N_1   0.632866 0.346310 0.610799 -0.146642
C192  C     C_1   0.376463 0.609609 0.382665 0.341004
N16   N     N_1   0.369850 0.653858 0.375450 -0.184348
N17   N     N_R   0.868945 0.581204 0.465334 0.241223
O69   O     O_R   0.908597 0.585192 0.537390 -0.340192
O70   O     O_R   0.815332 0.605715 0.431084 -0.381360
N18   N     N_R   0.091877 0.414917 0.666593 0.215816
O71   O     O_R   0.035978 0.409397 0.651428 -0.361376
O72   O     O_R   0.139098 0.389154 0.721972 -0.365552
N19   N     N_R   0.131052 0.581208 0.534656 0.241220
O73   O     O_R   0.091397 0.585199 0.462601 -0.340220
O74   O     O_R   0.184665 0.605720 0.568905 -0.381348
N20   N     N_R   0.908132 0.414916 0.333406 0.215768
O75   O     O_R   0.964033 0.409394 0.348577 -0.361731
O76   O     O_R   0.860912 0.389153 0.278025 -0.365136
N21   N     N_R   0.368955 0.081210 0.465362 0.241221
O77   O     O_R   0.408615 0.085202 0.537416 -0.340204
O78   O     O_R   0.315342 0.105723 0.431118 -0.381409
N22   N     N_R   0.591887 0.914919 0.666595 0.215753
O79   O     O_R   0.535990 0.909397 0.651435 -0.361874
O80   O     O_R   0.639111 0.889157 0.721972 -0.365055
N23   N     N_R   0.631041 0.081206 0.534633 0.241224
O81   O     O_R   0.591379 0.085197 0.462579 -0.340186
O82   O     O_R   0.684655 0.105715 0.568873 -0.381441
N24   N     N_R   0.408110 0.914921 0.333406 0.215756
O83   O     O_R   0.464007 0.909401 0.348564 -0.361692
O84   O     O_R   0.360887 0.889158 0.278030 -0.365381
N25   N     N_R   0.136155 0.796316 0.950532 0.236914
O85   O     O_R   0.127623 0.813009 0.999003 -0.288870
O86   O     O_R   0.091259 0.801653 0.879879 -0.271163
N26   N     N_R   0.863414 0.202995 0.049368 0.232175
O87   O     O_R   0.871601 0.185721 0.000854 -0.309076
O88   O     O_R   0.908402 0.197780 0.120017 -0.327894
N27   N     N_R   0.862553 0.798835 0.049486 0.237158
O89   O     O_R   0.870593 0.816492 0.001020 -0.288951
O90   O     O_R   0.907324 0.804376 0.120142 -0.271518
N28   N     N_R   0.134334 0.207481 0.950631 0.232160
O91   O     O_R   0.125344 0.191849 0.999146 -0.308866
O92   O     O_R   0.089103 0.202740 0.879981 -0.328933
N29   N     N_R   0.636797 0.297590 0.950522 0.237174
O93   O     O_R   0.628509 0.314770 0.998990 -0.288419
O94   O     O_R   0.591965 0.303032 0.879868 -0.271174
N30   N     N_R   0.364092 0.704290 0.049369 0.231983
O95   O     O_R   0.372522 0.687491 0.000856 -0.309681
O96   O     O_R   0.409152 0.699210 0.120019 -0.328507
N31   N     N_R   0.365333 0.293170 0.049438 0.236841
O97   O     O_R   0.374420 0.308670 0.000957 -0.288126
O98   O     O_R   0.410389 0.298226 0.120086 -0.270550
N32   N     N_R   0.637274 0.701727 0.950635 0.232038
O99   O     O_R   0.629334 0.683989 0.999150 -0.309672
O100  O     O_R   0.592359 0.696379 0.879986 -0.327825
N33   N     N_R   0.910204 0.844995 0.739330 0.254023
O101  O     O_R   0.934369 0.890718 0.749141 -0.286962
O102  O     O_R   0.933416 0.814315 0.796064 -0.235797
N34   N     N_R   0.123192 0.098034 0.333070 0.251596
O103  O     O_R   0.062136 0.100080 0.297862 -0.274801
O104  O     O_R   0.148494 0.057027 0.327156 -0.323693
N35   N     N_R   0.089759 0.844979 0.260647 0.254182
O105  O     O_R   0.065596 0.890701 0.250852 -0.285925
O106  O     O_R   0.066527 0.814301 0.203908 -0.236430
N36   N     N_R   0.876756 0.097988 0.666849 0.251564
O107  O     O_R   0.937813 0.100015 0.702062 -0.276189
O108  O     O_R   0.851432 0.056981 0.672728 -0.323855
N37   N     N_R   0.410224 0.344980 0.739347 0.254063
O109  O     O_R   0.434388 0.390703 0.749154 -0.286291
O110  O     O_R   0.433445 0.314298 0.796081 -0.235540
N38   N     N_R   0.623210 0.598017 0.333101 0.251569
O111  O     O_R   0.562153 0.600057 0.297889 -0.275487
O112  O     O_R   0.648519 0.557009 0.327201 -0.323731
N39   N     N_R   0.589858 0.345056 0.260728 0.253741
O113  O     O_R   0.565695 0.390780 0.250915 -0.287833
O114  O     O_R   0.566666 0.314383 0.203990 -0.234535
N40   N     N_R   0.376807 0.598032 0.666926 0.251600
O115  O     O_R   0.437863 0.600078 0.702138 -0.274587
O116  O     O_R   0.351505 0.557024 0.672838 -0.323603
N41   N     N_R   0.749531 0.739962 0.335038 0.216431
O117  O     O_R   0.751845 0.789847 0.342126 -0.357041
O118  O     O_R   0.761266 0.719405 0.291146 -0.362117
N42   N     N_R   0.184101 0.363910 0.528994 0.233361
O119  O     O_R   0.147469 0.361425 0.456636 -0.337104
O120  O     O_R   0.167852 0.393738 0.561983 -0.381550
N43   N     N_R   0.250469 0.739976 0.664955 0.216446
O121  O     O_R   0.248152 0.789860 0.657859 -0.357054
O122  O     O_R   0.238736 0.719424 0.708852 -0.362018
N44   N     N_R   0.815978 0.363926 0.471123 0.233345
O123  O     O_R   0.852620 0.361404 0.543478 -0.336869
O124  O     O_R   0.832230 0.393776 0.438156 -0.381594
N45   N     N_R   0.249532 0.239978 0.335042 0.216607
O125  O     O_R   0.251848 0.289861 0.342137 -0.356774
O126  O     O_R   0.261265 0.219425 0.291146 -0.361828
N46   N     N_R   0.684083 0.863914 0.528966 0.233364
O127  O     O_R   0.647448 0.861420 0.456608 -0.337096
O128  O     O_R   0.667833 0.893748 0.561949 -0.381573
N47   N     N_R   0.750470 0.239939 0.664970 0.216587
O129  O     O_R   0.748159 0.289824 0.657896 -0.356750
O130  O     O_R   0.738734 0.219373 0.708856 -0.361991
N48   N     N_R   0.315885 0.863906 0.470986 0.233369
O131  O     O_R   0.352516 0.861427 0.543345 -0.337234
O132  O     O_R   0.332135 0.893731 0.437995 -0.381537
C193  C     C_1   0.668738 0.650726 0.262318 0.435045
N49   N     N_1   0.654072 0.636801 0.204780 -0.076552
C194  C     C_1   0.296341 0.402586 0.668151 0.456697
N50   N     N_1   0.295647 0.440407 0.695163 -0.111356
C195  C     C_1   0.331272 0.650747 0.737696 0.435001
N51   N     N_1   0.345941 0.636829 0.795238 -0.077039
C196  C     C_1   0.703750 0.402655 0.331987 0.456916
N52   N     N_1   0.704456 0.440485 0.304998 -0.111149
C197  C     C_1   0.168723 0.150753 0.262298 0.435538
N53   N     N_1   0.154052 0.136837 0.204754 -0.077295
C198  C     C_1   0.796320 0.902601 0.668119 0.456879
N54   N     N_1   0.795624 0.940425 0.695125 -0.111114
C199  C     C_1   0.831246 0.150688 0.737657 0.435545
N55   N     N_1   0.845909 0.136752 0.795190 -0.076504
C200  C     C_1   0.203643 0.902580 0.331833 0.456757
N56   N     N_1   0.204335 0.940403 0.304821 -0.111279
N57   N     N_R   0.657474 0.635719 0.475202 0.232472
O133  O     O_R   0.611406 0.602542 0.445601 -0.306757
O134  O     O_R   0.695689 0.639385 0.547378 -0.350696
N58   N     N_R   0.416455 0.257455 0.664773 0.235405
O135  O     O_R   0.472207 0.278019 0.709899 -0.278485
O136  O     O_R   0.412160 0.207932 0.653419 -0.337717
N59   N     N_R   0.342534 0.635717 0.524813 0.232496
O137  O     O_R   0.388605 0.602543 0.554422 -0.306633
O138  O     O_R   0.304320 0.639377 0.452636 -0.350648
N60   N     N_R   0.583580 0.257529 0.335245 0.235749
O139  O     O_R   0.527837 0.278121 0.290187 -0.277698
O140  O     O_R   0.587854 0.207997 0.346531 -0.337276
N61   N     N_R   0.157466 0.135718 0.475184 0.232481
O141  O     O_R   0.111396 0.102544 0.445577 -0.306632
O142  O     O_R   0.195681 0.139378 0.547361 -0.350596
N62   N     N_R   0.916446 0.757471 0.664768 0.235464
O143  O     O_R   0.972196 0.778042 0.709876 -0.278279
O144  O     O_R   0.912155 0.707946 0.653430 -0.337699
N63   N     N_R   0.842509 0.135721 0.524769 0.232434
O145  O     O_R   0.888572 0.102541 0.554358 -0.306789
O146  O     O_R   0.804292 0.139399 0.452594 -0.350666
N64   N     N_R   0.083536 0.757446 0.335222 0.235283
O147  O     O_R   0.027782 0.778005 0.290081 -0.278741
O148  O     O_R   0.087834 0.707924 0.346588 -0.337941

loop_
_geom_bond_atom_site_label_1
_geom_bond_atom_site_label_2
_geom_bond_distance
_ccdc_geom_bond_type
C56   C68   1.539011 S    
C200  N56   1.157108 T    
C68   C92   1.528973 S    
C57   C61   1.539004 S    
C54   H10   1.110153 S    
Zn8   O10   1.910405 S    
C199  N55   1.157421 T    
Zn6   O42   1.957732 S    
C60   C64   1.539038 S    
C79   C87   1.545065 S    
C38   C39   1.393315 A    
C185  N9    1.157800 T    
C54   C82   1.560959 S    
C59   C63   1.539021 S    
C145  C150  1.425963 A    
C78   C86   1.545182 S    
C157  C176  1.450758 A    
C158  C175  1.451703 A    
O42   C14   1.277903 A    
C65   N29   1.457240 S    
C103  C111  1.415254 A    
C63   N27   1.457257 S    
C101  C109  1.415257 A    
C17   C182  1.454676 S    
O46   C2    1.282983 A    
C172  N6    1.440016 S    
O24   C18   1.277905 A    
C34   C35   1.393313 A    
C122  C130  1.413784 A    
N45   O126  1.300831 A    
C105  C145  1.420235 A    
C157  C185  1.452099 S    
C8    C74   1.424426 S    
N20   O75   1.301733 A    
C104  C112  1.416637 A    
Zn16  O28   1.939073 S    
C53   H9    1.110141 S    
C138  C154  1.424825 A    
C121  N34   1.433572 S    
Zn4   O2    1.941863 S    
C114  C122  1.409250 A    
C108  C116  1.416644 A    
Zn4   O40   1.957736 S    
C53   C81   1.560778 S    
C102  C142  1.421189 A    
O11   C7    1.283019 A    
Zn7   O43   1.957734 S    
N34   O103  1.300993 A    
N29   O94   1.300217 A    
O25   C19   1.277983 A    
N19   O73   1.301824 A    
C11   C154  1.472619 S    
N42   O120  1.300595 A    
H3    C33   1.082684 S    
C2    C72   1.424399 S    
N23   O82   1.300711 A    
C120  C128  1.413764 A    
Zn12  O24   1.939073 S    
N40   O116  1.301019 A    
C124  C132  1.413799 A    
Zn13  O17   1.954425 S    
C54   C85   1.545083 S    
O16   C12   1.277563 A    
Zn10  O14   1.954427 S    
C186  N10   1.158123 T    
C136  C152  1.424831 A    
Zn16  O4    1.948271 S    
C112  C120  1.409238 A    
C7    C73   1.424167 S    
N22   O79   1.301733 A    
O30   C22   1.274060 A    
N58   O135  1.300675 A    
C66   C90   1.528970 S    
C163  C171  1.403285 A    
Zn7   O3    1.941866 S    
C164  C172  1.404414 A    
N41   O117  1.301074 A    
N8    O67   1.301199 A    
O23   C17   1.277985 A    
C137  C145  1.397406 A    
N39   O113  1.300976 A    
Zn8   O34   1.938468 S    
C55   C67   1.538982 S    
C160  C168  1.404412 A    
C83   C91   1.545082 S    
C28   C41   1.424510 A    
C53   C86   1.545179 S    
C161  C169  1.403286 A    
C84   C92   1.545192 S    
C175  C181  1.438432 A    
C3    C69   1.424176 S    
C139  C155  1.426837 A    
O43   C15   1.275940 A    
C72   C96   1.199333 T    
C129  N61   1.443068 S    
C125  N57   1.443067 S    
C75   C99   1.199231 T    
C164  C177  1.451705 A    
C29   N21   1.440308 S    
C76   C100  1.199363 T    
Zn10  O22   1.939076 S    
C117  C125  1.414476 A    
N6    O64   1.301219 A    
N33   O101  1.300977 A    
N4    O60   1.301218 A    
Zn10  O2    1.948261 S    
C60   C91   1.545098 S    
C64   C88   1.528964 S    
Zn3   O1    1.941866 S    
C65   C89   1.528939 S    
N28   O91   1.300284 A    
C63   C87   1.528931 S    
N23   O81   1.301825 A    
C86   C94   1.456073 S    
C53   C65   1.539013 S    
C176  C182  1.437127 A    
N31   O97   1.300245 A    
Zn5   O35   1.938471 S    
C90   C98   1.456062 S    
C31   C46   1.422872 A    
Zn6   O36   1.938471 S    
C25   C33   1.403196 A    
C126  C134  1.420045 A    
C26   C43   1.424510 A    
N38   O111  1.300991 A    
N59   O138  1.301257 A    
N64   O148  1.301679 A    
C66   N30   1.457194 S    
C197  N53   1.157423 T    
C196  N52   1.157105 T    
C131  N63   1.443064 S    
C82   C90   1.545174 S    
C124  N35   1.434463 S    
N45   O125  1.301077 A    
O51   C7    1.282674 A    
N7    O66   1.301280 A    
N57   O133  1.300443 A    
C15   C150  1.472614 S    
O22   C18   1.277912 A    
Zn9   O45   1.906988 S    
C13   C152  1.472646 S    
C29   C37   1.403202 A    
C67   C80   1.539028 S    
Zn11  O47   1.906987 S    
C142  C153  1.426560 A    
Zn12  O48   1.906986 S    
C134  C150  1.424826 A    
C108  N48   1.443359 S    
N32   O99   1.300244 A    
C161  C180  1.450758 A    
O50   C6    1.283025 A    
C162  C179  1.451703 A    
Zn1   O37   1.957735 S    
N36   O107  1.300992 A    
C67   N31   1.457176 S    
Zn5   O11   1.910408 S    
Zn3   O39   1.957734 S    
Zn6   O12   1.910408 S    
H17   C78   1.110141 S    
C55   H11   1.110148 S    
C106  C146  1.421190 A    
H21   C82   1.110139 S    
C159  C167  1.403285 A    
O32   C22   1.274067 A    
N1    O53   1.301426 A    
C171  N5    1.440608 S    
C111  C119  1.408684 A    
C63   C84   1.539073 S    
C89   C97   1.455873 S    
C77   C85   1.545076 S    
N25   O86   1.300207 A    
Zn14  O50   1.906990 S    
C18   C181  1.454209 S    
H8    C38   1.082380 S    
N2    O55   1.301199 A    
C28   C36   1.403920 A    
C61   N25   1.457222 S    
N2    O56   1.301218 A    
O5    C1    1.283013 A    
N62   O143  1.300668 A    
C140  C156  1.424827 A    
N18   O72   1.301559 A    
Zn4   O6    1.910405 S    
C47   C51   1.422969 A    
C159  C187  1.452097 S    
Zn15  O51   1.906987 S    
N30   O96   1.300291 A    
N5    O61   1.301422 A    
C64   N28   1.457176 S    
N48   O131  1.301714 A    
C173  C181  1.438432 A    
N24   O84   1.301559 A    
H23   C84   1.110144 S    
C169  N7    1.440608 S    
H24   C83   1.110118 S    
N44   O124  1.300594 A    
C167  N1    1.440606 S    
H5    C39   1.082686 S    
C24   C51   1.455086 S    
C143  C156  1.425965 A    
C122  N33   1.434451 S    
O8    C4    1.282938 A    
Zn9   O1    1.948262 S    
C160  C188  1.452035 S    
C25   C44   1.422875 A    
C107  C147  1.420234 A    
Zn14  O18   1.954427 S    
C169  C172  1.388353 A    
C55   C88   1.545161 S    
C170  C171  1.388355 A    
O52   C8    1.283007 A    
C119  C127  1.414476 A    
Zn1   O1    1.941860 S    
O40   C12   1.277910 A    
C165  C168  1.388354 A    
C166  C167  1.388356 A    
Zn15  O27   1.939072 S    
Zn16  O20   1.954424 S    
Zn2   O8    1.910408 S    
C114  C198  1.445836 S    
H2    C36   1.082379 S    
C14   C151  1.475946 S    
O9    C5    1.283032 A    
N47   O130  1.300833 A    
C54   C66   1.539023 S    
N37   O110  1.300955 A    
C138  C146  1.397702 A    
C113  C121  1.408683 A    
O13   C9    1.277623 A    
N26   O87   1.300254 A    
C130  C138  1.420028 A    
C58   C78   1.560956 S    
N3    O57   1.301423 A    
C165  N3    1.440605 S    
C4    C70   1.424436 S    
N20   O76   1.301560 A    
O18   C14   1.277570 A    
C41   C49   1.422965 A    
O6    C2    1.282951 A    
C125  C133  1.419636 A    
C163  C178  1.450759 A    
C127  N59   1.443067 S    
C193  N49   1.157421 T    
C105  C113  1.415254 A    
C32   C45   1.424510 A    
C5    C75   1.424202 S    
C62   N26   1.457204 S    
C6    C76   1.424447 S    
N29   O93   1.300216 A    
Zn15  O3    1.948267 S    
C146  C149  1.426546 A    
C20   C183  1.454209 S    
O33   C23   1.276125 A    
C45   C51   1.422974 A    
C44   C50   1.425440 A    
N61   O142  1.301259 A    
C87   C95   1.455863 S    
C30   N22   1.440090 S    
N35   O105  1.300977 A    
C102  C110  1.416639 A    
C85   C93   1.455882 S    
C128  C136  1.419996 A    
C119  N40   1.433571 S    
C27   C35   1.403202 A    
C56   C84   1.560948 S    
N17   O70   1.300711 A    
C57   C77   1.560781 S    
N60   O139  1.300650 A    
C69   C93   1.199217 T    
C88   C96   1.456034 S    
O35   C23   1.276134 A    
C121  C129  1.414476 A    
H19   C80   1.110134 S    
C60   C80   1.560972 S    
C73   C97   1.199210 T    
C92   C100  1.456085 S    
C16   C149  1.475924 S    
C59   C79   1.560781 S    
O29   C21   1.276132 A    
C48   C52   1.425441 A    
C80   C88   1.545151 S    
N58   O136  1.301677 A    
C81   C89   1.545071 S    
C192  N16   1.158125 T    
C103  C143  1.420237 A    
C162  C190  1.452036 S    
Zn10  O46   1.906990 S    
N8    O68   1.301218 A    
C101  C141  1.420236 A    
C131  C139  1.419630 A    
C25   N17   1.440306 S    
C21   C50   1.462346 S    
N43   O122  1.300831 A    
C106  N46   1.443365 S    
C23   C52   1.462341 S    
Zn13  O3    1.948262 S    
C188  N12   1.158123 T    
Zn14  O4    1.948261 S    
C132  N64   1.441382 S    
C107  C115  1.415259 A    
C31   N23   1.440306 S    
Zn2   O38   1.957732 S    
C41   C44   1.396366 A    
N27   O89   1.300208 A    
O19   C15   1.277628 A    
Zn1   O31   1.938471 S    
Zn4   O30   1.938468 S    
C104  C144  1.421192 A    
Zn2   O32   1.938471 S    
N25   O85   1.300227 A    
H4    C34   1.082378 S    
Zn3   O29   1.938468 S    
C148  C151  1.426572 A    
N63   O145  1.300443 A    
C29   C48   1.422881 A    
C123  C131  1.414476 A    
C67   C91   1.528948 S    
C32   N24   1.440092 S    
C108  C148  1.421191 A    
O7    C3    1.283024 A    
O39   C11   1.275938 A    
H22   C81   1.110127 S    
C68   C79   1.538910 S    
C180  C184  1.437126 A    
C62   C81   1.538912 S    
C115  C123  1.408684 A    
C128  N60   1.441310 S    
N28   O92   1.300291 A    
H1    C35   1.082686 S    
C66   C77   1.538917 S    
C43   C49   1.422972 A    
C26   C34   1.403917 A    
C27   C42   1.422880 A    
C117  N38   1.433570 S    
O12   C8    1.282941 A    
N7    O65   1.301425 A    
C105  N45   1.440916 S    
N38   O112  1.301018 A    
O21   C17   1.277984 A    
Zn11  O1    1.948267 S    
C101  N41   1.440917 S    
C157  C165  1.403284 A    
N42   O119  1.301715 A    
C134  C142  1.397707 A    
H7    C37   1.082685 S    
N43   O121  1.301075 A    
Zn5   O3    1.941860 S    
Zn6   O4    1.941861 S    
C12   C153  1.475937 S    
Zn7   O9    1.910405 S    
Zn5   O41   1.957735 S    
C9    C156  1.472603 S    
C133  C141  1.397408 A    
C32   C40   1.403918 A    
N33   O102  1.300952 A    
N40   O115  1.300992 A    
C61   C82   1.539054 S    
Zn8   O44   1.957736 S    
C191  N15   1.157802 T    
N32   O100  1.300291 A    
C110  C194  1.445840 S    
C174  C182  1.437128 A    
C64   C83   1.538921 S    
C59   H15   1.110138 S    
C55   C83   1.560779 S    
C65   C78   1.539065 S    
C22   C49   1.455078 S    
C130  N62   1.441350 S    
C31   C39   1.403199 A    
C46   C52   1.425437 A    
N36   O108  1.301018 A    
C113  C197  1.446637 S    
C126  N58   1.441367 S    
H18   C77   1.110122 S    
C187  N11   1.157800 T    
C177  C180  1.426248 A    
C129  C137  1.419635 A    
N41   O118  1.300832 A    
C178  C179  1.426246 A    
C127  C135  1.419637 A    
C60   H16   1.110157 S    
C107  N47   1.440919 S    
O38   C10   1.277921 A    
C26   N18   1.440093 S    
C190  N14   1.158122 T    
C104  N44   1.443373 S    
N3    O58   1.301285 A    
C103  N43   1.440916 S    
N21   O77   1.301825 A    
O37   C9    1.275932 A    
N63   O146  1.301258 A    
C195  N51   1.157422 T    
Zn13  O49   1.906988 S    
C189  N13   1.157803 T    
C179  C183  1.438431 A    
Zn8   O4    1.941863 S    
C27   N19   1.440307 S    
C30   C38   1.403922 A    
C71   C95   1.199207 T    
N6    O63   1.301199 A    
N46   O128  1.300595 A    
C132  C140  1.420058 A    
C135  C151  1.426831 A    
N4    O59   1.301202 A    
C168  N2    1.440015 S    
C141  C154  1.425970 A    
C158  C186  1.452037 S    
C58   H14   1.110149 S    
C139  C147  1.397415 A    
O49   C5    1.282679 A    
N62   O144  1.301679 A    
C133  C149  1.426836 A    
C42   C43   1.396368 A    
C45   C48   1.396370 A    
O10   C6    1.282932 A    
N35   O106  1.300957 A    
C30   C47   1.424510 A    
N47   O129  1.301075 A    
C147  C152  1.425971 A    
Zn16  O52   1.906986 S    
N48   O132  1.300595 A    
Zn9   O13   1.954425 S    
Zn14  O26   1.939076 S    
C37   C40   1.393312 A    
N64   O147  1.300681 A    
Zn11  O15   1.954426 S    
C116  C124  1.409257 A    
Zn12  O16   1.954424 S    
O31   C21   1.276129 A    
C144  C155  1.426510 A    
C59   C92   1.545182 S    
C110  C118  1.409255 A    
C102  N42   1.443365 S    
Zn15  O19   1.954426 S    
C163  C191  1.452096 S    
N57   O134  1.301259 A    
C109  C117  1.408682 A    
C177  C183  1.438431 A    
C161  C189  1.452095 S    
C56   H12   1.110152 S    
C178  C184  1.437124 A    
C57   H13   1.110141 S    
Zn7   O33   1.938468 S    
C33   C36   1.393314 A    
C198  N54   1.157106 T    
C70   C94   1.199357 T    
C74   C98   1.199350 T    
N19   O74   1.300714 A    
N39   O114  1.300950 A    
N34   O104  1.301019 A    
C106  C114  1.416640 A    
N27   O90   1.300229 A    
C164  C192  1.452034 S    
C160  C173  1.451703 A    
C118  N37   1.434458 S    
H6    C40   1.082379 S    
C194  N50   1.157106 T    
C68   N32   1.457211 S    
C111  C195  1.446639 S    
C115  C199  1.446640 S    
C120  N39   1.434436 S    
Zn9   O21   1.939077 S    
C10   C155  1.475896 S    
N21   O78   1.300716 A    
N31   O98   1.300181 A    
Zn11  O23   1.939072 S    
C159  C174  1.450760 A    
C162  C170  1.404412 A    
N37   O109  1.300979 A    
O34   C24   1.274065 A    
N26   O88   1.300290 A    
Zn1   O7    1.910408 S    
N1    O54   1.301283 A    
C170  N8    1.440013 S    
O41   C13   1.275942 A    
Zn3   O5    1.910405 S    
O26   C20   1.277910 A    
C19   C184  1.454678 S    
C58   C89   1.545076 S    
C62   C86   1.528973 S    
C123  N36   1.433572 S    
O45   C1    1.282672 A    
N46   O127  1.301713 A    
C112  C196  1.445827 S    
C116  C200  1.445842 S    
N44   O123  1.301714 A    
C1    C71   1.424154 S    
O47   C3    1.282676 A    
Zn2   O2    1.941861 S    
C91   C99   1.455909 S    
C58   C62   1.539018 S    
O15   C11   1.277636 A    
C135  C143  1.397403 A    
H20   C79   1.110130 S    
C118  C126  1.413792 A    
C166  N4    1.440013 S    
O27   C19   1.277987 A    
N18   O71   1.301734 A    
C137  C153  1.426834 A    
O44   C16   1.277914 A    
N61   O141  1.300444 A    
C28   N20   1.440091 S    
O20   C16   1.277554 A    
N30   O95   1.300266 A    
N5    O62   1.301284 A    
O48   C4    1.283016 A    
N17   O69   1.301825 A    
C173  C176  1.426246 A    
N60   O140  1.301677 A    
C136  C144  1.397687 A    
O36   C24   1.274063 A    
C174  C175  1.426246 A    
C56   C87   1.545071 S    
N59   O137  1.300444 A    
O14   C10   1.277526 A    
C109  C193  1.446641 S    
C57   C90   1.545174 S    
N22   O80   1.301559 A    
C61   C85   1.528940 S    
N24   O83   1.301734 A    
Zn12  O2    1.948271 S    
C140  C148  1.397712 A    
Zn13  O25   1.939077 S    
C42   C50   1.425445 A    
C46   C47   1.396363 A    
O28   C20   1.277907 A    
O17   C13   1.277635 A    
C158  C166  1.404412 A    
