data_mof_unit_54256.cif
_audit_creation_date              2012-12-11T15:52:20-0500
_audit_creation_method            fapswitch 2.2
_symmetry_space_group_name_H-M    P1
_symmetry_Int_Tables_number       1
_space_group_crystal_system       triclinic
_cell_length_a                    11.265329
_cell_length_b                    11.370645
_cell_length_c                    18.772511
_cell_angle_alpha                 90.977242
_cell_angle_beta                  89.687333
_cell_angle_gamma                 120.415133
_cell_volume                      2073.40381979

loop_
_atom_site_label
_atom_site_type_symbol
_atom_type_description
_atom_site_fract_x
_atom_site_fract_y
_atom_site_fract_z
_atom_type_partial_charge
C1    C     C_R   0.538646 0.425213 0.139194 0.541004
C2    C     C_3   0.977172 0.728276 0.470500 0.011136
C3    C     C_3   0.730040 0.997387 0.456349 0.030793
C4    C     C_3   0.312992 0.261392 0.465286 0.027093
C5    C     C_R   0.515904 0.459358 0.351037 0.550092
C6    C     C_R   0.542491 0.059784 0.351717 0.561708
C7    C     C_R   0.934892 0.481580 0.354220 0.553630
C8    C     C_R   0.420789 0.544531 0.639039 0.586559
C9    C     C_R   0.060515 0.542509 0.647742 0.531343
C10   C     C_R   0.477367 0.927061 0.643912 0.550834
C11   C     C_R   0.514906 0.012861 0.918425 -0.017931
C12   C     C_R   0.573835 0.111008 0.139887 0.547983
C13   C     C_R   0.997530 0.502843 0.921629 0.008407
C14   C     C_R   0.507097 0.494463 0.917496 -0.000845
C15   C     C_R   0.978287 0.505101 0.071409 -0.007835
C16   C     C_R   0.556543 0.068185 0.065080 -0.014583
C17   C     C_R   0.514823 0.443864 0.064105 -0.003120
C18   C     C_R   0.407081 0.987114 0.963587 0.027534
C19   C     C_R   0.036247 0.427980 0.964456 -0.002087
C20   C     C_R   0.573963 0.600207 0.967417 -0.014553
C21   C     C_R   0.023422 0.426529 0.038075 -0.042064
C22   C     C_R   0.429754 0.016834 0.034827 0.010956
C23   C     C_R   0.932168 0.479654 0.145910 0.532593
C24   C     C_R   0.579911 0.574326 0.038231 -0.021339
C25   C     C_R   0.667207 0.081690 0.021871 0.151547
C26   C     C_R   0.954404 0.595043 0.029562 0.156769
C27   C     C_R   0.440847 0.334015 0.014075 0.135480
C28   C     C_R   0.941343 0.576252 0.954915 0.149276
C29   C     C_R   0.650534 0.076285 0.946973 0.141471
C30   C     C_R   0.459756 0.360290 0.940267 0.148598
C31   C     C_3   0.275331 0.858197 0.977103 -0.221002
C32   C     C_3   0.175155 0.442272 0.968679 -0.237654
C33   C     C_3   0.560953 0.721666 0.984568 -0.247064
C34   C     C_R   0.457943 0.520491 0.851616 0.530833
C35   C     C_3   0.163396 0.445474 0.048560 -0.297576
C36   C     C_3   0.303416 0.892355 0.055852 -0.267193
C37   C     C_3   0.561677 0.688893 0.062543 -0.275441
C38   C     C_R   0.493248 0.966744 0.569936 0.014341
C39   C     C_R   0.008016 0.513924 0.575840 0.002667
C40   C     C_R   0.445230 0.527701 0.564639 0.043955
C41   C     C_R   0.993404 0.507930 0.425701 0.001338
C42   C     C_R   0.517520 0.007431 0.423038 0.016258
C43   C     C_R   0.491364 0.491019 0.422416 -0.003063
C44   C     C_R   0.624009 0.034231 0.538260 0.003022
C45   C     C_R   0.062807 0.543704 0.851917 0.535594
C46   C     C_R   0.030111 0.626619 0.537989 0.039231
C47   C     C_R   0.435309 0.405171 0.542069 0.007495
C48   C     C_R   0.022542 0.624881 0.465623 -0.016974
C49   C     C_R   0.635025 0.052774 0.465158 0.069836
C50   C     C_R   0.452262 0.386051 0.470232 0.039191
C51   C     C_R   0.388933 0.919127 0.451528 -0.202926
C52   C     C_R   0.989775 0.401028 0.462834 -0.164418
C53   C     C_R   0.473646 0.600596 0.441446 -0.201704
C54   C     C_R   0.984911 0.398740 0.537438 -0.165100
C55   C     C_R   0.376890 0.902750 0.525232 -0.198874
C56   C     C_R   0.482718 0.939907 0.850959 0.536346
C57   C     C_R   0.444202 0.614992 0.512782 -0.166543
C58   C     C_3   0.894092 0.123928 0.061805 -0.305132
C59   C     C_3   0.893191 0.768369 0.064785 -0.297815
C60   C     C_3   0.209668 0.132441 0.000352 -0.307987
C61   C     C_3   0.803157 0.585125 0.855699 -0.300710
C62   C     C_3   0.849042 0.081835 0.884292 -0.260575
C63   C     C_3   0.426738 0.238176 0.822062 -0.285162
C64   C     C_3   0.789120 0.860440 0.612052 -0.279364
C65   C     C_3   0.059016 0.873054 0.661341 -0.245609
C66   C     C_3   0.099283 0.186483 0.618233 -0.287387
C67   C     C_3   0.734111 0.995648 0.536714 0.014743
C68   C     C_3   0.831128 0.775091 0.398119 -0.282589
C69   C     C_3   0.884332 0.066181 0.349955 -0.264386
C70   C     C_3   0.205292 0.063140 0.388435 -0.278584
C71   C     C_3   0.978814 0.722519 0.551352 0.041322
C72   C     C_3   0.303868 0.269851 0.544725 0.015916
Cr1   Cr    Cr6+3 0.769160 0.541570 0.250690 0.969965
Cr2   Cr    Cr6+3 0.458430 0.227590 0.250690 0.984691
Cr3   Cr    Cr6+3 0.772410 0.230840 0.250690 0.966080
Cr4   Cr    Cr6+3 0.541570 0.769160 0.749310 0.967598
Cr5   Cr    Cr6+3 0.227590 0.458430 0.749310 0.966957
Cr6   Cr    Cr6+3 0.230840 0.772410 0.749310 0.950245
H1    H     H_    0.278073 0.765390 0.960603 0.126712
H2    H     H_    0.235194 0.546651 0.072894 0.127786
H3    H     H_    0.323645 0.820262 0.085442 0.124496
H4    H     H_    0.462476 0.654553 0.090030 0.135710
H5    H     H_    0.298940 0.866256 0.417991 0.117181
H6    H     H_    0.984951 0.318648 0.433312 0.169322
H7    H     H_    0.480978 0.672333 0.402034 0.105955
H8    H     H_    0.963120 0.308673 0.565075 0.118491
H9    H     H_    0.278407 0.832736 0.547085 0.184589
H10   H     H_    0.428464 0.697808 0.528205 0.144123
H11   H     H_    0.829830 0.078946 0.561274 0.116374
H12   H     H_    0.256448 0.539710 0.946704 0.138215
H13   H     H_    0.875403 0.670765 0.576543 0.134076
H14   H     H_    0.318468 0.195626 0.576067 0.125919
H15   H     H_    0.057518 0.825178 0.448368 0.124231
H16   H     H_    0.674537 0.896140 0.429424 0.111815
H17   H     H_    0.242097 0.283686 0.434443 0.134032
H18   H     H_    0.707092 0.964599 0.089898 0.267708
H19   H     H_    0.907688 0.195315 0.105446 0.201249
H20   H     H_    0.944415 0.176005 0.012524 0.180246
H21   H     H_    0.943628 0.066614 0.079054 0.097784
H22   H     H_    0.052751 0.752183 0.103547 0.264165
H23   H     H_    0.463536 0.713066 0.966662 0.126890
H24   H     H_    0.814501 0.702332 0.103040 0.204988
H25   H     H_    0.848888 0.769235 0.012627 0.183075
H26   H     H_    0.943445 0.872994 0.087482 0.100244
H27   H     H_    0.335558 0.175043 0.088139 0.285455
H28   H     H_    0.145640 0.027110 0.019473 0.132325
H29   H     H_    0.218885 0.126621 0.941814 0.181037
H30   H     H_    0.154963 0.186568 0.013754 0.114321
H31   H     H_    0.969293 0.754358 0.907295 0.257156
H32   H     H_    0.750413 0.642120 0.843729 0.156631
H33   H     H_    0.727157 0.478626 0.869218 0.142716
H34   H     H_    0.161327 0.359011 0.075993 0.143940
H35   H     H_    0.856299 0.584275 0.806210 0.155855
H36   H     H_    0.752983 0.191368 0.858320 0.236598
H37   H     H_    0.959844 0.160137 0.888132 0.123881
H38   H     H_    0.829237 0.041982 0.828595 0.141656
H39   H     H_    0.828104 0.997881 0.920473 0.158754
H40   H     H_    0.558181 0.261049 0.904929 0.237397
H41   H     H_    0.438578 0.153640 0.799988 0.136479
H42   H     H_    0.493856 0.329662 0.790220 0.148919
H43   H     H_    0.316265 0.205755 0.816883 0.169058
H44   H     H_    0.680635 0.792884 0.522833 0.260534
H45   H     H_    0.238901 0.926027 0.083495 0.148461
H46   H     H_    0.751788 0.757344 0.632690 0.163806
H47   H     H_    0.810897 0.933228 0.657157 0.150491
H48   H     H_    0.881446 0.886546 0.581130 0.142831
H49   H     H_    0.122290 0.937667 0.556133 0.231674
H50   H     H_    0.034054 0.953257 0.669260 0.041897
H51   H     H_    0.154939 0.907486 0.691826 0.198700
H52   H     H_    0.972355 0.780978 0.685666 0.148000
H53   H     H_    0.135475 0.295961 0.525412 0.233668
H54   H     H_    0.032423 0.219610 0.644051 0.146911
H55   H     H_    0.161001 0.176738 0.661195 0.159082
H56   H     H_    0.651971 0.762008 0.093984 0.125067
H57   H     H_    0.036120 0.089905 0.589899 0.105218
H58   H     H_    0.774959 0.578094 0.436623 0.290788
H59   H     H_    0.723553 0.742566 0.385699 0.147288
H60   H     H_    0.887915 0.785524 0.347896 0.164861
H61   H     H_    0.876614 0.873792 0.426374 0.149375
H62   H     H_    0.946506 0.106563 0.456048 0.223100
H63   H     H_    0.971485 0.049226 0.343160 0.055382
H64   H     H_    0.911419 0.158403 0.319345 0.202880
H65   H     H_    0.793316 0.976134 0.325676 0.151059
H66   H     H_    0.318407 0.084756 0.478907 0.246764
H67   H     H_    0.186174 0.863672 0.956924 0.166094
H68   H     H_    0.213061 0.976801 0.366196 0.134882
H69   H     H_    0.209407 0.125488 0.342719 0.173027
H70   H     H_    0.106172 0.025405 0.416001 0.091776
H71   H     H_    0.174576 0.351280 0.946514 0.153349
H72   H     H_    0.654190 0.816047 0.968376 0.170105
N1    N     N_2   0.750766 0.031389 0.049033 -0.526849
N2    N     N_2   0.839621 0.681193 0.444961 -0.517721
N3    N     N_2   0.863492 0.087741 0.424725 -0.531040
N4    N     N_2   0.314822 0.142670 0.438846 -0.470619
N5    N     N_2   0.993669 0.726957 0.058262 -0.527242
N6    N     N_2   0.342849 0.198883 0.035461 -0.497968
N7    N     N_2   0.897625 0.652953 0.914507 -0.507089
N8    N     N_2   0.767516 0.144578 0.901280 -0.496810
N9    N     N_2   0.467920 0.260762 0.896176 -0.517459
N10   N     N_2   0.693195 0.860944 0.562749 -0.482358
N11   N     N_2   0.079681 0.850978 0.586383 -0.520585
N12   N     N_2   0.187019 0.282332 0.566126 -0.484030
O1    O     O_R   0.911480 0.572650 0.170990 -0.535811
O2    O     O_R   0.528970 0.640340 0.824320 -0.515670
O3    O     O_R   0.111370 0.471030 0.824320 -0.509038
O4    O     O_R   0.359660 0.888630 0.824320 -0.511772
O5    O     O_R   0.909980 0.572450 0.331530 -0.516454
O6    O     O_R   0.427550 0.337530 0.331530 -0.500151
O7    O     O_R   0.662470 0.090020 0.331530 -0.519523
O8    O     O_R   0.572450 0.909980 0.668470 -0.496827
O9    O     O_R   0.337530 0.427550 0.668470 -0.496953
O10   O     O_R   0.090020 0.662470 0.668470 -0.519030
O11   O     O_R   0.638950 0.528780 0.324500 -0.511638
O12   O     O_R   0.427350 0.338830 0.170990 -0.545604
O13   O     O_R   0.471220 0.110170 0.324500 -0.473900
O14   O     O_R   0.889830 0.361050 0.324500 -0.511570
O15   O     O_R   0.528780 0.638950 0.675500 -0.517938
O16   O     O_R   0.110170 0.471220 0.675500 -0.511778
O17   O     O_R   0.361050 0.889830 0.675500 -0.525708
O18   O     O_3   0.666667 0.333333 0.250560 -0.277552
O19   O     O_3   0.333333 0.666667 0.749440 -0.274672
O20   O     O_R   0.661170 0.088520 0.170990 -0.538299
O21   O     O_R   0.572650 0.911480 0.829010 -0.519764
O22   O     O_R   0.338830 0.427350 0.829010 -0.537140
O23   O     O_R   0.088520 0.661170 0.829010 -0.532604
O24   O     O_R   0.640340 0.528970 0.175680 -0.515773
O25   O     O_R   0.471030 0.111370 0.175680 -0.529498
O26   O     O_R   0.888630 0.359660 0.175680 -0.527428

loop_
_geom_bond_atom_site_label_1
_geom_bond_atom_site_label_2
_ccdc_geom_bond_type
C44   C49   A    
C40   C47   A    
C4    N4    S    
C11   C18   A    
C16   C25   A    
C68   H60   S    
Cr3   O26   S    
C58   H20   S    
C63   N9    S    
Cr1   O5    S    
H31   N7    S    
C70   H69   S    
Cr2   O6    S    
Cr1   O24   S    
C3    C49   S    
C1    O24   A    
C62   H38   S    
C68   H61   S    
C33   H23   S    
C59   H26   S    
C19   C21   A    
Cr2   O12   S    
C34   O2    A    
C33   H72   S    
C23   O26   A    
C72   H14   S    
C39   C54   A    
C6    O13   A    
C19   C32   S    
Cr5   O3    S    
C4    H17   S    
C35   H2    S    
C3    N3    S    
Cr5   O22   S    
C66   N12   S    
C5    O6    A    
C52   H6    S    
C20   C24   A    
H36   N8    S    
C62   H39   S    
H58   N2    S    
Cr1   O18   S    
C8    O15   A    
C43   C53   A    
C9    C39   S    
C32   H12   S    
C38   C55   A    
C12   C16   S    
C55   H9    S    
Cr3   O7    S    
Cr5   O19   S    
C62   N8    S    
C13   C28   A    
C34   O22   A    
C67   N10   S    
C70   H68   S    
H40   N9    S    
Cr4   O21   S    
C41   C52   A    
C23   O1    A    
C60   H30   S    
C8    O9    A    
H62   N3    S    
C15   C23   S    
C5    C43   S    
C9    O16   A    
H49   N11   S    
C70   N4    S    
C27   C30   A    
C25   C29   A    
C26   N5    S    
C58   H19   S    
C14   C30   A    
C61   H32   S    
C26   C28   A    
C63   H43   S    
C52   C54   A    
C65   H52   S    
C47   C50   A    
C66   H54   S    
C2    N2    S    
C30   N9    S    
C68   H59   S    
C1    O12   A    
Cr6   O4    S    
C17   C24   A    
C32   H71   S    
Cr6   O17   S    
C17   C27   A    
C32   C35   S    
C14   C20   A    
C36   H45   S    
Cr4   O15   S    
C54   H8    S    
C59   N5    S    
C15   C26   A    
H53   N12   S    
C2    C48   S    
C69   H64   S    
C64   H46   S    
C12   O25   A    
C33   C37   S    
C4    C50   S    
C65   H50   S    
C38   C44   A    
C68   N2    S    
C61   N7    S    
C66   H55   S    
C63   H41   S    
C15   C21   A    
C36   H3    S    
Cr5   O9    S    
C7    O14   A    
C64   N10   S    
Cr6   O10   S    
C24   C37   S    
C71   H13   S    
Cr6   O23   S    
C12   O20   A    
Cr4   O8    S    
Cr3   O18   S    
C46   C71   S    
C60   H29   S    
C39   C46   A    
C72   N12   S    
C20   C33   S    
H22   N5    S    
C64   H48   S    
C61   H35   S    
C37   H4    S    
Cr4   O2    S    
C70   H70   S    
C10   O17   A    
C65   N11   S    
Cr4   O19   S    
C61   H33   S    
C51   H5    S    
C4    C72   S    
C60   H28   S    
C58   N1    S    
Cr2   O25   S    
C27   N6    S    
H66   N4    S    
C7    O5    A    
C16   C22   A    
C40   C57   A    
C71   N11   S    
Cr3   O14   S    
C18   C22   A    
C59   H24   S    
C5    O11   A    
C2    H15   S    
C3    C67   S    
C58   H21   S    
C9    O10   A    
C53   C57   A    
C14   C34   S    
C65   H51   S    
C43   C50   A    
C31   H1    S    
C29   N8    S    
C21   C35   S    
C56   O21   A    
C69   H65   S    
C22   C36   S    
C42   C51   A    
C1    C17   S    
Cr5   O16   S    
C57   H10   S    
C10   C38   S    
C25   N1    S    
Cr6   O19   S    
C59   H25   S    
Cr2   O13   S    
Cr1   O1    S    
C13   C45   S    
C63   H42   S    
H18   N1    S    
C45   O23   A    
C45   O3    A    
C10   O8    A    
C28   N7    S    
C41   C48   A    
C3    H16   S    
C51   C55   A    
C60   N6    S    
C7    C41   S    
Cr1   O11   S    
C13   C19   A    
C69   N3    S    
C47   C72   S    
C35   H34   S    
C42   C49   A    
C66   H57   S    
C31   H67   S    
C46   C48   A    
C62   H37   S    
H27   N6    S    
Cr2   O18   S    
C11   C29   A    
C64   H47   S    
C6    C42   S    
C37   H56   S    
C56   O4    A    
C67   H11   S    
H44   N10   S    
C31   C36   S    
C44   C67   S    
C53   H7    S    
C18   C31   S    
C8    C40   S    
Cr3   O20   S    
C69   H63   S    
C11   C56   S    
C2    C71   S    
C6    O7    A    
