data_mof_unit_41686.cif
_audit_creation_date              2012-12-10T17:44:32-0500
_audit_creation_method            fapswitch 2.2
_symmetry_space_group_name_H-M    P1
_symmetry_Int_Tables_number       1
_space_group_crystal_system       triclinic
_cell_length_a                    9.930105
_cell_length_b                    10.72137
_cell_length_c                    15.476071
_cell_angle_alpha                 92.969182
_cell_angle_beta                  68.515597
_cell_angle_gamma                 91.51749
_cell_volume                      1531.05816639

loop_
_atom_site_label
_atom_site_type_symbol
_atom_type_description
_atom_site_fract_x
_atom_site_fract_y
_atom_site_fract_z
_atom_type_partial_charge
C1    C     C_R   0.505853 0.738734 0.491366 0.854543
C2    C     C_R   0.402950 0.560618 0.917907 0.105746
C3    C     C_R   0.257982 0.529610 0.972244 0.143313
C4    C     C_R   0.503240 0.591531 0.961789 0.060900
C5    C     C_R   0.461683 0.571221 0.057459 0.053211
C6    C     C_R   0.313808 0.551461 0.110916 -0.209104
C7    C     C_R   0.213327 0.531970 0.068686 -0.206325
C8    C     C_R   0.644242 0.638560 0.913658 -0.194763
C9    C     C_R   0.744781 0.654232 0.956885 -0.162625
C10   C     C_R   0.710328 0.616643 0.047388 0.172829
C11   C     C_R   0.569551 0.570917 0.096738 0.087290
C12   C     C_R   0.409025 0.498960 0.675979 0.886057
C13   C     C_R   0.814247 0.622776 0.089421 -0.210619
C14   C     C_R   0.779631 0.580829 0.179152 -0.202132
C15   C     C_R   0.541999 0.519864 0.182432 -0.252547
C16   C     C_R   0.309635 0.870544 0.421287 -0.146249
C17   C     C_R   0.179815 0.923615 0.427325 -0.130459
C18   C     C_R   0.137802 0.037461 0.475727 -0.141670
C19   C     C_R   0.231992 0.103389 0.510029 -0.087362
C20   C     C_R   0.371084 0.055987 0.495781 0.108642
C21   C     C_R   0.398915 0.931440 0.464310 0.087594
C22   C     C_R   0.511841 0.871078 0.480674 -0.112049
C23   C     C_R   0.494050 0.260070 0.505900 0.935597
C24   C     C_R   0.615243 0.939114 0.504922 -0.220816
C25   C     C_R   0.604427 0.066237 0.516732 -0.213645
C26   C     C_R   0.484573 0.126080 0.511154 -0.124528
C27   C     C_R   0.798384 0.670243 0.618811 -0.171853
C28   C     C_R   0.838759 0.754684 0.676456 -0.234551
C29   C     C_R   0.975780 0.749670 0.680069 -0.161080
C30   C     C_R   0.074886 0.662678 0.623852 -0.102504
C31   C     C_R   0.040004 0.579838 0.561371 0.131634
C32   C     C_R   0.896444 0.581870 0.559924 0.180941
C33   C     C_R   0.958273 0.425973 0.440101 -0.166947
C34   C     C_R   0.590286 0.503102 0.324378 0.892499
C35   C     C_R   0.102426 0.427369 0.437241 -0.025393
C36   C     C_R   0.351212 0.506101 0.778115 -0.137871
C37   C     C_R   0.642558 0.529007 0.225720 -0.062026
C38   C     C_R   0.160500 0.491148 0.929700 -0.271858
C39   C     C_R   0.206052 0.475805 0.832959 -0.028684
C40   C     C_R   0.446128 0.549261 0.821300 -0.273487
H1    H     H_    0.101831 0.512393 0.111434 0.160480
H2    H     H_    0.920937 0.661601 0.053560 0.142424
H3    H     H_    0.703525 0.894248 0.516288 0.171367
H4    H     H_    0.339052 0.781756 0.383073 0.157407
H5    H     H_    0.109843 0.874515 0.397096 0.138664
H6    H     H_    0.033392 0.076027 0.485195 0.129712
H7    H     H_    0.191474 0.188966 0.549712 0.172475
H8    H     H_    0.689955 0.117480 0.531175 0.171612
H9    H     H_    0.927037 0.365958 0.392011 0.189841
H10   H     H_    0.690071 0.677790 0.621786 0.201015
H11   H     H_    0.762119 0.823088 0.719869 0.150437
H12   H     H_    0.441213 0.471958 0.216937 0.177308
H13   H     H_    0.005742 0.813841 0.726477 0.146146
H14   H     H_    0.178180 0.664147 0.630192 0.192434
H15   H     H_    0.857922 0.591528 0.212709 0.158324
H16   H     H_    0.851404 0.691230 0.918132 0.160335
H17   H     H_    0.050780 0.465056 0.972232 0.170011
H18   H     H_    0.556547 0.568200 0.778005 0.169823
H19   H     H_    0.273208 0.552391 0.185904 0.176428
H20   H     H_    0.678293 0.667191 0.843336 0.155747
N1    N     N_R   0.856800 0.501200 0.500850 -0.131002
N2    N     N_R   0.142390 0.501280 0.500880 -0.159680
O1    O     O_R   0.385310 0.683220 0.500000 -0.651634
O2    O     O_R   0.614640 0.683250 0.500010 -0.641557
O3    O     O_R   0.319840 0.499980 0.632240 -0.614625
O4    O     O_R   0.549160 0.500000 0.632250 -0.631552
O5    O     O_R   0.385360 0.316750 0.499990 -0.565547
O6    O     O_R   0.614690 0.316780 0.500000 -0.623765
O7    O     O_R   0.450840 0.500000 0.367750 -0.602236
O8    O     O_R   0.680160 0.500020 0.367760 -0.613604
Zn1   Zn    Zn3+2 0.346880 0.499980 0.499990 0.965270
Zn2   Zn    Zn3+2 0.653120 0.500020 0.500010 0.939421
C41   C     C_2   0.205012 0.352079 0.358583 0.888638
O9    O     O_2   0.303478 0.295218 0.366900 -0.592567
O10   O     O_R   0.182654 0.340218 0.274327 -0.856176
H21   H     H_    0.257063 0.285071 0.225933 0.345543
C42   C     C_2   0.101967 0.419548 0.793449 0.924957
O11   O     O_2   0.976769 0.455613 0.822463 -0.645251
O12   O     O_R   0.144789 0.321358 0.726346 -0.805472
H22   H     H_    0.063320 0.290248 0.705921 0.329200

loop_
_geom_bond_atom_site_label_1
_geom_bond_atom_site_label_2
_ccdc_geom_bond_type
C16   C21   A    
C34   C37   S    
C41   O9    D    
C19   C20   A    
C4    C8    A    
C42   O11   D    
C30   H14   S    
C29   H13   S    
C39   C42   S    
C28   C29   A    
C17   H5    S    
C32   N1    A    
C5    C11   A    
C3    C7    A    
C38   C39   A    
C28   H11   S    
C19   H7    S    
C33   H9    S    
C18   H6    S    
C18   C19   A    
C23   C26   S    
C23   O5    A    
O7    Zn1   S    
C15   C37   A    
C11   C15   A    
O4    Zn2   S    
C3    C38   A    
C8    C9    A    
C12   C36   S    
C9    C10   A    
C34   O8    A    
C27   H10   S    
C7    H1    S    
C14   H15   S    
C1    C22   S    
C21   C22   A    
C41   O10   S    
C31   N2    A    
C1    O1    A    
C13   H2    S    
C42   O12   S    
C40   H18   S    
C36   C40   A    
C24   C25   A    
C16   C17   A    
C25   C26   A    
O3    Zn1   S    
C12   O4    A    
C23   O6    A    
C2    C4    A    
O10   H21   S    
C29   C30   A    
C38   H17   S    
C31   C32   A    
C25   H8    S    
C30   C31   A    
O6    Zn2   S    
C17   C18   A    
C9    H16   S    
C15   H12   S    
C34   O7    A    
N1    Zn2   S    
O1    Zn1   S    
C22   C24   A    
C1    O2    A    
C16   H4    S    
C35   C41   S    
C27   C32   A    
C6    H19   S    
C36   C39   A    
C4    C5    A    
C10   C13   A    
C6    C7    A    
C12   O3    A    
C2    C3    A    
C8    H20   S    
C14   C37   A    
C5    C6    A    
C20   C26   A    
C33   C35   A    
N2    Zn1   S    
C35   N2    A    
O5    Zn1   S    
O2    Zn2   S    
C10   C11   A    
O12   H22   S    
C2    C40   A    
C20   C21   A    
C33   N1    A    
C27   C28   A    
C24   H3    S    
O8    Zn2   S    
C13   C14   A    
