data_mof_unit_15301.cif
_audit_creation_date              2013-03-05T16:02:23-0500
_audit_creation_method            fapswitch 2.2
_symmetry_space_group_name_H-M    P1
_symmetry_Int_Tables_number       1
_space_group_crystal_system       triclinic
_cell_length_a                    15.119892
_cell_length_b                    14.134878
_cell_length_c                    10.840944
_cell_angle_alpha                 89.575239
_cell_angle_beta                  88.641231
_cell_angle_gamma                 88.796112
_cell_volume                      2315.6848153

loop_
_atom_site_label
_atom_site_type_symbol
_atom_site_description
_atom_site_fract_x
_atom_site_fract_y
_atom_site_fract_z
_atom_type_partial_charge
O1    O     O_R   0.367860 0.580280 0.500020 -0.555495
O2    O     O_R   0.367860 0.419720 0.500020 -0.617114
C1    C     C_R   0.326728 0.501479 0.494778 0.978950
O3    O     O_R   0.500000 0.580270 0.314790 -0.577656
O4    O     O_R   0.500000 0.419730 0.314790 -0.625429
C2    C     C_R   0.503298 0.500703 0.258161 1.009182
Zn1   Zn    Zn3+2 0.500020 0.607200 0.499990 1.111056
Zn2   Zn    Zn3+2 0.500020 0.392800 0.499990 1.088766
O5    O     O_R   0.632160 0.580270 0.499960 -0.599517
O6    O     O_R   0.632160 0.419730 0.499960 -0.582479
O7    O     O_R   0.500030 0.580270 0.685200 -0.596929
O8    O     O_R   0.500030 0.419730 0.685200 -0.578906
C3    C     C_R   0.673253 0.499174 0.508788 0.978862
C4    C     C_R   0.502941 0.499817 0.742282 1.026534
C5    C     C_3   0.513277 0.607446 0.070128 0.099348
C6    C     C_3   0.421180 0.456597 0.076766 0.017793
H1    H     H_    0.579572 0.634889 0.089010 0.191040
H2    H     H_    0.412172 0.386302 0.120170 0.200671
C7    C     C_3   0.506520 0.605320 0.929332 0.046718
C8    C     C_3   0.425364 0.442893 0.935685 0.095871
H3    H     H_    0.568169 0.637455 0.892253 0.170550
H4    H     H_    0.441715 0.366893 0.921147 0.186092
C9    C     C_3   0.595117 0.445551 0.072367 0.294954
C10   C     C_3   0.508041 0.502785 0.122292 -0.360314
C11   C     C_3   0.505181 0.499833 0.879230 -0.375372
C12   C     C_3   0.594232 0.448469 0.923878 0.237142
C13   C     C_R   0.813513 0.585299 0.519505 0.297424
C14   C     C_R   0.769574 0.498551 0.522141 -0.236862
C15   C     C_R   0.818151 0.413289 0.541382 0.287544
C16   C     C_R   0.911427 0.414845 0.540040 -0.085652
C17   C     C_R   0.953909 0.501947 0.516352 -0.042586
C18   C     C_R   0.904283 0.585744 0.494996 -0.067810
C19   C     C_R   0.963827 0.332596 0.564304 0.263232
C20   C     C_R   0.052609 0.342887 0.595140 0.200336
C21   C     C_R   0.095527 0.425919 0.556313 -0.013322
C22   C     C_R   0.046341 0.505270 0.514733 0.017149
C23   C     C_R   0.089488 0.588121 0.473457 -0.087577
C24   C     C_R   0.039009 0.671385 0.448742 0.216924
C25   C     C_R   0.946632 0.669174 0.455630 0.228077
C26   C     C_R   0.187184 0.428864 0.551721 -0.093535
C27   C     C_R   0.230493 0.505503 0.498243 -0.183812
C28   C     C_R   0.181636 0.583751 0.451230 0.298211
H5    H     H_    0.225670 0.368034 0.581504 0.235852
C29   C     C_R   0.561336 0.797492 0.430819 0.046631
C30   C     C_R   0.558444 0.200713 0.425666 0.081722
N1    N     N_R   0.500070 0.750030 0.500050 -0.161341
N2    N     N_R   0.500070 0.249970 0.500050 -0.158357
C31   C     C_R   0.435229 0.799543 0.566064 0.449190
C32   C     C_R   0.439249 0.202684 0.570704 0.399380
C33   C     C_R   0.432827 0.900833 0.567979 -0.151291
C34   C     C_R   0.431854 0.102958 0.561718 -0.145721
C35   C     C_R   0.496655 0.949743 0.495338 0.013262
C36   C     C_R   0.496800 0.050755 0.494156 0.012089
C37   C     C_R   0.560300 0.897986 0.423939 -0.092417
C38   C     C_R   0.560452 0.100113 0.423380 -0.103355
C39   C     C_R   0.366615 0.955833 0.633602 0.224993
C40   C     C_R   0.362030 0.054246 0.619689 0.227932
C41   C     C_R   0.621948 0.048283 0.348723 0.226643
C42   C     C_R   0.621608 0.947863 0.348066 0.223640
H6    H     H_    0.610730 0.755999 0.380454 0.210219
H7    H     H_    0.604579 0.240461 0.370309 0.226769
N3    N     N_R   0.096466 0.274559 0.674123 0.248774
O9    O     O_R   0.072988 0.186638 0.678775 -0.188650
O10   O     O_R   0.146749 0.304468 0.760809 -0.244177
N4    N     N_R   0.219877 0.645087 0.358352 0.229122
O11   O     O_R   0.278028 0.707259 0.386412 -0.277132
O12   O     O_R   0.181659 0.653361 0.252354 -0.242670
N5    N     N_R   0.080869 0.760201 0.425359 0.263105
O13   O     O_R   0.128899 0.797126 0.509725 -0.233766
O14   O     O_R   0.066107 0.807466 0.324160 -0.190851
N6    N     N_R   0.896189 0.748538 0.409623 0.255325
O15   O     O_R   0.839884 0.736233 0.322526 -0.256568
O16   O     O_R   0.905299 0.832565 0.455367 -0.212305
Br1   Br    Br    0.342558 0.730012 0.647244 -0.166928
Br2   Br    Br    0.375875 0.270868 0.698220 -0.300879
N7    N     N_R   0.302949 0.915315 0.717006 0.253457
O17   O     O_R   0.322100 0.905496 0.832825 -0.208025
O18   O     O_R   0.220876 0.909678 0.684699 -0.195126
N8    N     N_R   0.279581 0.102059 0.648318 0.256693
O19   O     O_R   0.245623 0.100378 0.759776 -0.188006
O20   O     O_R   0.237349 0.145843 0.560862 -0.306910
N9    N     N_R   0.682667 0.097197 0.268621 0.244775
O21   O     O_R   0.678398 0.087820 0.149631 -0.211274
O22   O     O_R   0.748063 0.142491 0.314641 -0.227769
N10   N     N_R   0.683421 0.897370 0.268715 0.240301
O23   O     O_R   0.654883 0.838989 0.187114 -0.303312
O24   O     O_R   0.766615 0.919189 0.266060 -0.186281
Br3   Br    Br    0.439795 0.711149 0.147156 -0.163819
Br4   Br    Br    0.312943 0.518403 0.139159 -0.232450
N11   N     N_R   0.435398 0.668817 0.887606 0.291291
O25   O     O_R   0.456763 0.754973 0.857891 -0.302952
O26   O     O_R   0.353176 0.652707 0.916928 -0.182091
N12   N     N_R   0.338045 0.456661 0.878859 0.287357
O27   O     O_R   0.326683 0.508139 0.780414 -0.333904
O28   O     O_R   0.274014 0.401844 0.914251 -0.226497
N13   N     N_R   0.677828 0.488825 0.116726 0.219141
O29   O     O_R   0.754265 0.451251 0.084317 -0.196840
O30   O     O_R   0.676813 0.545953 0.210411 -0.403570
N14   N     N_R   0.595388 0.346175 0.119635 0.234518
O31   O     O_R   0.532275 0.288017 0.097195 -0.376932
O32   O     O_R   0.662186 0.313246 0.181495 -0.258570
Br5   Br    Br    0.696395 0.513467 0.846314 -0.342735
Br6   Br    Br    0.612519 0.320279 0.854235 -0.186600
Br7   Br    Br    0.759053 0.697063 0.596488 -0.297418
N15   N     N_R   0.773663 0.332578 0.591716 0.238336
O33   O     O_R   0.787886 0.307161 0.705218 -0.249321
O34   O     O_R   0.735199 0.274157 0.519142 -0.304634
Br8   Br    Br    0.925134 0.207080 0.523312 -0.091135

loop_
_geom_bond_atom_site_label_1
_geom_bond_atom_site_label_2
_geom_bond_distance
_ccdc_geom_bond_type
C9    N14   1.491595 S    
C8    N12   1.478673 S    
N12   O27   1.299956 A    
C39   N7    1.430528 S    
C27   C28   1.415603 A    
C40   N8    1.434047 S    
C21   C22   1.409837 A    
N2    C32   1.365259 A    
N10   O23   1.301388 A    
C9    N13   1.494781 S    
Zn1   O7    2.040844 S    
N15   O34   1.300246 A    
N3    O9    1.299896 A    
C14   C15   1.414818 A    
C7    H3    1.110877 S    
C23   C24   1.416598 A    
N7    O18   1.301569 A    
C41   N9    1.433497 S    
O4    C2    1.296106 A    
O7    C4    1.291056 A    
C18   C25   1.412136 A    
C8    C11   1.573925 S    
C24   N5    1.435960 S    
C13   Br7   1.950016 S    
C20   N3    1.446874 S    
C39   C40   1.398553 A    
C5    H1    1.106517 S    
C20   C21   1.409765 A    
C9    C12   1.610349 S    
C30   H7    1.074247 S    
C23   C28   1.408460 A    
O5    C3    1.296318 A    
N12   O28   1.301679 A    
N3    O10   1.301224 A    
C26   H5    1.079774 S    
C1    C27   1.454590 S    
C17   C18   1.409394 A    
C35   C37   1.415571 A    
N5    O13   1.300294 A    
C32   C34   1.420629 A    
N13   O30   1.301804 A    
C28   N4    1.442323 S    
C33   C35   1.418934 A    
C9    C10   1.615157 S    
C32   Br2   1.917334 S    
C3    C14   1.466791 S    
C34   C40   1.405802 A    
Zn2   O8    2.046390 S    
C30   N2    1.364826 A    
C6    Br4   1.948129 S    
C6    C10   1.570411 S    
C15   N15   1.434341 S    
C19   Br8   1.937780 S    
O3    Zn1   2.046289 S    
C29   N1    1.362766 A    
C37   C42   1.419705 A    
C36   C38   1.409603 A    
C24   C25   1.397937 A    
N1    C31   1.381465 A    
N10   O24   1.301028 A    
Zn1   N1    2.018906 S    
C31   Br1   1.921016 S    
N7    O17   1.300992 A    
O3    C2    1.284787 A    
N8    O20   1.301177 A    
N4    O12   1.301821 A    
C41   C42   1.419619 A    
C33   C39   1.433326 A    
O1    C1    1.289330 A    
C5    C7    1.532753 S    
C42   N10   1.437300 S    
C15   C16   1.410685 A    
C12   Br6   1.979639 S    
N11   O26   1.300189 A    
N14   O31   1.300964 A    
C6    C8    1.542742 S    
C2    C10   1.473100 S    
N13   O29   1.303434 A    
C19   C20   1.401809 A    
N5    O14   1.301639 A    
C5    C10   1.582718 S    
N14   O32   1.301611 A    
O8    C4    1.296195 A    
N9    O21   1.300989 A    
N9    O22   1.300459 A    
C35   C36   1.427807 A    
N6    O16   1.301705 A    
Zn1   O5    2.026001 S    
C26   C27   1.393165 A    
C16   C19   1.419552 A    
C13   C18   1.391848 A    
O1    Zn1   2.041983 S    
Zn2   O6    2.041712 S    
O2    Zn2   2.026277 S    
C8    H4    1.108817 S    
O6    C3    1.299959 A    
O4    Zn2   2.040741 S    
N15   O33   1.300817 A    
C21   C26   1.387039 A    
C11   C12   1.599658 S    
Zn2   N2    2.018866 S    
N6    O15   1.301284 A    
C7    N11   1.463916 S    
C12   Br5   1.980860 S    
N11   O25   1.302673 A    
C16   C17   1.419521 A    
C22   C23   1.416959 A    
C29   H6    1.080222 S    
C31   C33   1.431713 A    
O2    C1    1.302313 A    
C4    C11   1.485841 S    
C7    C11   1.591362 S    
N8    O19   1.301871 A    
C29   C37   1.421649 A    
C30   C38   1.422039 A    
C6    H2    1.105865 S    
N4    O11   1.298836 A    
C38   C41   1.414494 A    
C13   C14   1.406594 A    
C25   N6    1.436200 S    
C17   C22   1.399033 A    
C34   C36   1.410192 A    
C5    Br3   1.996515 S    
