data_mof_unit_55342.cif
_audit_creation_date              2012-12-10T20:31:57-0500
_audit_creation_method            fapswitch 2.2
_symmetry_space_group_name_H-M    P1
_symmetry_Int_Tables_number       1
_space_group_crystal_system       triclinic
_cell_length_a                    9.861034
_cell_length_b                    10.689034
_cell_length_c                    15.5205
_cell_angle_alpha                 90.15321
_cell_angle_beta                  68.04091
_cell_angle_gamma                 90.249869
_cell_volume                      1517.23633753

loop_
_atom_site_label
_atom_site_type_symbol
_atom_type_description
_atom_site_fract_x
_atom_site_fract_y
_atom_site_fract_z
_atom_type_partial_charge
C1    C     C_R   0.498726 0.740051 0.502447 0.878033
C2    C     C_R   0.398746 0.453564 0.917265 0.099472
C3    C     C_R   0.254269 0.491953 0.970067 0.144613
C4    C     C_R   0.495562 0.422238 0.962078 0.060666
C5    C     C_R   0.454991 0.450730 0.057778 -0.019706
C6    C     C_R   0.304837 0.479950 0.110761 -0.032934
C7    C     C_R   0.208062 0.500843 0.065859 -0.292016
C8    C     C_R   0.631552 0.363256 0.914112 -0.216996
C9    C     C_R   0.731396 0.344057 0.956305 -0.234227
C10   C     C_R   0.702312 0.388727 0.045601 0.177845
C11   C     C_R   0.566920 0.448057 0.095128 0.107514
C12   C     C_R   0.408749 0.498792 0.675852 0.865094
C13   C     C_R   0.807023 0.375163 0.086308 -0.228421
C14   C     C_R   0.776770 0.417731 0.176593 -0.200727
C15   C     C_R   0.551248 0.507488 0.178515 -0.197299
C16   C     C_R   0.368322 0.935412 0.514873 0.119054
C17   C     C_R   0.490117 0.871481 0.516250 -0.099988
C18   C     C_R   0.600366 0.935971 0.534714 -0.217870
C19   C     C_R   0.599748 0.065313 0.535131 -0.224008
C20   C     C_R   0.489018 0.128512 0.516832 -0.100882
C21   C     C_R   0.367436 0.063075 0.515456 0.127231
C22   C     C_3   0.291750 0.069304 0.448151 -0.473760
C23   C     C_R   0.498226 0.259922 0.502623 0.884769
C24   C     C_3   0.293708 0.927598 0.447055 -0.463285
C25   C     C_R   0.912383 0.603282 0.528809 0.218423
C26   C     C_R   0.947131 0.400624 0.466845 -0.147203
C27   C     C_R   0.090803 0.400527 0.467158 -0.087602
C28   C     C_R   0.055158 0.603271 0.528686 0.198840
C29   C     C_3   0.006150 0.660641 0.622969 -0.511766
C30   C     C_3   0.852089 0.660531 0.623331 -0.497901
C31   C     C_R   0.591282 0.500075 0.323979 0.879464
C32   C     C_R   0.350848 0.491668 0.776889 -0.055980
C33   C     C_R   0.646319 0.481732 0.223565 -0.066455
C34   C     C_R   0.157200 0.521751 0.926283 -0.193775
C35   C     C_R   0.205181 0.520970 0.829862 -0.198836
C36   C     C_R   0.445373 0.456431 0.820474 -0.261528
H1    H     H_    0.094929 0.524292 0.106181 0.180268
H2    H     H_    0.909414 0.327585 0.049734 0.149722
H3    H     H_    0.691390 0.887668 0.542418 0.164276
H4    H     H_    0.690331 0.114735 0.543337 0.166984
H5    H     H_    0.179503 0.107811 0.480596 0.194152
H6    H     H_    0.360651 0.112032 0.380565 0.219860
H7    H     H_    0.182852 0.885259 0.478039 0.201528
H8    H     H_    0.364755 0.887503 0.378986 0.209020
H9    H     H_    0.908213 0.320074 0.440462 0.159420
H10   H     H_    0.160138 0.320325 0.440700 0.179269
H11   H     H_    0.019825 0.596769 0.675528 0.210015
H12   H     H_    0.462522 0.571436 0.211581 0.151247
H13   H     H_    0.051808 0.756163 0.621612 0.199785
H14   H     H_    0.776507 0.596763 0.676305 0.218215
H15   H     H_    0.809006 0.756118 0.622406 0.192576
H16   H     H_    0.852330 0.397283 0.210426 0.169215
H17   H     H_    0.833652 0.297349 0.917792 0.148869
H18   H     H_    0.045481 0.548845 0.966496 0.150417
H19   H     H_    0.130158 0.547199 0.796942 0.150324
H20   H     H_    0.557632 0.437459 0.777427 0.151122
H21   H     H_    0.661380 0.326580 0.844647 0.144403
N1    N     N_R   0.856900 0.500860 0.500610 -0.108614
N2    N     N_R   0.142540 0.500820 0.500610 -0.112340
O1    O     O_R   0.385310 0.683210 0.499990 -0.617424
O2    O     O_R   0.614650 0.683240 0.500000 -0.615586
O3    O     O_R   0.319830 0.499970 0.632240 -0.619051
O4    O     O_R   0.549170 0.500000 0.632250 -0.620833
O5    O     O_R   0.385350 0.316760 0.500000 -0.617351
O6    O     O_R   0.614690 0.316790 0.500010 -0.629824
O7    O     O_R   0.450830 0.500000 0.367750 -0.581825
O8    O     O_R   0.680170 0.500030 0.367760 -0.604761
Zn1   Zn    Zn3+2 0.346870 0.499980 0.499990 0.959354
Zn2   Zn    Zn3+2 0.653130 0.500020 0.500010 0.949624
C37   C     C_2   0.237001 0.477485 0.213108 0.881682
O9    O     O_2   0.263131 0.391957 0.256635 -0.637492
O10   O     O_R   0.140719 0.573091 0.259242 -0.813751
H22   H     H_    0.105661 0.566267 0.329054 0.339653

loop_
_geom_bond_atom_site_label_1
_geom_bond_atom_site_label_2
_ccdc_geom_bond_type
C8    C9    A    
C31   O7    A    
O7    Zn1   S    
C30   H15   S    
C16   C21   A    
C19   C20   A    
C4    C8    A    
C14   C33   A    
C29   H13   S    
C25   C28   A    
C31   O8    A    
C26   C27   A    
C29   H11   S    
C32   C36   A    
C28   C29   S    
C5    C11   A    
C3    C7    A    
C5    C6    A    
N2    Zn1   S    
C22   H5    S    
O2    Zn2   S    
C18   C19   A    
C34   C35   A    
C26   H9    S    
C11   C15   A    
C14   H16   S    
O4    Zn2   S    
C16   C17   A    
C31   C33   S    
C37   O9    D    
C9    C10   A    
C30   H14   S    
C16   C24   S    
C21   C22   S    
C12   C32   S    
C15   H12   S    
C35   H19   S    
C32   C35   A    
C19   H4    S    
C1    O1    A    
C12   O4    A    
O10   H22   S    
C3    C34   A    
O8    Zn2   S    
C2    C4    A    
C18   H3    S    
C29   C30   S    
C36   H20   S    
C8    H21   S    
C12   O3    A    
C20   C23   S    
C17   C18   A    
C7    H1    S    
C26   N1    A    
C13   H2    S    
C27   H10   S    
C23   O5    A    
C34   H18   S    
C24   H8    S    
C22   C24   S    
C9    H17   S    
C25   N1    A    
O5    Zn1   S    
C28   N2    A    
C2    C36   A    
C25   C30   S    
C6    C37   S    
C4    C5    A    
C10   C13   A    
C1    O2    A    
N1    Zn2   S    
C6    C7    A    
C1    C17   S    
O3    Zn1   S    
C23   O6    A    
C2    C3    A    
C27   N2    A    
C22   H6    S    
O6    Zn2   S    
C10   C11   A    
C20   C21   A    
O1    Zn1   S    
C24   H7    S    
C37   O10   S    
C13   C14   A    
C15   C33   A    
