data_mof_unit_35374.cif
_audit_creation_date              2012-12-10T17:55:27-0500
_audit_creation_method            fapswitch 2.2
_symmetry_space_group_name_H-M    P1
_symmetry_Int_Tables_number       1
_space_group_crystal_system       triclinic
_cell_length_a                    10.794091
_cell_length_b                    9.531971
_cell_length_c                    10.940352
_cell_angle_alpha                 89.981053
_cell_angle_beta                  90.401314
_cell_angle_gamma                 89.990167
_cell_volume                      1125.61377521

loop_
_atom_site_label
_atom_site_type_symbol
_atom_type_description
_atom_site_fract_x
_atom_site_fract_y
_atom_site_fract_z
_atom_type_partial_charge
C1    C     C_R   0.262346 0.499977 0.496036 0.791524
C2    C     C_R   0.737608 0.499953 0.496225 0.787495
C3    C     C_R   0.499905 0.499686 0.265133 0.880162
C4    C     C_R   0.501430 0.499639 0.734957 0.908098
C5    C     C_2   0.495634 0.382457 0.934236 0.319386
C6    C     C_2   0.522504 0.385201 0.066898 0.315165
C7    C     C_2   0.514713 0.498720 0.867103 -0.373161
C8    C     C_2   0.489935 0.498179 0.132942 -0.365482
C9    C     C_R   0.063917 0.405040 0.411283 0.412840
C10   C     C_R   0.934810 0.405019 0.411342 0.405316
C11   C     C_R   0.871265 0.500462 0.487779 -0.212555
C12   C     C_R   0.128561 0.500529 0.487629 -0.194036
C13   C     C_R   0.936486 0.598093 0.558355 -0.202562
C14   C     C_R   0.064350 0.598143 0.558259 -0.205567
C15   C     C_R   0.423071 0.074897 0.423799 -0.093858
C16   C     C_R   0.576954 0.074806 0.576173 -0.087052
C17   C     C_R   0.422440 0.925244 0.423322 0.461497
C18   C     C_R   0.577567 0.925151 0.576670 0.463670
Cu1   Cu    Cu3+1 0.500000 0.640660 0.500000 1.043002
Cu2   Cu    Cu3+1 0.500000 0.359340 0.500000 1.012876
H1    H     H_    0.888290 0.672144 0.616263 0.198468
H2    H     H_    0.113388 0.672234 0.616091 0.179076
H3    H     H_    0.361953 0.132544 0.363163 0.159142
H4    H     H_    0.638106 0.132395 0.636782 0.148270
N1    N     N_R   0.500000 0.852070 0.500000 -0.186011
N2    N     N_R   0.500000 0.147940 0.500000 -0.188696
O1    O     O_R   0.319640 0.618740 0.499990 -0.539272
O2    O     O_R   0.680360 0.618740 0.500010 -0.536664
O3    O     O_R   0.319620 0.381170 0.499990 -0.581518
O4    O     O_R   0.680380 0.381170 0.500010 -0.581426
O5    O     O_R   0.500000 0.618750 0.321940 -0.551750
O6    O     O_R   0.500000 0.618750 0.678060 -0.556740
O7    O     O_R   0.499970 0.381180 0.321940 -0.537516
O8    O     O_R   0.500030 0.381180 0.678060 -0.521202
O9    O     O_3   0.451950 0.260885 0.879746 -0.702014
H5    H     H_    0.430158 0.192947 0.944755 0.330937
O10   O     O_3   0.579107 0.271527 0.122966 -0.699917
H6    H     H_    0.608849 0.206607 0.058773 0.333867
H7    H     H_    0.547500 0.595016 0.909407 0.120371
H8    H     H_    0.448372 0.589645 0.089906 0.120612
O11   O     O_3   0.122649 0.314632 0.331692 -0.680982
H9    H     H_    0.204356 0.353986 0.309763 0.310610
O12   O     O_3   0.874934 0.314615 0.331776 -0.657466
H10   H     H_    0.792870 0.353923 0.309918 0.336261
O13   O     O_3   0.344491 0.851569 0.346419 -0.688873
H11   H     H_    0.294797 0.918965 0.297434 0.310393
O14   O     O_3   0.655474 0.851379 0.653603 -0.702128
H12   H     H_    0.705270 0.918697 0.702506 0.297410

loop_
_geom_bond_atom_site_label_1
_geom_bond_atom_site_label_2
_ccdc_geom_bond_type
C6    C8    D    
O12   H10   S    
C15   C17   A    
O10   H6    S    
Cu1   O1    S    
C9    C10   A    
C9    O11   S    
O9    H5    S    
C2    O4    A    
Cu2   O8    S    
C18   O14   S    
C14   H2    S    
C1    O3    A    
C6    O10   S    
Cu1   O5    S    
C16   H4    S    
C16   C18   A    
Cu2   O4    S    
C13   C14   A    
C3    O5    A    
Cu1   O2    S    
C11   C13   A    
C4    O6    A    
C18   N1    A    
Cu2   N2    S    
C4    C7    S    
C2    C11   S    
C5    O9    S    
C7    H7    S    
C15   H3    S    
C17   O13   S    
Cu2   O3    S    
C16   N2    A    
C5    C6    S    
Cu1   N1    S    
C9    C12   A    
C4    O8    A    
C10   C11   A    
Cu2   O7    S    
C13   H1    S    
O14   H12   S    
C1    O1    A    
C3    C8    S    
O11   H9    S    
C5    C7    D    
C3    O7    A    
C15   N2    A    
C2    O2    A    
C8    H8    S    
C10   O12   S    
O13   H11   S    
Cu1   O6    S    
C1    C12   S    
Cu1   Cu2   S    
C12   C14   A    
C17   N1    A    
