data_mof_unit_27268.cif
_audit_creation_date              2012-10-26T20:22:05-0400
_audit_creation_method            fapswitch 2.2
_symmetry_space_group_name_H-M    P1
_symmetry_Int_Tables_number       1
_space_group_crystal_system       triclinic
_cell_length_a                    10.991974
_cell_length_b                    9.520989
_cell_length_c                    10.627543
_cell_angle_alpha                 89.825756
_cell_angle_beta                  90.219073
_cell_angle_gamma                 89.938931
_cell_volume                      1112.20589264

loop_
_atom_site_label
_atom_site_type_symbol
_atom_type_description
_atom_site_fract_x
_atom_site_fract_y
_atom_site_fract_z
_atom_type_partial_charge
C1    C     C_R   0.872688 0.500561 0.509861 -0.072483
C2    C     C_3   0.399790 0.430833 0.041786 -0.153853
C3    C     C_3   0.400900 0.563342 0.958349 0.279645
C4    C     C_3   0.598689 0.436572 0.041462 0.273804
C5    C     C_3   0.500417 0.498713 0.877232 0.022042
C6    C     C_3   0.499198 0.501219 0.122654 0.017921
C7    C     C_R   0.443462 0.074730 0.406045 0.049754
C8    C     C_R   0.554955 0.925270 0.594868 0.027810
C9    C     C_R   0.555413 0.073974 0.594632 0.009258
C10   C     C_R   0.443909 0.925998 0.405783 0.048599
C11   C     C_R   0.065125 0.376250 0.541859 -0.003317
C12   C     C_R   0.129013 0.502443 0.517120 -0.066415
C13   C     C_R   0.937049 0.629280 0.502614 0.012165
C14   C     C_R   0.938187 0.373703 0.529618 0.006114
C15   C     C_R   0.063848 0.629901 0.500420 0.002314
C16   C     C_3   0.221612 0.678422 0.999848 -0.068802
C17   C     C_3   0.777539 0.320877 0.999363 -0.067517
C18   C     C_2   0.129157 0.247180 0.586243 0.640465
C19   C     C_2   0.874951 0.767139 0.506408 0.636720
C20   C     C_2   0.875537 0.236915 0.540846 0.636088
C21   C     C_2   0.124881 0.767539 0.480976 0.647480
C22   C     C_R   0.262484 0.500480 0.505993 0.567127
C23   C     C_R   0.738135 0.499995 0.502735 0.560874
C24   C     C_R   0.499901 0.500308 0.259314 0.579676
C25   C     C_R   0.499930 0.499679 0.740652 0.586289
C26   C     C_3   0.498351 0.635116 0.040183 -0.142960
C27   C     C_3   0.501216 0.364818 0.959650 -0.138715
C28   C     C_3   0.599787 0.569097 0.958065 -0.158633
Cu1   Cu    Cu3+1 0.500000 0.640660 0.500000 1.041079
Cu2   Cu    Cu3+1 0.500000 0.359340 0.500000 1.025422
H1    H     H_    0.397616 0.130802 0.330964 0.114948
H2    H     H_    0.187114 0.590661 0.059035 0.122652
H3    H     H_    0.141651 0.730195 0.955676 0.177781
H4    H     H_    0.811394 0.408170 0.939237 0.123134
H5    H     H_    0.730647 0.240543 0.940984 0.127958
H6    H     H_    0.857959 0.269720 0.043230 0.175556
H7    H     H_    0.239035 0.158389 0.716564 0.348404
H8    H     H_    0.812449 0.923945 0.615358 0.343486
H9    H     H_    0.785425 0.082894 0.450175 0.351419
H10   H     H_    0.171005 0.920637 0.358713 0.347135
H11   H     H_    0.598992 0.869147 0.671019 0.130742
H12   H     H_    0.600400 0.129424 0.670249 0.134219
H13   H     H_    0.398879 0.870438 0.330258 0.108659
H14   H     H_    0.495785 0.744656 0.075608 0.127211
H15   H     H_    0.503670 0.255308 0.924136 0.125148
H16   H     H_    0.681285 0.623665 0.920700 0.130644
H17   H     H_    0.318270 0.376241 0.079055 0.120667
H18   H     H_    0.268230 0.758095 0.059211 0.116798
N1    N     N_R   0.500000 0.852070 0.500000 -0.216283
N2    N     N_R   0.500000 0.147930 0.500000 -0.228762
O1    O     O_R   0.319640 0.618740 0.499990 -0.478039
O2    O     O_3   0.701443 0.370931 0.095711 -0.533332
O3    O     O_2   0.121867 0.138370 0.525908 -0.469392
O4    O     O_R   0.198495 0.251624 0.696773 -0.661721
O5    O     O_2   0.842742 0.824468 0.408709 -0.474509
O6    O     O_R   0.855535 0.830554 0.622921 -0.676682
O7    O     O_2   0.856205 0.186512 0.644756 -0.549008
O8    O     O_R   0.836810 0.168468 0.431694 -0.619054
O9    O     O_2   0.167340 0.830760 0.570980 -0.435358
O10   O     O_R   0.129745 0.825527 0.360168 -0.687552
O11   O     O_R   0.680360 0.381260 0.500010 -0.472930
O12   O     O_R   0.680360 0.618740 0.500010 -0.484569
O13   O     O_R   0.319640 0.381260 0.499990 -0.488040
O14   O     O_R   0.499970 0.618770 0.316850 -0.522126
O15   O     O_R   0.500030 0.381230 0.683150 -0.518356
O16   O     O_R   0.500030 0.618770 0.683150 -0.489792
O17   O     O_R   0.499970 0.381230 0.316850 -0.490517
O18   O     O_3   0.298303 0.628965 0.903766 -0.528487

loop_
_geom_bond_atom_site_label_1
_geom_bond_atom_site_label_2
_ccdc_geom_bond_type
C19   O6    S    
C7    C10   A    
C22   O13   A    
C11   C12   A    
H8    O6    S    
C11   C18   S    
C21   O9    D    
C2    C27   S    
H10   O10   S    
C17   H6    S    
C12   C22   S    
C2    H17   S    
C16   H2    S    
C5    C28   S    
C10   H13   S    
C26   C28   S    
Cu2   O17   S    
C18   O3    D    
C12   C15   A    
C15   C21   S    
C6    C24   S    
C27   H15   S    
C2    C3    S    
Cu2   N2    S    
Cu1   O14   S    
C26   H14   S    
C24   O14   A    
Cu1   N1    S    
Cu2   O13   S    
C8    H11   S    
H9    O8    S    
C5    C27   S    
C28   H16   S    
C9    H12   S    
C2    C6    S    
C4    O2    S    
C16   O18   S    
H7    O4    S    
C17   O2    S    
C4    C28   S    
C1    C23   S    
C13   C15   A    
C16   H3    S    
C11   C14   A    
C5    C25   S    
Cu2   O15   S    
C7    H1    S    
C17   H4    S    
C13   C19   S    
C23   O12   A    
Cu1   Cu2   S    
Cu1   O16   S    
C14   C20   S    
C25   O16   A    
C23   O11   A    
C4    C27   S    
C1    C13   A    
C16   H18   S    
C21   O10   S    
C4    C6    S    
Cu1   O1    S    
Cu2   O11   S    
C19   O5    D    
C25   O15   A    
C18   O4    S    
C6    C26   S    
C8    C9    A    
C1    C14   A    
C17   H5    S    
C24   O17   A    
C20   O7    D    
Cu1   O12   S    
C10   N1    A    
C20   O8    S    
C8    N1    A    
C3    C26   S    
C9    N2    A    
C3    O18   S    
C7    N2    A    
C22   O1    A    
C3    C5    S    
