data_mof_unit_8052.cif
_audit_creation_date              2012-10-26T20:06:15-0400
_audit_creation_method            fapswitch 2.2
_symmetry_space_group_name_H-M    P1
_symmetry_Int_Tables_number       1
_space_group_crystal_system       triclinic
_cell_length_a                    9.512663
_cell_length_b                    10.809679
_cell_length_c                    13.447294
_cell_angle_alpha                 90.081214
_cell_angle_beta                  72.571599
_cell_angle_gamma                 90.293872
_cell_volume                      1319.27197871

loop_
_atom_site_label
_atom_site_type_symbol
_atom_type_description
_atom_site_fract_x
_atom_site_fract_y
_atom_site_fract_z
_atom_type_partial_charge
C1    C     C_R   0.500237 0.737687 0.500255 0.553179
C2    C     C_R   0.373155 0.490744 0.814894 -0.005962
C3    C     C_R   0.626746 0.937490 0.453504 -0.146528
C4    C     C_R   0.421306 0.494702 0.700175 0.526968
C5    C     C_R   0.624039 0.065337 0.455348 -0.150765
C6    C     C_R   0.494561 0.127862 0.508676 0.027778
C7    C     C_R   0.366250 0.060614 0.564003 -0.013787
C8    C     C_R   0.370037 0.931888 0.558152 -0.122305
C9    C     C_R   0.499133 0.871071 0.503345 0.008759
C10   C     C_R   0.897131 0.572266 0.568376 0.012836
C11   C     C_R   0.045964 0.572087 0.568461 0.007066
C12   C     C_R   0.432484 0.482364 0.979799 0.035073
C13   C     C_R   0.102790 0.427475 0.431802 0.004370
C14   C     C_R   0.953921 0.427545 0.431798 0.006902
C15   C     C_R   0.497654 0.262109 0.503965 0.539897
C16   C     C_R   0.578600 0.498002 0.299980 0.549851
C17   C     C_R   0.785529 0.392785 0.029687 -0.139231
C18   C     C_R   0.622619 0.481071 0.186972 -0.002478
C19   C     C_R   0.232482 0.535549 0.868045 -0.142726
C20   C     C_R   0.189457 0.549477 0.975434 -0.150618
C21   C     C_R   0.288531 0.525925 0.030865 -0.124523
C22   C     C_3   0.228189 0.120355 0.634946 -0.246766
C23   C     C_R   0.469217 0.453495 0.872153 0.023221
C24   C     C_3   0.256466 0.172610 0.733411 -0.278602
C25   C     C_3   0.120298 0.237206 0.803168 -0.452666
C26   C     C_R   0.540798 0.465412 0.032085 0.029664
C27   C     C_R   0.677310 0.409023 0.979262 0.050450
C28   C     C_R   0.703002 0.366914 0.877557 -0.146979
C29   C     C_R   0.599775 0.386996 0.825271 -0.130879
C30   C     C_R   0.518380 0.504211 0.135110 -0.135113
C31   C     C_R   0.758016 0.428025 0.133387 -0.142579
Cu1   Cu    Cu3+1 0.359340 0.499980 0.500000 0.919305
Cu2   Cu    Cu3+1 0.640660 0.500020 0.500000 0.922930
H1    H     H_    0.839867 0.409360 0.172627 0.119236
H2    H     H_    0.419639 0.551989 0.177727 0.118832
H3    H     H_    0.155982 0.561989 0.826301 0.124978
H4    H     H_    0.247579 0.540053 0.113854 0.100758
H5    H     H_    0.079884 0.582534 0.015741 0.122479
H6    H     H_    0.622779 0.346723 0.748562 0.145165
H7    H     H_    0.727299 0.890530 0.411225 0.127797
H8    H     H_    0.091185 0.317426 0.761782 0.164600
H9    H     H_    0.025617 0.171813 0.826324 0.140539
H10   H     H_    0.143304 0.271076 0.874736 0.148690
H11   H     H_    0.286781 0.095864 0.777899 0.157517
H12   H     H_    0.722921 0.115601 0.413545 0.121611
H13   H     H_    0.349305 0.239646 0.712507 0.167458
H14   H     H_    0.185355 0.192198 0.593136 0.177401
H15   H     H_    0.137706 0.050916 0.659916 0.121566
H16   H     H_    0.273614 0.878235 0.599433 0.112622
H17   H     H_    0.818295 0.630301 0.623068 0.117672
H18   H     H_    0.079356 0.629897 0.623217 0.102049
H19   H     H_    0.181569 0.369226 0.377277 0.112627
H20   H     H_    0.920460 0.369485 0.377224 0.102410
H21   H     H_    0.803566 0.318370 0.837966 0.101568
H22   H     H_    0.889888 0.349929 0.989725 0.105965
N1    N     N_R   0.147940 0.499970 0.499970 -0.225952
N2    N     N_R   0.852060 0.500060 0.499990 -0.225059
O1    O     O_R   0.381250 0.680340 0.500010 -0.501057
O2    O     O_R   0.618820 0.680370 0.500010 -0.499459
O3    O     O_R   0.323240 0.499950 0.650980 -0.510750
O4    O     O_R   0.560810 0.499980 0.650980 -0.508925
O5    O     O_R   0.381180 0.319630 0.499990 -0.508147
O6    O     O_R   0.618750 0.319660 0.499990 -0.513243
O7    O     O_R   0.439190 0.500020 0.349020 -0.503798
O8    O     O_R   0.676760 0.500050 0.349020 -0.502892

loop_
_geom_bond_atom_site_label_1
_geom_bond_atom_site_label_2
_ccdc_geom_bond_type
C25   H9    S    
C24   H11   S    
C2    C4    S    
C4    O4    A    
C6    C7    A    
C3    C9    A    
Cu2   N2    S    
C7    C22   S    
C20   H5    S    
C17   H22   S    
C22   H15   S    
C19   C20   A    
Cu1   O1    S    
Cu2   O6    S    
C13   N1    A    
C24   H13   S    
Cu1   Cu2   S    
C25   H10   S    
C22   H14   S    
C2    C19   A    
C31   H1    S    
Cu1   O5    S    
C7    C8    A    
Cu2   O2    S    
C13   C14   A    
C24   C25   S    
C12   C23   A    
C4    O3    A    
C26   C27   A    
C30   H2    S    
C18   C30   A    
C12   C21   A    
Cu2   O4    S    
C28   C29   A    
C16   O8    A    
C15   O5    A    
C3    H7    S    
C26   C30   A    
C19   H3    S    
C1    O2    A    
C5    C6    A    
C17   C31   A    
C10   N2    A    
C22   C24   S    
C11   H18   S    
C10   C11   A    
Cu1   O3    S    
C13   H19   S    
Cu2   O8    S    
C17   C27   A    
C23   C29   A    
C27   C28   A    
C14   H20   S    
C1    C9    S    
C20   C21   A    
Cu1   O7    S    
C21   H4    S    
C16   C18   S    
C25   H8    S    
C2    C23   A    
C14   N2    A    
C28   H21   S    
C15   O6    A    
C18   C31   A    
C16   O7    A    
C6    C15   S    
C1    O1    A    
C5    H12   S    
C8    H16   S    
Cu1   N1    S    
C29   H6    S    
C11   N1    A    
C12   C26   A    
C8    C9    A    
C3    C5    A    
C10   H17   S    
