data_mof_unit_54378.cif
_audit_creation_date              2012-12-11T17:14:56-0500
_audit_creation_method            fapswitch 2.2
_symmetry_space_group_name_H-M    P1
_symmetry_Int_Tables_number       1
_space_group_crystal_system       triclinic
_cell_length_a                    7.221582
_cell_length_b                    12.165393
_cell_length_c                    21.297645
_cell_angle_alpha                 90.013821
_cell_angle_beta                  90.776863
_cell_angle_gamma                 90.114693
_cell_volume                      1870.8943622

loop_
_atom_site_label
_atom_site_type_symbol
_atom_type_description
_atom_site_fract_x
_atom_site_fract_y
_atom_site_fract_z
_atom_type_partial_charge
O1    O     O_R   0.354460 0.152320 0.595720 -0.533971
O2    O     O_R   0.645540 0.847680 0.404280 -0.533967
O3    O     O_R   0.145540 0.652320 0.404280 -0.534055
O4    O     O_R   0.854460 0.347680 0.595720 -0.534055
O5    O     O_R   0.683670 0.140090 0.727290 -0.540207
O6    O     O_R   0.316330 0.859910 0.272710 -0.540209
O7    O     O_R   0.816330 0.640090 0.272710 -0.539672
O8    O     O_R   0.183670 0.359910 0.727290 -0.539671
O9    O     O_R   0.854010 0.349340 0.727750 -0.537926
O10   O     O_R   0.145990 0.650660 0.272250 -0.537924
O11   O     O_R   0.645990 0.849340 0.272250 -0.537441
O12   O     O_R   0.354010 0.150660 0.727750 -0.537445
C1    C     C_R   0.516513 0.111943 0.746701 0.690836
C2    C     C_R   0.483488 0.888058 0.253300 0.690838
C3    C     C_R   0.983076 0.611860 0.253277 0.691134
C4    C     C_R   0.016924 0.388139 0.746724 0.691133
O13   O     O_R   0.684170 0.139420 0.596190 -0.534298
O14   O     O_R   0.315830 0.860580 0.403810 -0.534302
O15   O     O_R   0.815830 0.639420 0.403810 -0.533307
O16   O     O_R   0.184170 0.360580 0.596190 -0.533304
C5    C     C_R   0.514873 0.113129 0.574457 0.729464
C6    C     C_R   0.485127 0.886871 0.425543 0.729465
C7    C     C_R   0.984989 0.613111 0.425548 0.728973
C8    C     C_R   0.015011 0.386889 0.574452 0.728978
O17   O     O_3   0.520730 0.319480 0.661730 -0.376266
O18   O     O_3   0.479270 0.680520 0.338270 -0.376267
O19   O     O_3   0.979270 0.819480 0.338270 -0.376662
O20   O     O_3   0.020730 0.180520 0.661730 -0.376663
V1    V     V_3+5 0.795560 0.238090 0.661730 1.468237
V2    V     V_3+5 0.204440 0.761910 0.338270 1.468231
V3    V     V_3+5 0.704440 0.738090 0.338270 1.472217
V4    V     V_3+5 0.295560 0.261910 0.661730 1.472217
C9    C     C_R   0.015070 0.468195 0.797906 -0.078461
C10   C     C_R   0.984934 0.531808 0.202092 -0.078454
C11   C     C_R   0.487984 0.967751 0.202057 -0.076975
C12   C     C_R   0.512029 0.032251 0.797944 -0.076977
C13   C     C_R   0.061431 0.652022 0.838335 -0.203270
C14   C     C_R   0.938670 0.347975 0.161662 -0.203274
C15   C     C_R   0.482956 0.153918 0.162581 -0.203550
C16   C     C_R   0.517253 0.846088 0.837424 -0.203552
C17   C     C_R   0.051005 0.580109 0.787398 -0.052599
C18   C     C_R   0.949064 0.419887 0.212599 -0.052605
C19   C     C_R   0.481855 0.081357 0.213274 -0.053594
C20   C     C_R   0.518289 0.918647 0.786730 -0.053591
C21   C     C_R   0.990801 0.429125 0.858879 -0.227895
C22   C     C_R   0.009164 0.570887 0.141120 -0.227889
C23   C     C_R   0.495342 0.927631 0.140748 -0.227137
C24   C     C_R   0.504619 0.072372 0.859252 -0.227148
C25   C     C_R   0.005894 0.499823 0.911354 0.083547
C26   C     C_R   0.994139 0.500186 0.088644 0.083549
C27   C     C_R   0.495297 0.999396 0.088635 0.084783
C28   C     C_R   0.504807 0.000611 0.911368 0.084778
C29   C     C_R   0.040634 0.612879 0.899826 0.119720
C30   C     C_R   0.959450 0.387123 0.100172 0.119728
C31   C     C_R   0.488947 0.114070 0.100776 0.118464
C32   C     C_R   0.511242 0.885938 0.899228 0.118464
C33   C     C_R   0.990511 0.461776 0.974635 0.055713
C34   C     C_R   0.009541 0.538233 0.025363 0.055705
C35   C     C_R   0.500613 0.961109 0.025168 0.056261
C36   C     C_R   0.499539 0.038900 0.974835 0.056266
C37   C     C_R   0.042153 0.650168 0.011092 -0.195450
C38   C     C_R   0.957951 0.349836 0.988907 -0.195454
C39   C     C_R   0.493396 0.152251 0.989660 -0.196715
C40   C     C_R   0.506851 0.847759 0.010345 -0.196723
C41   C     C_R   0.056826 0.686283 0.949669 -0.191707
C42   C     C_R   0.943299 0.313717 0.050330 -0.191721
C43   C     C_R   0.488071 0.188577 0.051272 -0.194036
C44   C     C_R   0.512196 0.811433 0.948734 -0.194028
H1    H     H_    0.082759 0.772824 0.941157 0.140576
H2    H     H_    0.917418 0.227172 0.058841 0.140580
H3    H     H_    0.483340 0.276300 0.060220 0.139360
H4    H     H_    0.517008 0.723711 0.939787 0.139355
H5    H     H_    0.034600 0.657729 0.136614 0.102648
H6    H     H_    0.965270 0.342292 0.863383 0.102652
H7    H     H_    0.500333 0.160393 0.864191 0.100879
H8    H     H_    0.499461 0.839607 0.135807 0.100867
H9    H     H_    0.088857 0.738559 0.830100 0.129298
H10   H     H_    0.911291 0.261432 0.169896 0.129297
H11   H     H_    0.478494 0.241782 0.171312 0.129246
H12   H     H_    0.521794 0.758225 0.828696 0.129247
H13   H     H_    0.057916 0.713078 0.046248 0.128500
H14   H     H_    0.942246 0.286921 0.953753 0.128502
H15   H     H_    0.492452 0.216210 0.954819 0.129043
H16   H     H_    0.507909 0.783803 0.045187 0.129048
C45   C     C_1   0.995493 0.533128 0.478079 -0.131155
C46   C     C_1   0.004507 0.466872 0.521921 -0.131153
C47   C     C_1   0.504327 0.033141 0.521924 -0.130124
C48   C     C_1   0.495673 0.966859 0.478076 -0.130122
C49   C     C_1   0.922079 0.377488 0.275156 0.290238
N1    N     N_1   0.900421 0.343552 0.325287 -0.336408
C50   C     C_1   0.078018 0.622498 0.724841 0.290254
N2    N     N_1   0.099698 0.656422 0.674708 -0.336418
C51   C     C_1   0.525329 0.875158 0.723709 0.291115
N3    N     N_1   0.530940 0.840351 0.673196 -0.337367
C52   C     C_1   0.474871 0.124844 0.276297 0.291115
N4    N     N_1   0.469304 0.159649 0.326811 -0.337359

loop_
_geom_bond_atom_site_label_1
_geom_bond_atom_site_label_2
_ccdc_geom_bond_type
C47   C48   T    
C5    C47   S    
O1    C5    A    
C51   N3    T    
O13   V1    S    
O3    C7    A    
C52   N4    T    
C10   C18   A    
O15   V3    S    
C25   C33   A    
C33   C38   A    
C45   C46   T    
C35   C40   A    
C26   C30   A    
C36   C39   A    
C40   C44   A    
O20   V1    S    
O9    C4    A    
C23   H8    S    
C14   C18   A    
O10   C3    A    
O4    C8    A    
O11   C2    A    
C25   C29   A    
C43   H3    S    
C9    C21   A    
C40   H16   S    
C20   C51   S    
C28   C36   A    
C15   C31   A    
O16   C8    A    
C16   C32   A    
O2    C6    A    
C19   C52   S    
C16   H12   S    
C10   C22   A    
C6    C48   S    
C11   C19   A    
C3    C10   S    
O5    C1    A    
O4    V1    S    
O9    V1    S    
C13   C29   A    
C34   C37   A    
O7    C3    A    
C38   H14   S    
C11   C23   A    
C35   C36   A    
O8    C4    A    
O12   V4    S    
O19   V2    S    
C24   H7    S    
O5    V1    S    
C39   C43   A    
O7    V3    S    
C38   C42   A    
O8    V4    S    
C1    C12   S    
C2    C11   S    
C23   C27   A    
C14   H10   S    
C32   C44   A    
C13   H9    S    
O1    V4    S    
O13   C5    A    
C39   H15   S    
O2    V3    S    
C26   C34   A    
O3    V2    S    
O15   C7    A    
C4    C9    S    
O6    C2    A    
O10   V2    S    
C31   C43   A    
C14   C30   A    
C21   C25   A    
C44   H4    S    
O14   V2    S    
O6    V2    S    
C16   C20   A    
C12   C20   A    
C27   C35   A    
C50   N2    T    
C29   C41   A    
O16   V4    S    
C17   C50   S    
O14   C6    A    
O18   V3    S    
C15   C19   A    
C30   C42   A    
C22   C26   A    
C18   C49   S    
C9    C17   A    
C37   H13   S    
C33   C34   A    
C42   H2    S    
O17   V4    S    
C41   H1    S    
C12   C24   A    
C27   C31   A    
C13   C17   A    
O11   V3    S    
C37   C41   A    
C24   C28   A    
O12   C1    A    
C7    C45   S    
C21   H6    S    
C49   N1    T    
C8    C46   S    
C22   H5    S    
C28   C32   A    
C15   H11   S    
