data_mof_unit_33808.cif
_audit_creation_date              2012-10-26T20:08:11-0400
_audit_creation_method            fapswitch 2.2
_symmetry_space_group_name_H-M    P1
_symmetry_Int_Tables_number       1
_space_group_crystal_system       triclinic
_cell_length_a                    10.939222
_cell_length_b                    10.845627
_cell_length_c                    9.526724
_cell_angle_alpha                 88.890263
_cell_angle_beta                  90.684594
_cell_angle_gamma                 91.053123
_cell_volume                      1129.79760412

loop_
_atom_site_label
_atom_site_type_symbol
_atom_type_description
_atom_site_fract_x
_atom_site_fract_y
_atom_site_fract_z
_atom_type_partial_charge
C1    C     C_R   0.502758 0.262560 0.501426 0.545744
C2    C     C_R   0.604499 0.064681 0.555899 -0.014091
C3    C     C_R   0.503428 0.871733 0.494194 0.024533
C4    C     C_R   0.501380 0.128332 0.504132 0.024257
C5    C     C_R   0.485635 0.392543 0.076013 0.010181
C6    C     C_R   0.514509 0.607460 0.923992 0.010452
C7    C     C_R   0.486108 0.392561 0.927793 -0.013305
C8    C     C_R   0.514197 0.607435 0.072241 -0.001125
C9    C     C_R   0.261824 0.493500 0.498473 0.526996
C10   C     C_R   0.737809 0.506646 0.501556 0.529896
C11   C     C_R   0.192919 0.506105 0.015333 -0.099129
C12   C     C_R   0.500071 0.737487 0.498477 0.547313
C13   C     C_R   0.808627 0.538813 0.991601 -0.114865
C14   C     C_R   0.145070 0.530617 0.146013 0.051341
C15   C     C_R   0.845908 0.496139 0.862216 0.054095
C16   C     C_R   0.102664 0.432786 0.234324 0.074577
C17   C     C_R   0.897141 0.579688 0.761866 0.064427
C18   C     C_R   0.087772 0.311126 0.177830 0.022954
C19   C     C_R   0.922183 0.704941 0.800887 0.037536
C20   C     C_R   0.131181 0.290590 0.038713 0.019963
C21   C     C_R   0.879752 0.746554 0.933007 0.044090
C22   C     C_R   0.188492 0.387941 0.963866 -0.114736
C23   C     C_R   0.871737 0.510263 0.504304 -0.027167
C24   C     C_R   0.823864 0.661686 0.025809 -0.129656
C25   C     C_R   0.929407 0.483052 0.378955 -0.159575
C26   C     C_R   0.069004 0.515264 0.621258 -0.162761
C27   C     C_3   0.131426 0.662851 0.186174 -0.394799
C28   C     C_3   0.832260 0.359843 0.839094 -0.383179
C29   C     C_3   0.015038 0.204109 0.248866 -0.279577
C30   C     C_3   0.989578 0.204204 0.406652 -0.442534
C31   C     C_3   0.997578 0.791194 0.705154 -0.287029
C32   C     C_3   0.129014 0.809075 0.759140 -0.446798
C33   C     C_3   0.113086 0.165388 0.969257 -0.289572
C34   C     C_R   0.127149 0.489339 0.495797 -0.028951
C35   C     C_3   0.136705 0.162531 0.810979 -0.459294
C36   C     C_3   0.896267 0.878279 0.983399 -0.286124
C37   C     C_3   0.774280 0.938943 0.013320 -0.453794
C38   C     C_3   0.286725 0.132428 0.399888 -0.391124
C39   C     C_3   0.723388 0.867191 0.580827 -0.395603
C40   C     C_3   0.294892 0.862481 0.380301 -0.401480
C41   C     C_3   0.707180 0.135953 0.627241 -0.394622
C42   C     C_R   0.943762 0.532076 0.626884 -0.030981
C43   C     C_R   0.054577 0.466877 0.373404 -0.015954
C44   C     C_R   0.399395 0.064584 0.447925 -0.015784
C45   C     C_R   0.607703 0.935504 0.544541 -0.013139
C46   C     C_R   0.400811 0.935311 0.442194 -0.016748
Cu1   Cu    Cu3+1 0.500000 0.500020 0.640660 0.907521
Cu2   Cu    Cu3+1 0.500000 0.499980 0.359340 0.916078
H1    H     H_    0.226824 0.375205 0.861454 0.138358
H2    H     H_    0.527730 0.694213 0.868468 0.123511
H3    H     H_    0.033186 0.685136 0.189933 0.126682
H4    H     H_    0.170053 0.675315 0.291926 0.144606
H5    H     H_    0.177353 0.728093 0.111584 0.105836
H6    H     H_    0.866057 0.330864 0.736007 0.132494
H7    H     H_    0.883631 0.308865 0.921950 0.117665
H8    H     H_    0.734286 0.333734 0.847636 0.139087
H9    H     H_    0.066890 0.242533 0.468576 0.154100
H10   H     H_    0.904958 0.254152 0.427495 0.155311
H11   H     H_    0.972727 0.107942 0.444721 0.121065
H12   H     H_    0.794458 0.690024 0.128236 0.117719
H13   H     H_    0.925537 0.194804 0.193295 0.133147
H14   H     H_    0.063913 0.117063 0.231883 0.128865
H15   H     H_    0.131320 0.843264 0.868104 0.142319
H16   H     H_    0.179794 0.722042 0.756818 0.155770
H17   H     H_    0.177746 0.877192 0.690552 0.139158
H18   H     H_    0.000878 0.757659 0.596107 0.146881
H19   H     H_    0.954973 0.882537 0.693930 0.122347
H20   H     H_    0.084321 0.235342 0.754521 0.151732
H21   H     H_    0.235881 0.173973 0.789406 0.152588
H22   H     H_    0.105639 0.072454 0.769398 0.133266
H23   H     H_    0.473724 0.306058 0.874796 0.109553
H24   H     H_    0.172738 0.096791 0.022756 0.131827
H25   H     H_    0.016662 0.134718 0.982695 0.132963
H26   H     H_    0.790811 0.037421 0.038630 0.126708
H27   H     H_    0.712213 0.934519 0.920677 0.149966
H28   H     H_    0.728569 0.893544 0.104491 0.146635
H29   H     H_    0.952587 0.877583 0.081229 0.128719
H30   H     H_    0.945253 0.938732 0.907825 0.143458
H31   H     H_    0.287927 0.232128 0.421981 0.153110
H32   H     H_    0.274476 0.121973 0.284948 0.132813
H33   H     H_    0.207503 0.092666 0.457423 0.121495
H34   H     H_    0.526753 0.693914 0.125239 0.110742
H35   H     H_    0.720356 0.768165 0.555151 0.145818
H36   H     H_    0.800324 0.907976 0.519578 0.111178
H37   H     H_    0.741735 0.873823 0.694734 0.138507
H38   H     H_    0.259894 0.795432 0.460418 0.129613
H39   H     H_    0.216338 0.917098 0.342653 0.110225
H40   H     H_    0.328518 0.813558 0.287664 0.147658
H41   H     H_    0.672855 0.167224 0.729118 0.133313
H42   H     H_    0.790679 0.082690 0.649532 0.115725
H43   H     H_    0.734812 0.217071 0.561841 0.131074
H44   H     H_    0.230899 0.579835 0.950230 0.111503
H45   H     H_    0.767400 0.475570 0.067421 0.124133
H46   H     H_    0.876131 0.466742 0.284448 0.138213
H47   H     H_    0.121932 0.528242 0.716288 0.137478
H48   H     H_    0.472451 0.305790 0.131534 0.123605
N1    N     N_R   0.500030 0.500030 0.852070 -0.227345
N2    N     N_R   0.499970 0.499970 0.147930 -0.224347
O1    O     O_R   0.499990 0.319660 0.618740 -0.518414
O2    O     O_R   0.500010 0.680340 0.381260 -0.517417
O3    O     O_R   0.499990 0.319630 0.381170 -0.511933
O4    O     O_R   0.500010 0.680370 0.618830 -0.511044
O5    O     O_R   0.319650 0.500020 0.618780 -0.516319
O6    O     O_R   0.680350 0.499980 0.381220 -0.513474
O7    O     O_R   0.319640 0.500000 0.381210 -0.488265
O8    O     O_R   0.680360 0.500000 0.618790 -0.488442

loop_
_geom_bond_atom_site_label_1
_geom_bond_atom_site_label_2
_ccdc_geom_bond_type
C31   H18   S    
C41   H41   S    
C37   H26   S    
C19   C31   S    
C25   C43   A    
C28   H8    S    
C21   C36   S    
C40   C46   S    
C3    C46   A    
C23   C42   A    
C8    H34   S    
C40   H39   S    
C36   C37   S    
C19   C21   A    
C39   H36   S    
C36   H29   S    
C7    H23   S    
C11   C14   A    
C38   H31   S    
C2    C41   S    
C9    O7    A    
Cu2   O6    S    
C30   H9    S    
Cu1   O1    S    
C40   H38   S    
C8    N2    A    
C17   C42   S    
C3    C12   S    
C33   H24   S    
C17   C19   A    
C11   H44   S    
C26   C34   A    
Cu1   Cu2   S    
C35   H22   S    
C27   H3    S    
C14   C27   S    
C9    O5    A    
C39   C45   S    
C41   H42   S    
C37   H27   S    
C25   H46   S    
Cu1   O4    S    
C1    O1    A    
C28   H7    S    
C44   C46   A    
C38   C44   S    
C2    C45   A    
Cu2   O2    S    
C29   H13   S    
Cu1   O5    S    
C6    N1    A    
C32   H16   S    
C5    C7    A    
C28   H6    S    
C6    C8    A    
C4    C44   A    
C3    C45   A    
C13   C24   A    
C13   H45   S    
C2    C4    A    
C12   O4    A    
C29   C30   S    
Cu2   O7    S    
C24   H12   S    
Cu1   O8    S    
C30   H11   S    
C18   C29   S    
C6    H2    S    
C16   C43   S    
C22   H1    S    
C20   C33   S    
C33   H25   S    
C41   H43   S    
C37   H28   S    
C20   C22   A    
C13   C15   A    
C38   H33   S    
C9    C34   S    
C14   C16   A    
C10   O8    A    
C39   H37   S    
C1    O3    A    
C5    H48   S    
C27   H4    S    
C26   C42   A    
C26   H47   S    
C15   C17   A    
C29   H14   S    
C7    N1    A    
C31   C32   S    
C34   C43   A    
C32   H15   S    
C27   H5    S    
C10   C23   S    
Cu2   N2    S    
C11   C22   A    
Cu1   N1    S    
C1    C4    S    
C40   H40   S    
C10   O6    A    
C39   H35   S    
C36   H30   S    
C15   C28   S    
C38   H32   S    
C35   H20   S    
Cu2   O3    S    
C30   H10   S    
C33   C35   S    
C18   C20   A    
C23   C25   A    
C12   O2    A    
C31   H19   S    
C5    N2    A    
C35   H21   S    
C16   C18   A    
C21   C24   A    
C32   H17   S    
