data_mof_unit_19901.cif
_audit_creation_date              2012-10-26T20:48:50-0400
_audit_creation_method            fapswitch 2.2
_symmetry_space_group_name_H-M    P1
_symmetry_Int_Tables_number       1
_space_group_crystal_system       triclinic
_cell_length_a                    15.138032
_cell_length_b                    13.869696
_cell_length_c                    9.102038
_cell_angle_alpha                 90.028992
_cell_angle_beta                  90.160285
_cell_angle_gamma                 90.00273
_cell_volume                      1911.05528042

loop_
_atom_site_label
_atom_site_type_symbol
_atom_type_description
_atom_site_fract_x
_atom_site_fract_y
_atom_site_fract_z
_atom_type_partial_charge
C1    C     C_R   0.330017 0.499992 0.499916 0.550675
C2    C     C_R   0.543813 0.892074 0.610439 -0.139564
C3    C     C_R   0.499965 0.499988 0.220503 0.555177
C4    C     C_R   0.500037 0.500018 0.779497 0.555168
C5    C     C_R   0.500023 0.054641 0.499983 0.024650
C6    C     C_R   0.500027 0.945279 0.499982 0.025040
C7    C     C_1   0.499988 0.499992 0.065468 -0.063912
C8    C     C_1   0.500015 0.500032 0.934532 -0.063902
C9    C     C_R   0.095794 0.575122 0.429258 0.242066
C10   C     C_R   0.904432 0.418931 0.446513 0.239227
C11   C     C_R   0.904628 0.580940 0.554109 0.239828
C12   C     C_R   0.670088 0.499996 0.500102 0.551467
C13   C     C_R   0.096102 0.424773 0.570936 0.241513
C14   C     C_R   0.187657 0.575832 0.434035 -0.136481
C15   C     C_R   0.812568 0.418818 0.451067 -0.144692
C16   C     C_R   0.812747 0.581069 0.549533 -0.141272
C17   C     C_R   0.187937 0.424057 0.565851 -0.139956
C18   C     C_R   0.233809 0.499957 0.499911 -0.083852
C19   C     C_R   0.766498 0.499966 0.500228 -0.085259
C20   C     C_R   0.048989 0.499949 0.500169 0.037154
C21   C     C_R   0.951530 0.499940 0.500281 0.043674
C22   C     C_3   0.020916 0.630746 0.227546 -0.005352
C23   C     C_R   0.567851 0.209360 0.564147 0.047465
C24   C     C_3   0.954265 0.707173 0.181878 -0.350679
C25   C     C_3   0.975746 0.344954 0.256631 -0.004610
C26   C     C_3   0.016286 0.249910 0.207795 -0.357099
C27   C     C_3   0.976776 0.654674 0.744036 -0.005565
C28   C     C_3   0.016409 0.750060 0.793764 -0.355559
C29   C     C_3   0.021894 0.369300 0.772804 -0.003556
C30   C     C_3   0.954683 0.293465 0.817913 -0.352682
C31   C     C_R   0.456501 0.790557 0.392205 0.048977
C32   C     C_R   0.432167 0.209298 0.435830 0.048102
C33   C     C_R   0.543519 0.790627 0.607779 0.047894
C34   C     C_R   0.569487 0.107915 0.564361 -0.139703
C35   C     C_R   0.456235 0.892000 0.389527 -0.139346
C36   C     C_R   0.430551 0.107854 0.435605 -0.139409
Cu1   Cu    Cu3+1 0.500000 0.596430 0.500000 0.938591
Cu2   Cu    Cu3+1 0.500000 0.403570 0.500000 0.939202
H1    H     H_    0.621515 0.248512 0.615283 0.123643
H2    H     H_    0.422747 0.927894 0.299844 0.090332
H3    H     H_    0.374299 0.071906 0.386719 0.091711
H4    H     H_    0.577314 0.928030 0.700110 0.089931
H5    H     H_    0.986236 0.560189 0.224295 0.095715
H6    H     H_    0.076262 0.629700 0.147398 0.114347
H7    H     H_    0.987180 0.778480 0.172899 0.156368
H8    H     H_    0.924516 0.687964 0.074347 0.074311
H9    H     H_    0.900619 0.711803 0.264620 0.184876
H10   H     H_    0.027852 0.400966 0.247721 0.110961
H11   H     H_    0.919766 0.363022 0.181863 0.108047
H12   H     H_    0.421950 0.751238 0.307010 0.121770
H13   H     H_    0.964876 0.192820 0.204484 0.153614
H14   H     H_    0.045593 0.257872 0.096892 0.082913
H15   H     H_    0.069343 0.228170 0.285579 0.179891
H16   H     H_    0.029571 0.599364 0.752201 0.112974
H17   H     H_    0.921354 0.635492 0.818805 0.105704
H18   H     H_    0.964341 0.806396 0.797829 0.151848
H19   H     H_    0.046302 0.742003 0.904496 0.083500
H20   H     H_    0.068854 0.772908 0.716065 0.183347
H21   H     H_    0.987822 0.440193 0.776241 0.094586
H22   H     H_    0.077389 0.369678 0.853186 0.115857
H23   H     H_    0.378504 0.248403 0.384681 0.125281
H24   H     H_    0.925183 0.312905 0.925261 0.073898
H25   H     H_    0.987043 0.221852 0.827040 0.156802
H26   H     H_    0.900919 0.289378 0.734813 0.181007
H27   H     H_    0.578064 0.751361 0.692974 0.121372
H28   H     H_    0.222928 0.635115 0.383478 0.145021
H29   H     H_    0.777324 0.355383 0.413490 0.150046
H30   H     H_    0.777633 0.644480 0.587200 0.148483
H31   H     H_    0.223419 0.364769 0.616298 0.148822
H32   H     H_    0.625747 0.072014 0.613237 0.091329
N1    N     N_R   0.500000 0.258690 0.500000 -0.221885
N2    N     N_R   0.500000 0.741310 0.500000 -0.221293
O1    O     O_R   0.371460 0.581430 0.500010 -0.498702
O2    O     O_3   0.946718 0.335307 0.402887 -0.509016
O3    O     O_3   0.947058 0.664533 0.597916 -0.508539
O4    O     O_3   0.053631 0.346028 0.631590 -0.507499
O5    O     O_R   0.628540 0.418570 0.499990 -0.512363
O6    O     O_R   0.628540 0.581430 0.499990 -0.500632
O7    O     O_R   0.371460 0.418570 0.500010 -0.511305
O8    O     O_R   0.500000 0.581420 0.288390 -0.504749
O9    O     O_R   0.500000 0.418580 0.711610 -0.492296
O10   O     O_R   0.500000 0.581420 0.711610 -0.504157
O11   O     O_R   0.500000 0.418580 0.288390 -0.492047
O12   O     O_3   0.053052 0.653893 0.368844 -0.507243

loop_
_geom_bond_atom_site_label_1
_geom_bond_atom_site_label_2
_ccdc_geom_bond_type
C17   H31   S    
C30   H26   S    
Cu2   O11   S    
C14   C18   A    
C4    C8    S    
C28   H18   S    
C27   H16   S    
C33   H27   S    
C7    C8    T    
C29   O4    S    
C28   H19   S    
C15   C19   A    
C1    C18   S    
C29   C30   S    
C24   H7    S    
C32   C36   A    
C32   H23   S    
C3    C7    S    
C10   C15   A    
C5    C6    S    
C27   H17   S    
Cu2   O7    S    
C5    C36   A    
C6    C35   A    
C25   O2    S    
C33   N2    A    
C22   H6    S    
C4    O9    A    
C29   H21   S    
C12   O6    A    
C13   O4    S    
C16   H30   S    
C34   H32   S    
C30   H25   S    
C5    C34   A    
C36   H3    S    
C2    C6    A    
C27   O3    S    
C3    O8    A    
C32   N1    A    
C10   C21   A    
Cu1   O8    S    
C23   N1    A    
C25   C26   S    
C11   C21   A    
C22   O12   S    
C9    C14   A    
Cu1   Cu2   S    
C26   H14   S    
C11   C16   A    
C9    C20   A    
C22   H5    S    
C29   H22   S    
C23   C34   A    
C15   H29   S    
C12   O5    A    
C17   C18   A    
C14   H28   S    
C25   H10   S    
C2    C33   A    
C31   N2    A    
C30   H24   S    
Cu2   O9    S    
C3    O11   A    
C1    O7    A    
C22   C24   S    
Cu1   O10   S    
C31   H12   S    
C26   H15   S    
Cu1   O1    S    
Cu2   N1    S    
C13   C20   A    
C24   H9    S    
Cu2   O5    S    
C28   H20   S    
Cu1   O6    S    
C13   C17   A    
C1    O1    A    
C35   H2    S    
C24   H8    S    
C11   O3    S    
C26   H13   S    
C10   O2    S    
C2    H4    S    
C16   C19   A    
C23   H1    S    
C12   C19   S    
C31   C35   A    
C25   H11   S    
C9    O12   S    
C4    O10   A    
C20   C21   S    
Cu1   N2    S    
C27   C28   S    
