data_mof_unit_46608.cif
_audit_creation_date              2013-03-05T16:44:36-0500
_audit_creation_method            fapswitch 2.2
_symmetry_space_group_name_H-M    P1
_symmetry_Int_Tables_number       1
_space_group_crystal_system       triclinic
_cell_length_a                    27.622005
_cell_length_b                    10.644772
_cell_length_c                    9.864144
_cell_angle_alpha                 90.132476
_cell_angle_beta                  90.093519
_cell_angle_gamma                 89.942517
_cell_volume                      2900.34065702

loop_
_atom_site_label
_atom_site_type_symbol
_atom_site_description
_atom_site_fract_x
_atom_site_fract_y
_atom_site_fract_z
_atom_type_partial_charge
O1    O     O_R   0.500010 0.316790 0.614690 -0.620846
O2    O     O_R   0.500000 0.316760 0.385350 -0.606926
C1    C     C_R   0.501555 0.260546 0.499970 0.890407
O3    O     O_R   0.428760 0.500040 0.614660 -0.608783
O4    O     O_R   0.428750 0.500000 0.385310 -0.606712
C2    C     C_R   0.406057 0.498249 0.500101 0.978877
Zn1   Zn    Zn3+2 0.500000 0.500020 0.653130 0.982300
Zn2   Zn    Zn3+2 0.500000 0.499980 0.346870 0.980498
O5    O     O_R   0.500000 0.683240 0.614650 -0.595347
O6    O     O_R   0.499990 0.683210 0.385310 -0.616311
O7    O     O_R   0.571250 0.500000 0.614690 -0.625598
O8    O     O_R   0.571240 0.499960 0.385340 -0.648972
C3    C     C_R   0.501951 0.739388 0.500141 0.903839
C4    C     C_R   0.594067 0.499677 0.500229 0.847859
C5    C     C_R   0.178203 0.355669 0.457779 0.648098
O9    O     O_2   0.204278 0.272311 0.385375 -0.451105
N1    N     N_R   0.201769 0.452233 0.520911 -0.339380
C6    C     C_R   0.178202 0.537869 0.599617 0.619138
C7    C     C_R   0.274927 0.525223 0.400002 -0.023785
C8    C     C_R   0.325355 0.535844 0.397058 -0.243933
C9    C     C_R   0.331584 0.422809 0.609359 -0.153180
C10   C     C_R   0.281759 0.409401 0.613307 0.320775
C11   C     C_R   0.253142 0.461193 0.509857 0.211065
C12   C     C_R   0.102337 0.435534 0.546749 -0.082314
C13   C     C_R   0.127426 0.344680 0.468315 -0.109500
C14   C     C_R   0.100644 0.248449 0.403313 0.338316
C15   C     C_R   0.128183 0.530435 0.615341 -0.057659
C16   C     C_R   0.353553 0.486348 0.501970 -0.041649
H1    H     H_    0.353213 0.381495 0.689301 0.172753
C17   C     C_R   0.646939 0.495388 0.501834 -0.094109
C18   C     C_R   0.973747 0.335135 0.500992 0.009632
C19   C     C_R   0.976356 0.544224 0.603866 0.008511
C20   C     C_R   0.949542 0.443881 0.547959 0.106724
C21   C     C_R   0.946023 0.230575 0.461649 -0.226147
C22   C     C_R   0.895802 0.235328 0.456771 0.354850
C23   C     C_R   0.871338 0.348190 0.490691 -0.120934
C24   C     C_R   0.898574 0.453556 0.535853 -0.080816
C25   C     C_R   0.875090 0.568964 0.567387 -0.078287
C26   C     C_R   0.824899 0.577191 0.543888 0.550027
N2    N     N_R   0.799211 0.472737 0.509732 -0.346497
C27   C     C_R   0.820693 0.360171 0.483254 0.592571
C28   C     C_R   0.723524 0.492786 0.383248 -0.090869
C29   C     C_R   0.673255 0.500047 0.380347 -0.179724
C30   C     C_R   0.671471 0.483686 0.625933 -0.215362
C31   C     C_R   0.721629 0.475949 0.628981 0.319635
C32   C     C_R   0.747683 0.480613 0.507238 0.236871
O10   O     O_2   0.792542 0.261361 0.450531 -0.463151
C33   C     C_R   0.024954 0.335990 0.491381 0.027539
C34   C     C_R   0.051285 0.433279 0.555417 0.103401
C35   C     C_R   0.026684 0.529710 0.626822 -0.030999
C36   C     C_R   0.050482 0.245232 0.415672 -0.235247
H2    H     H_    0.655076 0.508897 0.283454 0.176574
H3    H     H_    0.743782 0.496327 0.289435 0.175557
H4    H     H_    0.962689 0.141761 0.436924 0.188720
H5    H     H_    0.031982 0.173171 0.358762 0.181751
O11   O     O_2   0.203385 0.629985 0.662262 -0.491374
C37   C     C_R   0.104043 0.612844 0.702607 -0.056505
H6    H     H_    0.342617 0.585669 0.314860 0.164567
H7    H     H_    0.124624 0.677329 0.765326 0.234986
C38   C     C_R   0.952993 0.659361 0.626630 -0.210671
C39   C     C_R   0.902938 0.672207 0.615355 -0.016691
O12   O     O_2   0.801458 0.688077 0.552087 -0.531091
C40   C     C_R   0.053758 0.609003 0.715182 -0.068799
H8    H     H_    0.973844 0.741778 0.652933 0.192244
H9    H     H_    0.651815 0.479182 0.720724 0.186148
C41   C     C_R   0.475999 0.063708 0.587512 -0.007409
C42   C     C_R   0.506601 0.128854 0.502035 -0.128556
C43   C     C_R   0.543715 0.066233 0.429580 -0.067054
C44   C     C_R   0.544812 0.933340 0.433481 -0.062263
C45   C     C_R   0.506742 0.871108 0.502054 -0.130881
C46   C     C_R   0.476011 0.936836 0.587395 -0.010974
C47   C     C_3   0.422782 0.928343 0.614653 0.124811
C48   C     C_3   0.422556 0.072265 0.612556 0.067629
H10   H     H_    0.415677 0.890313 0.717379 0.160854
H11   H     H_    0.414546 0.114216 0.713389 0.123161
C49   C     C_R   0.464446 0.559540 0.071392 0.184190
N3    N     N_R   0.499670 0.499140 0.142800 -0.114182
C50   C     C_R   0.537308 0.447337 0.071996 -0.097046
H12   H     H_    0.566893 0.403583 0.126247 0.163818
C51   C     C_R   0.537312 0.447375 0.928042 -0.104745
H13   H     H_    0.566912 0.403711 0.873858 0.162765
N4    N     N_R   0.499670 0.499180 0.857150 -0.134039
C52   C     C_R   0.464337 0.559551 0.928715 0.186548
C53   C     C_3   0.411503 0.529749 0.924640 0.069216
C54   C     C_3   0.411766 0.531388 0.078291 -0.505687
H14   H     H_    0.403828 0.435490 0.881023 0.144896
H15   H     H_    0.391258 0.610872 0.123324 0.235859
H16   H     H_    0.404086 0.437987 0.123687 0.216694
C55   C     C_2   0.246915 0.583812 0.288021 0.542107
H17   H     H_    0.266004 0.628965 0.205240 0.094838
O13   O     O_2   0.202740 0.583638 0.286060 -0.532359
C56   C     C_2   0.881599 0.791888 0.665607 0.549829
H18   H     H_    0.847106 0.792759 0.717702 0.133253
O14   O     O_2   0.903467 0.890970 0.654209 -0.529382
Br1   Br    Br    0.753563 0.456513 0.800441 -0.450092
C57   C     C_2   0.031420 0.674289 0.833132 0.431421
H19   H     H_    0.995769 0.647022 0.868415 0.080142
O15   O     O_2   0.052804 0.757796 0.893566 -0.502319
C58   C     C_2   0.578872 0.139964 0.347760 0.546024
H20   H     H_    0.590988 0.231271 0.383098 0.027016
O16   O     O_2   0.592946 0.102087 0.237720 -0.516051
C59   C     C_2   0.585834 0.860011 0.374843 0.477175
H21   H     H_    0.580217 0.766891 0.333430 0.071833
O17   O     O_2   0.627124 0.900749 0.378100 -0.491725
Br2   Br    Br    0.386397 0.842230 0.472099 -0.376335
Br3   Br    Br    0.253619 0.320162 0.762331 -0.368806
Br4   Br    Br    0.386970 0.151752 0.464298 -0.395564
Br5   Br    Br    0.373384 0.665711 0.848539 -0.432343
Br6   Br    Br    0.128047 0.116888 0.292751 -0.282112
Br7   Br    Br    0.865170 0.082344 0.396197 -0.289114

loop_
_geom_bond_atom_site_label_1
_geom_bond_atom_site_label_2
_geom_bond_distance
_ccdc_geom_bond_type
C7    C8    1.397973 A    
C12   C15   1.408796 A    
C23   C27   1.406407 A    
N3    C50   1.368273 A    
Zn1   O7    2.004870 S    
N1    C11   1.426678 S    
C52   C53   1.494206 S    
C23   C24   1.421518 A    
C53   H14   1.111283 S    
C28   H3    1.082944 S    
O4    C2    1.295304 A    
O7    C4    1.293940 A    
C50   C51   1.419983 A    
C29   H2    1.083163 S    
C48   Br4   1.954543 S    
C3    C45   1.408573 S    
C5    O9    1.346713 S    
C5    N1    1.365712 A    
C21   C22   1.388836 A    
C28   C32   1.398516 A    
C34   C35   1.417165 A    
O5    C3    1.280373 A    
C53   C54   1.515700 S    
C33   C36   1.409001 A    
C2    C16   1.456085 S    
C41   C46   1.350528 A    
C43   C44   1.415516 A    
C57   O15   1.221416 D    
C18   C20   1.413723 A    
C45   C46   1.384614 A    
C55   O13   1.220327 D    
C39   C56   1.487516 S    
C6    O11   1.350683 S    
C25   C39   1.421795 A    
C41   C42   1.382943 A    
C9    C10   1.384410 A    
C35   C40   1.423767 A    
C48   H11   1.111810 S    
C17   C30   1.403926 A    
C30   H9    1.083188 S    
C44   C45   1.417015 A    
C4    C17   1.461168 S    
O3    Zn1   2.003439 S    
C49   C52   1.407380 A    
C37   C40   1.395350 A    
C54   H15   1.110052 S    
C1    C42   1.408789 S    
C42   C43   1.415957 A    
C12   C13   1.418149 A    
C47   H10   1.109903 S    
C15   C37   1.397259 A    
C26   N2    1.361005 A    
C50   H12   1.081689 S    
C47   C48   1.532212 S    
C8    C16   1.397951 A    
C13   C14   1.415847 A    
C44   C59   1.491999 S    
C41   C48   1.499763 S    
C9    H1    1.082440 S    
C40   C57   1.488314 S    
C20   C24   1.416363 A    
C38   C39   1.393496 A    
O1    C1    1.279758 A    
C22   C23   1.417456 A    
C7    C11   1.416783 A    
C24   C25   1.422689 A    
C7    C55   1.485665 S    
C58   H20   1.084839 S    
Zn2   O8    2.003439 S    
C57   H19   1.085031 S    
C56   O14   1.221457 D    
N1    C6    1.361860 A    
C27   O10   1.346992 S    
C18   C21   1.405207 A    
C49   N3    1.361906 A    
C59   O17   1.220937 D    
C14   Br6   1.927961 S    
C19   C35   1.416458 A    
C22   Br7   1.929116 S    
O3    C2    1.291579 A    
N2    C27   1.361496 A    
C58   O16   1.221047 D    
C9    C16   1.397875 A    
O8    C4    1.295988 A    
C21   H4    1.078719 S    
C18   C33   1.417810 A    
Zn2   N3    2.012981 S    
C17   C29   1.403606 A    
C28   C29   1.390857 A    
N2    C32   1.425879 S    
C8    H6    1.081577 S    
C31   Br1   1.917757 S    
C30   C31   1.388098 A    
C54   H16   1.112120 S    
C12   C34   1.413110 A    
Zn1   O5    1.987788 S    
C26   O12   1.348045 S    
C33   C34   1.413318 A    
O1    Zn1   1.986097 S    
O2    Zn2   1.987789 S    
C6    C15   1.392918 A    
C51   H13   1.081541 S    
O6    C3    1.280744 A    
O4    Zn2   2.004872 S    
C38   H8    1.080828 S    
C19   C20   1.411072 A    
O2    C1    1.281079 A    
C43   C58   1.489108 S    
C46   C47   1.497956 S    
C10   Br3   1.918095 S    
C14   C36   1.391605 A    
C25   C26   1.407920 A    
C56   H18   1.083278 S    
C53   Br5   1.940673 S    
C51   N4    1.368365 A    
C36   H5    1.078190 S    
C59   H21   1.082466 S    
C37   H7    1.083877 S    
C31   C32   1.402038 A    
Zn1   N4    2.012559 S    
C47   Br2   1.954213 S    
C5    C13   1.411561 A    
Zn2   O6    1.986096 S    
N4    C52   1.364825 A    
C19   C38   1.402366 A    
C10   C11   1.403267 A    
C55   H17   1.086057 S    
C49   C54   1.487654 S    
