data_mof_unit_46065.cif
_audit_creation_date              2012-12-10T16:57:47-0500
_audit_creation_method            fapswitch 2.2
_symmetry_space_group_name_H-M    P1
_symmetry_Int_Tables_number       1
_space_group_crystal_system       triclinic
_cell_length_a                    10.669113
_cell_length_b                    10.931036
_cell_length_c                    9.767816
_cell_angle_alpha                 89.398474
_cell_angle_beta                  89.08532
_cell_angle_gamma                 89.463456
_cell_volume                      1138.91013528

loop_
_atom_site_label
_atom_site_type_symbol
_atom_type_description
_atom_site_fract_x
_atom_site_fract_y
_atom_site_fract_z
_atom_type_partial_charge
C1    C     C_R   0.494365 0.266075 0.500938 0.836606
C2    C     C_3   0.957351 0.583798 0.411085 -0.270619
C3    C     C_3   0.042354 0.473027 0.373755 0.118737
C4    C     C_3   0.122686 0.499015 0.500087 -0.050504
C5    C     C_2   0.456258 0.937354 0.400601 0.008176
C6    C     C_2   0.518422 0.865626 0.493522 -0.142676
C7    C     C_2   0.478002 0.069033 0.391812 -0.199370
C8    C     C_2   0.475266 0.135668 0.505397 -0.236919
C9    C     C_2   0.433802 0.572923 0.922908 -0.073078
C10   C     C_2   0.415643 0.551631 0.075292 -0.030955
C11   C     C_R   0.259615 0.499463 0.500483 0.867217
C12   C     C_R   0.500093 0.734424 0.498883 0.876540
C13   C     C_R   0.740254 0.498568 0.499495 0.785394
C14   C     C_3   0.041661 0.412631 0.589334 -0.232762
C15   C     C_3   0.960869 0.386923 0.462785 0.111085
C16   C     C_3   0.876815 0.496795 0.499646 -0.045360
C17   C     C_3   0.955398 0.522618 0.626749 -0.219878
C18   C     C_3   0.037813 0.607555 0.537623 0.042549
Cu1   Cu    Cu3+1 0.500030 0.500020 0.638630 0.945733
Cu2   Cu    Cu3+1 0.499970 0.499980 0.361370 0.936536
H1    H     H_    0.457332 0.093007 0.604778 0.151866
H2    H     H_    0.388878 0.651865 0.875936 0.170911
H3    H     H_    0.505391 0.410770 0.885406 0.205165
H4    H     H_    0.332389 0.590150 0.122984 0.148189
H5    H     H_    0.078409 0.343370 0.662707 0.146761
H6    H     H_    0.917350 0.544365 0.729956 0.151120
H7    H     H_    0.922590 0.655399 0.339537 0.136671
H8    H     H_    0.487737 0.111768 0.291270 0.150081
N1    N     N_2   0.498620 0.498660 0.846910 -0.295872
N2    N     N_2   0.498590 0.498630 0.153040 -0.182258
O1    O     O_R   0.500020 0.321960 0.617040 -0.592264
O2    O     O_R   0.499980 0.321920 0.382900 -0.587637
O3    O     O_R   0.316870 0.499990 0.617050 -0.559643
O4    O     O_R   0.316830 0.499950 0.382910 -0.589810
O5    O     O_R   0.500020 0.678080 0.617100 -0.587649
O6    O     O_R   0.499980 0.678040 0.382960 -0.556544
O7    O     O_R   0.683170 0.500050 0.617090 -0.576577
O8    O     O_R   0.683130 0.500010 0.382950 -0.618568
C19   C     C_3   0.912912 0.258484 0.432600 -0.388886
C20   C     C_3   0.021576 0.169040 0.402685 -0.377077
C21   C     C_3   0.974996 0.038687 0.385854 -0.761280
H9    H     H_    0.933659 0.004661 0.483811 0.279813
H10   H     H_    0.903749 0.035192 0.304315 0.257127
H11   H     H_    0.054886 0.977810 0.357147 0.244649
H12   H     H_    0.071772 0.196768 0.307259 0.214967
H13   H     H_    0.089462 0.169811 0.487811 0.217707
H14   H     H_    0.858763 0.225692 0.523741 0.224922
H15   H     H_    0.847905 0.262810 0.345095 0.187060
C22   C     C_3   0.630300 0.500474 0.104876 -0.071653
C23   C     C_3   0.684805 0.631445 0.106938 -0.311890
C24   C     C_3   0.751925 0.665870 0.972826 -0.915560
H16   H     H_    0.827529 0.598885 0.949062 0.254456
H17   H     H_    0.684943 0.668864 0.887104 0.280177
H18   H     H_    0.794272 0.757747 0.982156 0.246740
H19   H     H_    0.609931 0.700717 0.126481 0.229071
H20   H     H_    0.752375 0.638995 0.191190 0.202056
H21   H     H_    0.686390 0.436952 0.167794 0.155894
H22   H     H_    0.650105 0.455707 0.007268 0.128594
C25   C     C_2   0.075843 0.731917 0.583415 0.372924
H23   H     H_    0.004850 0.802283 0.598673 0.057062
O9    O     O_2   0.185410 0.754443 0.605336 -0.528716
C26   C     C_3   0.093564 0.452726 0.228178 -0.373306
C27   C     C_3   0.991163 0.419446 0.127652 -0.385496
C28   C     C_3   0.042207 0.417415 0.980879 -0.859921
H24   H     H_    0.074541 0.509885 0.948941 0.259095
H25   H     H_    0.121629 0.351396 0.971811 0.258077
H26   H     H_    0.966986 0.388626 0.911258 0.241911
H27   H     H_    0.953392 0.327767 0.152676 0.222249
H28   H     H_    0.913681 0.487169 0.134797 0.230667
H29   H     H_    0.137245 0.539493 0.193497 0.215921
H30   H     H_    0.166424 0.379560 0.229310 0.193937
C29   C     C_2   0.357009 0.893323 0.307683 0.344672
H31   H     H_    0.336293 0.945391 0.215392 0.047184
O10   O     O_2   0.292862 0.804372 0.335681 -0.528801
C30   C     C_2   0.623863 0.908667 0.578870 0.271701
H32   H     H_    0.644605 0.861885 0.674568 0.085718
O11   O     O_2   0.693065 0.990673 0.539948 -0.562161

loop_
_geom_bond_atom_site_label_1
_geom_bond_atom_site_label_2
_ccdc_geom_bond_type
C2    C18   S    
C1    C8    S    
C21   H9    S    
Cu1   Cu2   S    
Cu1   O1    S    
C6    C30   S    
Cu2   N2    S    
C20   H13   S    
C17   H6    S    
H3    N1    S    
C5    C29   S    
C6    C12   S    
C5    C6    D    
C9    H2    S    
C15   C16   S    
C1    O1    A    
C22   H21   S    
C26   H29   S    
C17   C18   S    
Cu1   O7    S    
C27   H28   S    
C16   C17   S    
C2    H7    S    
C12   O6    A    
C2    C16   S    
C9    C10   S    
C13   O7    A    
C9    N1    D    
C4    C18   S    
C25   H23   S    
C21   H10   S    
C14   C17   S    
C23   C24   S    
C20   H12   S    
C25   O9    D    
C24   H16   S    
C28   H26   S    
C11   O3    A    
C29   O10   D    
Cu1   O3    S    
C19   C20   S    
C5    C7    S    
C10   H4    S    
C1    O2    A    
C23   H20   S    
C22   H22   S    
C12   O5    A    
C28   H25   S    
C30   H32   S    
C26   C27   S    
Cu2   O8    S    
C10   N2    D    
C8    H1    S    
C4    C11   S    
C30   O11   D    
C15   C19   S    
C13   O8    A    
C20   C21   S    
N2    C22   S    
C21   H11   S    
C3    C4    S    
Cu1   N1    S    
C3    C15   S    
C19   H14   S    
Cu2   O2    S    
C3    C26   S    
C27   H27   S    
C11   O4    A    
C29   H31   S    
C23   H19   S    
C24   H18   S    
C28   H24   S    
C2    C3    S    
Cu2   O4    S    
Cu1   O5    S    
C26   H30   S    
C14   H5    S    
C4    C14   S    
C7    C8    D    
C7    H8    S    
C27   C28   S    
Cu2   O6    S    
C18   C25   S    
C22   C23   S    
C13   C16   S    
C14   C15   S    
C24   H17   S    
C19   H15   S    
