data_mof_unit_42746.cif
_audit_creation_date              2012-12-11T17:07:32-0500
_audit_creation_method            fapswitch 2.2
_symmetry_space_group_name_H-M    P1
_symmetry_Int_Tables_number       1
_space_group_crystal_system       triclinic
_cell_length_a                    6.956225
_cell_length_b                    14.683675
_cell_length_c                    16.005786
_cell_angle_alpha                 89.961137
_cell_angle_beta                  90.019517
_cell_angle_gamma                 90.19222
_cell_volume                      1634.86848305

loop_
_atom_site_label
_atom_site_type_symbol
_atom_type_description
_atom_site_fract_x
_atom_site_fract_y
_atom_site_fract_z
_atom_type_partial_charge
O1    O     O_R   0.505720 0.583900 0.413310 -0.541046
O2    O     O_R   0.175940 0.594920 0.586080 -0.554032
O3    O     O_R   0.005640 0.416100 0.586690 -0.544673
C1    C     C_R   0.345373 0.617206 0.614337 0.749046
O4    O     O_R   0.176000 0.594930 0.413930 -0.546487
O5    O     O_R   0.005700 0.416110 0.413310 -0.545129
C2    C     C_R   0.344990 0.617015 0.385204 0.683513
O6    O     O_R   0.505660 0.583890 0.586690 -0.516538
O7    O     O_3   0.339200 0.441330 0.500000 -0.369191
V1    V     V_3+5 0.064350 0.510880 0.500000 1.394550
O8    O     O_R   0.675980 0.405080 0.413920 -0.541992
C3    C     C_R   0.844980 0.383242 0.385086 0.698241
O9    O     O_R   0.675920 0.405070 0.586070 -0.514705
C4    C     C_R   0.844654 0.383187 0.614559 0.734550
V2    V     V_3+5 0.564340 0.489120 0.500000 1.452354
O10   O     O_3   0.839360 0.558670 0.500000 -0.375502
H1    H     H_    0.243246 0.128018 0.528246 0.112891
C5    C     C_R   0.666871 0.417961 0.780905 0.343806
C6    C     C_R   0.555462 0.426897 0.852771 -0.123445
C7    C     C_R   0.554466 0.359214 0.912934 -0.206334
C8    C     C_R   0.665454 0.281743 0.902144 -0.141845
C9    C     C_R   0.768964 0.266328 0.827164 0.037247
C10   C     C_R   0.763977 0.334276 0.763176 -0.018440
C11   C     C_R   0.883132 0.186846 0.817110 -0.162910
C12   C     C_R   0.989333 0.174720 0.741864 0.057559
C13   C     C_R   0.966442 0.236786 0.674385 0.067703
C14   C     C_R   0.856273 0.317082 0.684964 -0.192793
C15   C     C_R   0.115936 0.100336 0.730927 -0.110855
C16   C     C_R   0.208030 0.084549 0.655141 -0.070329
C17   C     C_R   0.174912 0.141543 0.587712 -0.135531
C18   C     C_R   0.055135 0.216507 0.596695 -0.130627
H2    H     H_    0.478247 0.489572 0.864379 0.129596
H3    H     H_    0.474061 0.368668 0.970183 0.148818
H4    H     H_    0.669848 0.235370 0.954391 0.136360
H5    H     H_    0.148196 0.053603 0.780364 0.137942
H6    H     H_    0.303762 0.027014 0.648506 0.149293
H7    H     H_    0.032936 0.257714 0.541593 0.109872
C19   C     C_R   0.742410 0.180087 0.244190 0.048970
C20   C     C_R   0.881647 0.188103 0.181123 -0.200050
C21   C     C_R   0.020616 0.259322 0.190009 0.337369
C22   C     C_R   0.011607 0.318978 0.259130 -0.180238
H8    H     H_    0.116734 0.373379 0.263571 0.139556
C23   C     C_R   0.859304 0.314880 0.317165 -0.172332
C24   C     C_R   0.729962 0.242290 0.309494 0.090304
C25   C     C_3   0.515655 0.240941 0.308698 -0.379040
C26   C     C_3   0.528830 0.172500 0.237615 -0.356926
H9    H     H_    0.453327 0.307307 0.289361 0.184922
H10   H     H_    0.454766 0.211414 0.366964 0.160820
H11   H     H_    0.473948 0.198823 0.177116 0.218453
H12   H     H_    0.475939 0.103534 0.255035 0.156909
C27   C     C_R   0.516662 0.693139 0.734224 0.101666
C28   C     C_R   0.355585 0.685580 0.682121 -0.174784
C29   C     C_R   0.209364 0.750081 0.691415 -0.187587
H13   H     H_    0.092063 0.751473 0.646968 0.155614
C30   C     C_R   0.218395 0.818216 0.752903 0.349995
C31   C     C_R   0.373543 0.820397 0.811330 -0.170982
C32   C     C_R   0.525616 0.760649 0.796382 -0.044600
C33   C     C_3   0.720278 0.789871 0.767887 0.225016
C34   C     C_3   0.715801 0.713797 0.705034 -0.301854
H14   H     H_    0.832688 0.783081 0.816916 0.080927
H15   H     H_    0.819553 0.659278 0.720496 0.128561
H16   H     H_    0.721522 0.736998 0.638851 0.180759
C35   C     C_R   0.507250 0.683616 0.258235 0.104700
C36   C     C_R   0.353160 0.682660 0.314629 -0.107976
C37   C     C_R   0.201687 0.743962 0.299382 -0.174066
H17   H     H_    0.079423 0.745753 0.340926 0.134947
C38   C     C_R   0.212615 0.808028 0.233846 -0.177197
H18   H     H_    0.097929 0.856949 0.226790 0.128867
C39   C     C_R   0.375688 0.813047 0.181688 -0.115122
C40   C     C_R   0.518535 0.747285 0.193649 0.105242
C41   C     C_3   0.729403 0.759657 0.205524 -0.407967
C42   C     C_3   0.717219 0.689956 0.275531 -0.400692
H19   H     H_    0.765654 0.829309 0.227765 0.167659
H20   H     H_    0.813314 0.735574 0.150784 0.177291
H21   H     H_    0.747179 0.718936 0.338359 0.171889
H22   H     H_    0.793339 0.625401 0.261112 0.169979
O11   O     O_R   0.229140 0.916090 0.913340 -0.554477
O12   O     O_R   0.558860 0.905090 0.086080 -0.537828
O13   O     O_R   0.729100 0.083920 0.086690 -0.536589
C43   C     C_R   0.389653 0.883188 0.115003 0.702150
O14   O     O_R   0.558860 0.905090 0.913930 -0.545773
O15   O     O_R   0.729100 0.083920 0.913310 -0.539668
C44   C     C_R   0.389078 0.886926 0.881884 0.684386
O16   O     O_R   0.229140 0.916080 0.086720 -0.537824
O17   O     O_3   0.395570 0.058660 0.000020 -0.365197
V3    V     V_3+5 0.670450 0.989140 0.000000 1.391699
O18   O     O_R   0.058810 0.094980 0.913910 -0.546872
C45   C     C_R   0.890660 0.116642 0.884859 0.670789
O19   O     O_R   0.058810 0.094980 0.086060 -0.535570
C46   C     C_R   0.889886 0.119092 0.113083 0.688550
V4    V     V_3+5 0.170450 0.010950 0.999970 1.398901
O20   O     O_3   0.895460 0.941370 0.999990 -0.375105
O21   O     O_3   0.090382 0.888316 0.744005 -0.642065
H23   H     H_    0.048950 0.908626 0.799530 0.287195
O22   O     O_3   0.713968 0.874892 0.727483 -0.610413
H24   H     H_    0.717378 0.921902 0.771854 0.299791
O23   O     O_3   0.689395 0.495108 0.733613 -0.650095
H25   H     H_    0.829670 0.502842 0.725185 0.257780
O24   O     O_3   0.158526 0.277751 0.130388 -0.658852
H26   H     H_    0.111912 0.255996 0.075485 0.285145

loop_
_geom_bond_atom_site_label_1
_geom_bond_atom_site_label_2
_ccdc_geom_bond_type
O18   C45   A    
O21   H23   S    
O18   V4    S    
C22   H8    S    
C6    C7    A    
C42   H22   S    
C21   O24   S    
O23   H25   S    
O17   V4    S    
C29   H13   S    
C28   C29   A    
C12   C15   A    
C26   H11   S    
C13   C14   A    
C1    C28   S    
C15   C16   A    
C3    C23   S    
O17   V3    S    
C19   C20   A    
O12   C43   A    
O11   C44   A    
C33   H14   S    
V2    O10   S    
C31   C32   A    
C5    C6    A    
C1    O6    A    
O13   C46   A    
O8    V2    S    
O22   H24   S    
C15   H5    S    
C37   C38   A    
C40   C41   S    
C27   C32   A    
O16   V4    S    
C10   C14   A    
C4    C14   S    
O19   V4    S    
O7    V1    S    
C20   C46   S    
O14   V3    S    
C43   O16   A    
O12   V3    S    
C29   C30   A    
C13   C18   A    
C8    C9    A    
H1    C17   S    
C22   C23   A    
C42   H21   S    
C6    H2    S    
O14   C44   A    
C25   H9    S    
C34   H15   S    
C5    C10   A    
C33   O22   S    
C11   C12   A    
C20   C21   A    
C41   H19   S    
C8    H4    S    
C12   C13   A    
O15   V3    S    
C38   H18   S    
C38   C39   A    
O2    C1    A    
C23   C24   A    
C19   C24   A    
C16   C17   A    
O24   H26   S    
C16   H6    S    
C35   C40   A    
C30   C31   A    
C7    C8    A    
C11   C45   S    
O3    C4    A    
O1    V2    S    
C7    H3    S    
C21   C22   A    
C5    O23   S    
O6    V2    S    
O9    V2    S    
C9    C11   A    
C25   C26   S    
C27   C34   S    
O2    V1    S    
V4    O20   S    
C24   C25   S    
C31   C44   S    
O4    C2    A    
C25   H10   S    
O11   V4    S    
C34   H16   S    
O1    C2    A    
O5    V1    S    
C41   H20   S    
O8    C3    A    
C26   H12   S    
C36   C37   A    
C33   C34   S    
C27   C28   A    
O3    V1    S    
V3    O20   S    
O5    C3    A    
C32   C33   S    
C17   C18   A    
O15   C45   A    
O7    V2    S    
C39   C40   A    
C2    C36   S    
C19   C26   S    
C35   C36   A    
C18   H7    S    
O4    V1    S    
C41   C42   S    
C35   C42   S    
C37   H17   S    
C9    C10   A    
C39   C43   S    
V1    O10   S    
O19   C46   A    
O9    C4    A    
C30   O21   S    
O13   V3    S    
