data_mof_unit_28227.cif
_audit_creation_date              2012-12-11T14:08:21-0500
_audit_creation_method            fapswitch 2.2
_symmetry_space_group_name_H-M    P1
_symmetry_Int_Tables_number       1
_space_group_crystal_system       triclinic
_cell_length_a                    28.055381
_cell_length_b                    7.196341
_cell_length_c                    17.207538
_cell_angle_alpha                 90.000088
_cell_angle_beta                  101.643826
_cell_angle_gamma                 90.000084
_cell_volume                      3402.64094491

loop_
_atom_site_label
_atom_site_type_symbol
_atom_type_description
_atom_site_fract_x
_atom_site_fract_y
_atom_site_fract_z
_atom_type_partial_charge
O1    O     O_R   0.000700 0.436510 0.857920 -0.532462
O2    O     O_R   0.999300 0.563490 0.142080 -0.532074
O3    O     O_R   0.999300 0.936510 0.642080 -0.532462
O4    O     O_R   0.000700 0.063490 0.357920 -0.532073
O5    O     O_R   0.930080 0.766380 0.721890 -0.541751
O6    O     O_R   0.069920 0.233620 0.278110 -0.541118
O7    O     O_R   0.069920 0.266380 0.778110 -0.541752
O8    O     O_R   0.930080 0.733620 0.221890 -0.541130
C1    C     C_R   0.910536 0.597635 0.708077 0.696291
C2    C     C_R   0.089541 0.402404 0.289629 0.694607
C3    C     C_R   0.089463 0.097636 0.791927 0.696280
C4    C     C_R   0.910458 0.902403 0.210371 0.694613
O9    O     O_R   0.996180 0.766230 0.862310 -0.543424
O10   O     O_R   0.003820 0.233770 0.137690 -0.544497
O11   O     O_R   0.003820 0.266230 0.637690 -0.543421
O12   O     O_R   0.996180 0.733770 0.362310 -0.544496
O13   O     O_R   0.065870 0.936460 0.783500 -0.538949
O14   O     O_R   0.934130 0.063540 0.216500 -0.537393
O15   O     O_R   0.934130 0.436460 0.716500 -0.538953
O16   O     O_R   0.065870 0.563540 0.283500 -0.537384
C5    C     C_R   0.998493 0.596449 0.894486 0.760410
C6    C     C_R   0.001522 0.403553 0.105517 0.758417
C7    C     C_R   0.001507 0.096449 0.605514 0.760422
C8    C     C_R   0.998478 0.903553 0.394483 0.758426
O17   O     O_3   0.022790 0.603020 0.723980 -0.377542
O18   O     O_3   0.977210 0.396980 0.276020 -0.376909
O19   O     O_3   0.977210 0.103020 0.776020 -0.377549
O20   O     O_3   0.022790 0.896980 0.223980 -0.376899
V1    V     V_3+5 0.995770 0.877900 0.754830 1.407671
V2    V     V_3+5 0.004230 0.122100 0.245170 1.411870
V3    V     V_3+5 0.004230 0.377900 0.745170 1.407675
V4    V     V_3+5 0.995770 0.622100 0.254830 1.411860
C9    C     C_2   0.001682 0.082620 0.519566 -0.331410
C10   C     C_2   0.998281 0.917382 0.480424 -0.331787
C11   C     C_2   0.998318 0.582621 0.980434 -0.331412
C12   C     C_2   0.001719 0.417382 0.019576 -0.331783
H1    H     H_    0.004461 0.211435 0.487883 0.153387
H2    H     H_    0.995498 0.788568 0.512104 0.153293
H3    H     H_    0.995539 0.711435 0.012117 0.153388
H4    H     H_    0.004502 0.288568 0.987895 0.153292
C13   C     C_R   0.676262 0.793549 0.085565 0.596187
C14   C     C_R   0.316748 0.135728 0.981970 0.591460
C15   C     C_R   0.323730 0.293546 0.414474 0.596208
C16   C     C_R   0.683251 0.635612 0.518025 0.591450
O21   O     O_2   0.701679 0.657246 0.058501 -0.521734
O22   O     O_2   0.288464 0.239376 0.019878 -0.522799
O23   O     O_2   0.298312 0.157223 0.441526 -0.521690
O24   O     O_2   0.711543 0.739123 0.480078 -0.522801
N1    N     N_R   0.700421 0.932091 0.132573 -0.555611
N2    N     N_R   0.296579 0.049013 0.912034 -0.556122
N3    N     N_R   0.299573 0.432114 0.367478 -0.555646
N4    N     N_R   0.703415 0.548986 0.587986 -0.556100
C17   C     C_R   0.674945 0.073950 0.158898 0.591414
C18   C     C_R   0.324729 0.942603 0.872807 0.584286
C19   C     C_R   0.325046 0.573995 0.341163 0.591422
C20   C     C_R   0.675256 0.442673 0.627238 0.584260
C21   C     C_R   0.781117 0.077477 0.135668 -0.084862
C22   C     C_R   0.215766 0.902710 0.872502 -0.088919
C23   C     C_R   0.218875 0.577383 0.364467 -0.084828
C24   C     C_R   0.784214 0.402631 0.627699 -0.088848
C25   C     C_R   0.832107 0.070134 0.154226 -0.198696
C26   C     C_R   0.165693 0.914130 0.842731 -0.195366
C27   C     C_R   0.167885 0.570033 0.345893 -0.198676
C28   C     C_R   0.834288 0.414063 0.657467 -0.195373
C29   C     C_R   0.828211 0.761878 0.208865 -0.197589
C30   C     C_R   0.172486 0.247548 0.829238 -0.198495
C31   C     C_R   0.171791 0.261997 0.291057 -0.197561
C32   C     C_R   0.827528 0.747598 0.670608 -0.198480
C33   C     C_R   0.777326 0.770718 0.191584 -0.072789
C34   C     C_R   0.222785 0.235595 0.858818 -0.079837
C35   C     C_R   0.222676 0.270841 0.308362 -0.072783
C36   C     C_R   0.777228 0.735636 0.641036 -0.079803
C37   C     C_R   0.753155 0.927714 0.154076 0.354988
C38   C     C_R   0.244801 0.062980 0.880878 0.369565
C39   C     C_R   0.246840 0.427733 0.345970 0.354986
C40   C     C_R   0.755194 0.562956 0.619149 0.369502
C41   C     C_R   0.598540 0.938241 0.089968 -0.019637
C42   C     C_R   0.395648 0.001383 0.977227 -0.045808
C43   C     C_R   0.401451 0.438243 0.410070 -0.019618
C44   C     C_R   0.604344 0.501369 0.522795 -0.045813
C45   C     C_R   0.625069 0.793548 0.063943 -0.056064
C46   C     C_R   0.366725 0.114826 0.015378 -0.044884
C47   C     C_R   0.374923 0.293542 0.436093 -0.056080
C48   C     C_R   0.633271 0.614750 0.484627 -0.044863
C49   C     C_R   0.600045 0.649446 0.018355 -0.166382
C50   C     C_R   0.387645 0.198347 0.087680 -0.149938
C51   C     C_R   0.399949 0.149431 0.481671 -0.166393
C52   C     C_R   0.612353 0.698247 0.412320 -0.149946
C53   C     C_R   0.623659 0.080227 0.137707 -0.008258
C54   C     C_R   0.374535 0.915894 0.904807 -0.035153
C55   C     C_R   0.376332 0.580249 0.362342 -0.008283
C56   C     C_R   0.625452 0.415932 0.595229 -0.035160
C57   C     C_R   0.856322 0.911413 0.190425 -0.054513
C58   C     C_R   0.143201 0.086746 0.820872 -0.052915
C59   C     C_R   0.143676 0.411419 0.309585 -0.054529
C60   C     C_R   0.856796 0.586743 0.679144 -0.052909
H5    H     H_    0.845525 0.638418 0.237602 0.141750
H6    H     H_    0.156612 0.382815 0.813204 0.135261
H7    H     H_    0.154478 0.138632 0.262233 0.141748
H8    H     H_    0.843414 0.882918 0.686494 0.135193
H9    H     H_    0.756613 0.654326 0.207082 0.158247
H10   H     H_    0.244648 0.360745 0.864531 0.136189
H11   H     H_    0.243395 0.154539 0.292802 0.158206
H12   H     H_    0.755379 0.860835 0.635190 0.136164
H13   H     H_    0.620100 0.530323 0.003480 0.197333
H14   H     H_    0.364650 0.275761 0.119760 0.193879
H15   H     H_    0.379895 0.030303 0.496543 0.197335
H16   H     H_    0.635350 0.775623 0.380231 0.193884
C61   C     C_R   0.473601 0.849670 0.974343 0.070338
C62   C     C_R   0.520119 0.081888 0.098144 0.084540
C63   C     C_R   0.526391 0.349667 0.525683 0.070357
C64   C     C_R   0.479873 0.581874 0.401882 0.084540
C65   C     C_R   0.468117 0.077424 0.079002 -0.027859
C66   C     C_R   0.522672 0.811324 0.011593 -0.036834
C67   C     C_R   0.531876 0.577396 0.421017 -0.027872
C68   C     C_R   0.477322 0.311314 0.488431 -0.036843
C69   C     C_R   0.445776 0.974916 0.010785 0.037724
C70   C     C_R   0.546975 0.942749 0.067108 0.061092
C71   C     C_R   0.554217 0.474902 0.489237 0.037730
C72   C     C_R   0.453018 0.442740 0.432921 0.061111
C73   C     C_R   0.452556 0.778164 0.898855 -0.108073
C74   C     C_R   0.546321 0.228393 0.141758 -0.077107
C75   C     C_R   0.547432 0.278179 0.601175 -0.108075
C76   C     C_R   0.453672 0.728385 0.358275 -0.077082
C77   C     C_R   0.403754 0.808417 0.865233 -0.119946
C78   C     C_R   0.597071 0.226798 0.161846 -0.102926
C79   C     C_R   0.596232 0.308469 0.634805 -0.119943
C80   C     C_R   0.402921 0.726814 0.338202 -0.102956
O25   O     O_2   0.304633 0.862882 0.802875 -0.519065
O26   O     O_2   0.698973 0.207636 0.206148 -0.522221
O27   O     O_2   0.695341 0.363081 0.697203 -0.519060
O28   O     O_2   0.301015 0.707720 0.293932 -0.522186
C81   C     C_R   0.549208 0.652907 0.993781 -0.040779
C82   C     C_R   0.437350 0.177092 0.121454 -0.024576
C83   C     C_R   0.450788 0.152892 0.506240 -0.040798
C84   C     C_R   0.562644 0.677038 0.378557 -0.024580
H17   H     H_    0.144609 0.787099 0.837713 0.135740
H18   H     H_    0.852555 0.187731 0.139129 0.137510
H19   H     H_    0.855357 0.286982 0.662629 0.135732
H20   H     H_    0.147432 0.687531 0.361063 0.137500
H21   H     H_    0.232032 0.768550 0.889653 0.130664
H22   H     H_    0.763367 0.199268 0.106110 0.155902
H23   H     H_    0.767938 0.268413 0.610685 0.130643
H24   H     H_    0.236624 0.699085 0.394105 0.155865
H25   H     H_    0.389074 0.747344 0.807858 0.178103
H26   H     H_    0.615382 0.342055 0.195893 0.161016
H27   H     H_    0.610909 0.247419 0.692185 0.178123
H28   H     H_    0.384611 0.842082 0.304162 0.161021
H29   H     H_    0.473926 0.702311 0.863792 0.138053
H30   H     H_    0.528032 0.349792 0.158026 0.147296
H31   H     H_    0.526061 0.202319 0.636234 0.138052
H32   H     H_    0.471962 0.849775 0.342002 0.147300
C85   C     C_2   0.525133 0.479326 0.958769 0.732003
O29   O     O_2   0.545875 0.376437 0.919691 -0.551207
O30   O     O_R   0.479193 0.430835 0.972074 -0.664143
H33   H     H_    0.465760 0.315242 0.941785 0.300908
C86   C     C_2   0.453261 0.239002 0.205193 0.764698
O31   O     O_2   0.433304 0.371367 0.229777 -0.544454
O32   O     O_R   0.489362 0.141425 0.257093 -0.651492
H34   H     H_    0.496592 0.196650 0.312443 0.304281
C87   C     C_2   0.474865 0.979303 0.541241 0.732010
O33   O     O_2   0.454120 0.876386 0.580305 -0.551214
O34   O     O_R   0.520808 0.930838 0.527946 -0.664145
H35   H     H_    0.534243 0.815242 0.558230 0.300908
C88   C     C_2   0.546729 0.738987 0.294824 0.764688
O35   O     O_2   0.566686 0.871364 0.270249 -0.544449
O36   O     O_R   0.510620 0.641454 0.242923 -0.651490
H36   H     H_    0.503386 0.696710 0.187579 0.304290

loop_
_geom_bond_atom_site_label_1
_geom_bond_atom_site_label_2
_ccdc_geom_bond_type
O17   V3    S    
C47   C51   A    
N1    C17   A    
C22   C26   A    
C88   O35   D    
O19   V1    S    
O13   V1    S    
C27   H20   S    
O1    C5    A    
O3    C7    A    
O34   H35   S    
C14   C46   A    
C44   C48   A    
O4    V2    S    
O15   V3    S    
C62   C70   A    
C87   O33   D    
C78   H26   S    
C61   C69   A    
C68   C83   A    
C42   C54   A    
O7    C3    A    
C41   C53   A    
C32   C60   A    
C21   H22   S    
C81   C85   S    
C74   H30   S    
C63   C71   A    
N3    C39   S    
C18   C54   A    
N2    C38   S    
C24   H23   S    
C52   H16   S    
C25   C57   A    
C25   H18   S    
C31   C35   A    
C67   C84   A    
C27   C59   A    
O1    V3    S    
C15   C47   A    
O2    V4    S    
C14   O22   S    
C21   C37   A    
O3    V1    S    
C34   C38   A    
C19   C55   A    
C73   C77   A    
C1    O15   A    
C86   O31   D    
C11   C12   D    
C2    O16   A    
C7    C9    S    
O2    C6    A    
C33   C37   A    
C63   C68   A    
O14   V2    S    
C85   O30   S    
C79   H27   S    
C43   C55   A    
C31   H7    S    
C76   C80   A    
C16   N4    A    
O11   C7    A    
C76   H32   S    
C44   C71   A    
O12   C8    A    
C31   C59   A    
C83   C87   S    
C50   H14   S    
O10   V2    S    
C49   H13   S    
C13   N1    A    
C87   O34   S    
C50   C82   A    
O5    V1    S    
C53   C78   A    
C75   H31   S    
O7    V3    S    
C55   C80   A    
C63   C75   A    
O8    V4    S    
C51   C83   A    
C12   H4    S    
C42   C69   A    
C28   C60   A    
C41   C70   A    
O36   H36   S    
C64   C72   A    
O18   V4    S    
C80   H28   S    
C36   H12   S    
N4    C40   S    
C46   C50   A    
O11   V3    S    
C24   C40   A    
C8    C10   S    
C68   C72   A    
C32   C36   A    
C74   C78   A    
C11   H3    S    
C32   H8    S    
O5    C1    A    
C54   C77   A    
C42   C46   A    
C75   C79   A    
O32   H34   S    
C1    C60   S    
C41   C45   A    
O8    C4    A    
C13   C45   A    
C43   C72   A    
C9    C10   D    
O9    C5    A    
C36   C40   A    
N2    C18   A    
C21   C25   A    
C44   C56   A    
C62   C65   A    
C52   C84   A    
C66   C70   A    
C61   C66   A    
C14   N2    A    
C65   C69   A    
C3    C58   S    
O6    V2    S    
C23   H24   S    
C67   C71   A    
C65   C82   A    
C26   C58   A    
C17   C53   A    
O10   C6    A    
N1    C37   S    
C4    C57   S    
C56   C79   A    
C23   C39   A    
C22   C38   A    
O16   V4    S    
O9    V1    S    
C18   O25   S    
C35   H11   S    
C3    O13   A    
C10   H2    S    
C48   C52   A    
C17   O26   S    
C16   C48   A    
O6    C2    A    
C86   O32   S    
C34   H10   S    
C64   C76   A    
C5    C11   S    
C33   H9    S    
O12   V4    S    
C6    C12   S    
C23   C27   A    
C30   C58   A    
C24   C28   A    
C30   H6    S    
O20   V2    S    
C29   H5    S    
C77   H25   S    
C62   C74   A    
C35   C39   A    
C22   H21   S    
C15   N3    A    
C30   C34   A    
C2    C59   S    
O4    C8    A    
C29   C33   A    
C29   C57   A    
C66   C81   A    
C73   H29   S    
N3    C19   A    
C26   H17   S    
C9    H1    S    
C20   O27   S    
C43   C47   A    
N4    C20   A    
C20   C56   A    
C82   C86   S    
C51   H15   S    
C88   O36   S    
C19   O28   S    
C84   C88   S    
C4    O14   A    
O30   H33   S    
C13   O21   S    
C61   C73   A    
C85   O29   D    
C15   O23   S    
C64   C67   A    
C45   C49   A    
C16   O24   S    
C49   C81   A    
C28   H19   S    
