data_mof_unit_23456.cif
_audit_creation_date              2012-12-10T19:25:54-0500
_audit_creation_method            fapswitch 2.2
_symmetry_space_group_name_H-M    P1
_symmetry_Int_Tables_number       1
_space_group_crystal_system       triclinic
_cell_length_a                    9.7526
_cell_length_b                    10.49545
_cell_length_c                    16.648772
_cell_angle_alpha                 90.317628
_cell_angle_beta                  86.263034
_cell_angle_gamma                 89.791833
_cell_volume                      1700.47064137

loop_
_atom_site_label
_atom_site_type_symbol
_atom_type_description
_atom_site_fract_x
_atom_site_fract_y
_atom_site_fract_z
_atom_type_partial_charge
C1    C     C_R   0.499794 0.742301 0.498981 0.986374
C2    C     C_3   0.608356 0.957897 0.450149 -0.482521
C3    C     C_3   0.947903 0.606732 0.527409 -0.059684
C4    C     C_3   0.052094 0.393252 0.472602 -0.059587
C5    C     C_3   0.053330 0.590430 0.455485 -0.066712
C6    C     C_3   0.946657 0.409558 0.544521 -0.073021
C7    C     C_3   0.040404 0.516264 0.571995 -0.088788
C8    C     C_3   0.959588 0.483711 0.428009 -0.086675
C9    C     C_R   0.482661 0.489407 0.652732 0.943262
C10   C     C_R   0.517698 0.501898 0.346967 0.933883
C11   C     C_R   0.478697 0.441546 0.734970 -0.173206
C12   C     C_R   0.500179 0.257790 0.501306 0.981406
C13   C     C_R   0.524772 0.503754 0.260068 -0.162546
C14   C     C_R   0.600343 0.392207 0.763569 -0.337066
C15   C     C_R   0.422182 0.567329 0.220934 -0.318773
C16   C     C_R   0.603031 0.348135 0.842253 0.506018
C17   C     C_R   0.417465 0.557066 0.137887 0.504865
C18   C     C_R   0.480095 0.345910 0.890460 -0.105495
C19   C     C_R   0.518393 0.484941 0.094174 -0.092956
C20   C     C_R   0.354329 0.380430 0.859089 0.509466
C21   C     C_R   0.627017 0.427630 0.132607 0.507407
C22   C     C_R   0.354939 0.431475 0.781908 -0.293411
C23   C     C_3   0.381221 0.961900 0.473259 0.505957
C24   C     C_R   0.627955 0.435682 0.216254 -0.298005
C25   C     C_2   0.491205 0.352179 0.976844 -0.052643
C26   C     C_2   0.506343 0.467923 0.008520 -0.093785
C27   C     C_3   0.187223 0.253528 0.914673 -0.365584
C28   C     C_3   0.851821 0.420678 0.087308 -0.308482
C29   C     C_3   0.194642 0.545259 0.107080 -0.287730
C30   C     C_3   0.826014 0.402821 0.864827 -0.245863
C31   C     C_3   0.484050 0.006344 0.289787 -0.280261
C32   C     C_3   0.516467 0.996356 0.710538 -0.283090
C33   C     C_3   0.165791 0.008276 0.432736 -0.315684
C34   C     C_3   0.618725 0.038479 0.527269 0.505401
C35   C     C_3   0.834173 0.992404 0.567877 -0.311874
C36   C     C_3   0.488298 0.042592 0.425883 0.462990
C37   C     C_3   0.511645 0.957836 0.574683 0.465021
C38   C     C_3   0.500596 0.123173 0.502041 -0.254773
C39   C     C_3   0.499361 0.877082 0.498523 -0.259568
C40   C     C_3   0.391595 0.042495 0.550377 -0.479893
H1    H     H_    0.705963 0.385055 0.247029 0.177981
H2    H     H_    0.493507 0.265978 0.012593 0.162072
H3    H     H_    0.262915 0.191978 0.943501 0.165828
H4    H     H_    0.163500 0.213169 0.855179 0.173675
H5    H     H_    0.091299 0.252336 0.954132 0.193705
H6    H     H_    0.889341 0.432076 0.148599 0.142067
H7    H     H_    0.844392 0.515050 0.057619 0.154566
H8    H     H_    0.929929 0.363323 0.051758 0.190869
H9    H     H_    0.153608 0.540868 0.170943 0.142660
H10   H     H_    0.211853 0.447351 0.082206 0.185687
H11   H     H_    0.115245 0.591247 0.072156 0.193575
H12   H     H_    0.259333 0.464292 0.759348 0.177632
H13   H     H_    0.784635 0.499949 0.879423 0.148551
H14   H     H_    0.877170 0.399763 0.803273 0.147479
H15   H     H_    0.906124 0.383039 0.907204 0.203618
H16   H     H_    0.408443 0.928386 0.301385 0.184494
H17   H     H_    0.590146 0.967018 0.282637 0.163215
H18   H     H_    0.461470 0.051168 0.231905 0.193428
H19   H     H_    0.410497 0.035994 0.717699 0.156654
H20   H     H_    0.592119 0.074085 0.698302 0.192559
H21   H     H_    0.539381 0.952584 0.768672 0.192357
H22   H     H_    0.208291 0.081778 0.390323 0.200599
H23   H     H_    0.694392 0.389765 0.725336 0.185157
H24   H     H_    0.130690 0.052830 0.491233 0.160823
H25   H     H_    0.074454 0.966733 0.406250 0.176161
H26   H     H_    0.869336 0.947697 0.509437 0.159874
H27   H     H_    0.791700 0.919000 0.610367 0.200965
H28   H     H_    0.925451 0.034107 0.594338 0.176306
H29   H     H_    0.305948 0.082119 0.590196 0.174455
H30   H     H_    0.694052 0.918418 0.410310 0.175396
H31   H     H_    0.103264 0.666516 0.418024 0.153805
H32   H     H_    0.896704 0.333529 0.582030 0.153011
H33   H     H_    0.343879 0.622457 0.254942 0.176434
H34   H     H_    0.899104 0.696509 0.550546 0.121537
H35   H     H_    0.100895 0.303481 0.449462 0.121072
H36   H     H_    0.079134 0.529953 0.632666 0.124762
H37   H     H_    0.920827 0.469890 0.367352 0.122394
H38   H     H_    0.499304 0.552611 0.971515 0.162111
N1    N     N_3   0.136700 0.499970 0.500060 -0.075739
N2    N     N_3   0.863300 0.500030 0.499940 -0.075828
O1    O     O_R   0.383390 0.686040 0.500000 -0.579928
O2    O     O_3   0.725267 0.355780 0.088865 -0.577931
O3    O     O_3   0.315405 0.618864 0.099039 -0.598461
O4    O     O_3   0.723989 0.307844 0.874142 -0.586140
O5    O     O_3   0.473388 0.100298 0.350596 -0.611604
O6    O     O_3   0.526523 0.901294 0.650326 -0.610031
O7    O     O_3   0.261250 0.909856 0.443454 -0.605550
O8    O     O_3   0.738655 0.090711 0.557016 -0.604973
O9    O     O_R   0.616610 0.313960 0.500000 -0.582930
O10   O     O_R   0.616650 0.686050 0.499970 -0.631064
O11   O     O_R   0.383350 0.313950 0.500030 -0.633557
O12   O     O_R   0.369590 0.500020 0.615820 -0.629840
O13   O     O_R   0.630410 0.499980 0.384180 -0.631556
O14   O     O_R   0.602840 0.500020 0.615790 -0.620720
O15   O     O_R   0.397160 0.499980 0.384210 -0.616169
O16   O     O_3   0.233089 0.380436 0.906945 -0.610540
Zn1   Zn    Zn3+2 0.344250 0.499990 0.500020 0.961823
Zn2   Zn    Zn3+2 0.655750 0.500010 0.499980 0.958823

loop_
_geom_bond_atom_site_label_1
_geom_bond_atom_site_label_2
_ccdc_geom_bond_type
C28   H7    S    
C1    O10   A    
C31   O5    S    
C34   C37   S    
C12   O11   A    
C4    C8    S    
C33   H25   S    
C29   H9    S    
C6    H32   S    
C30   H14   S    
C28   H6    S    
C26   H38   S    
C35   H28   S    
C31   H18   S    
C22   H12   S    
C19   C21   A    
C32   H21   S    
C29   O3    S    
C37   C40   S    
C3    C7    S    
C11   C14   A    
O14   Zn2   S    
C1    O1    A    
C23   C40   S    
C16   O4    S    
C3    H34   S    
C19   C26   S    
C4    H35   S    
C2    C39   S    
C33   H22   S    
C31   H16   S    
C5    N1    S    
C2    C34   S    
C20   O16   S    
C23   O7    S    
C30   O4    S    
C24   H1    S    
C27   O16   S    
C18   C25   S    
C3    N2    S    
C27   H4    S    
C9    O12   A    
O12   Zn1   S    
C29   H10   S    
C30   H13   S    
C40   H29   S    
C28   O2    S    
C37   O6    S    
C4    N1    S    
C4    C6    S    
C10   O13   A    
C25   C26   D    
C13   C24   A    
C17   O3    S    
C35   O8    S    
C12   O9    A    
C6    N2    S    
C35   H27   S    
C32   O6    S    
C34   O8    S    
O11   Zn1   S    
C9    C11   S    
C7    H36   S    
C16   C18   A    
C15   H33   S    
C20   C22   A    
C13   C15   A    
C8    H37   S    
C14   C16   A    
C32   H20   S    
C7    N1    S    
C29   H11   S    
C2    C36   S    
C15   C17   A    
C28   H8    S    
N2    Zn2   S    
C34   C38   S    
N1    Zn1   S    
C3    C5    S    
C10   C13   S    
C25   H2    S    
C5    C8    S    
O15   Zn1   S    
C6    C7    S    
C36   O5    S    
C30   H15   S    
C11   C22   A    
C35   H26   S    
O9    Zn2   S    
C31   H17   S    
C36   C38   S    
C33   O7    S    
C5    H31   S    
C38   C40   S    
C27   H5    S    
O1    Zn1   S    
C10   O15   A    
C33   H24   S    
C23   C39   S    
C14   H23   S    
C9    O14   A    
C17   C19   A    
C18   C20   A    
C12   C38   S    
C1    C39   S    
C27   H3    S    
C21   O2    S    
C37   C39   S    
C23   C36   S    
C21   C24   A    
C8    N2    S    
C32   H19   S    
C2    H30   S    
O13   Zn2   S    
O10   Zn2   S    
