data_mof_unit_48028.cif
_audit_creation_date              2012-12-11T15:55:46-0500
_audit_creation_method            fapswitch 2.2
_symmetry_space_group_name_H-M    P1
_symmetry_Int_Tables_number       1
_space_group_crystal_system       triclinic
_cell_length_a                    6.94449
_cell_length_b                    14.602985
_cell_length_c                    16.047755
_cell_angle_alpha                 89.949807
_cell_angle_beta                  89.736153
_cell_angle_gamma                 89.814751
_cell_volume                      1627.38101607

loop_
_atom_site_label
_atom_site_type_symbol
_atom_type_description
_atom_site_fract_x
_atom_site_fract_y
_atom_site_fract_z
_atom_type_partial_charge
O1    O     O_R   0.505680 0.583900 0.413320 -0.543259
O2    O     O_R   0.176010 0.594950 0.586080 -0.536246
O3    O     O_R   0.005680 0.416100 0.586680 -0.539748
C1    C     C_R   0.344413 0.616374 0.615382 0.712709
O4    O     O_R   0.175960 0.594930 0.413930 -0.545994
O5    O     O_R   0.005640 0.416080 0.413300 -0.518081
C2    C     C_R   0.345203 0.617772 0.385521 0.666520
O6    O     O_R   0.505720 0.583920 0.586700 -0.542953
O7    O     O_3   0.339190 0.441320 0.500000 -0.363056
V1    V     V_3+5 0.064350 0.510890 0.500000 1.443793
O8    O     O_R   0.675920 0.405050 0.413920 -0.541901
C3    C     C_R   0.845756 0.383778 0.384139 0.705748
O9    O     O_R   0.675960 0.405070 0.586070 -0.546257
C4    C     C_R   0.844639 0.383696 0.615372 0.695235
V2    V     V_3+5 0.564340 0.489110 0.500000 1.422819
O10   O     O_3   0.839370 0.558680 0.500000 -0.371283
C5    C     C_R   0.009698 0.317595 0.741480 0.104211
C6    C     C_R   0.852203 0.319915 0.687291 -0.108226
C7    C     C_R   0.696512 0.262202 0.706316 -0.182827
H1    H     H_    0.571816 0.261544 0.666567 0.142266
C8    C     C_R   0.706029 0.199983 0.773231 -0.118678
H2    H     H_    0.585215 0.155691 0.784647 0.165700
C9    C     C_R   0.874400 0.190538 0.821097 -0.110201
C10   C     C_R   0.021205 0.253954 0.806234 0.077803
C11   C     C_3   0.229776 0.237855 0.791314 -0.414275
C12   C     C_3   0.217757 0.307619 0.721240 -0.397739
H3    H     H_    0.258320 0.167028 0.768993 0.186187
H4    H     H_    0.318974 0.261009 0.844584 0.165986
H5    H     H_    0.240873 0.277551 0.658335 0.179430
H6    H     H_    0.299456 0.371397 0.734002 0.162554
C13   C     C_R   0.043513 0.232844 0.208264 -0.225185
H7    H     H_    0.181175 0.218598 0.178928 0.131058
C14   C     C_R   0.035095 0.299689 0.270813 0.436001
C15   C     C_R   0.859017 0.316984 0.313719 -0.148140
C16   C     C_R   0.693726 0.269324 0.288156 -0.218952
H8    H     H_    0.556951 0.280593 0.319026 0.193487
C17   C     C_R   0.702455 0.205581 0.223132 -0.161455
H9    H     H_    0.571703 0.170540 0.205401 0.137052
C18   C     C_R   0.877937 0.186119 0.182758 -0.097310
C19   C     C_R   0.209901 0.692807 0.743829 -0.110610
H10   H     H_    0.085573 0.648269 0.741907 0.120611
C20   C     C_R   0.226052 0.756356 0.808848 -0.120981
H11   H     H_    0.114364 0.758141 0.856100 0.160202
C21   C     C_R   0.384321 0.816277 0.813716 -0.184749
C22   C     C_R   0.530089 0.809653 0.751109 0.399490
C23   C     C_R   0.515459 0.742854 0.688512 -0.216305
H12   H     H_    0.626610 0.737911 0.641181 0.177369
C24   C     C_R   0.355525 0.684969 0.683444 -0.119721
C25   C     C_R   0.188188 0.722439 0.280889 -0.152415
H13   H     H_    0.047502 0.702649 0.303858 0.116318
C26   C     C_R   0.199219 0.785757 0.215464 -0.149853
H14   H     H_    0.066485 0.813013 0.190275 0.117189
C27   C     C_R   0.378731 0.813685 0.183296 -0.036874
C28   C     C_R   0.546851 0.775992 0.218048 -0.152785
H15   H     H_    0.687543 0.795598 0.194953 0.114680
C29   C     C_R   0.535812 0.712729 0.283518 -0.154029
H16   H     H_    0.668517 0.685340 0.308619 0.118717
C30   C     C_R   0.356344 0.685363 0.316107 -0.043405
O11   O     O_R   0.229200 0.915950 0.913350 -0.521325
O12   O     O_R   0.559090 0.905000 0.086080 -0.551400
O13   O     O_R   0.729280 0.083880 0.086680 -0.550847
C31   C     C_R   0.389932 0.882436 0.114776 0.658083
O14   O     O_R   0.558920 0.904980 0.913920 -0.497286
O15   O     O_R   0.729110 0.083860 0.913300 -0.524835
C32   C     C_R   0.391353 0.884292 0.883515 0.771528
O16   O     O_R   0.229360 0.915970 0.086730 -0.547969
O17   O     O_3   0.395680 0.058580 0.000030 -0.386358
V3    V     V_3+5 0.670570 0.989070 0.999990 1.512283
O18   O     O_R   0.058820 0.094950 0.913870 -0.544027
C33   C     C_R   0.889440 0.118203 0.886016 0.785634
O19   O     O_R   0.058990 0.094970 0.086020 -0.552133
C34   C     C_R   0.889437 0.117131 0.114793 0.676457
V4    V     V_3+5 0.170560 0.010930 0.999930 1.456368
O20   O     O_3   0.895590 0.941310 0.999960 -0.354590
S1    S     S_3+6 0.720039 0.889702 0.741623 -0.010101
O21   O     O_2   0.857671 0.879281 0.812828 -0.323306
O22   O     O_2   0.829293 0.876737 0.661358 -0.337552
O23   O     O_3   0.625862 0.995452 0.743360 -0.519693
H17   H     H_    0.536976 0.997646 0.695297 0.323411
O24   O     O_3   0.204819 0.342160 0.293090 -0.578473
C35   C     C_3   0.222053 0.426901 0.250857 0.116232
H18   H     H_    0.320150 0.469761 0.288362 0.143735
H19   H     H_    0.082809 0.464990 0.246526 0.080477
C36   C     C_3   0.312809 0.415008 0.164232 -0.369606
H20   H     H_    0.444638 0.372044 0.168965 0.209777
H21   H     H_    0.209485 0.380391 0.122182 0.184598
C37   C     C_3   0.366275 0.507499 0.126347 -0.823513
H22   H     H_    0.236722 0.551980 0.121374 0.233317
H23   H     H_    0.427639 0.497087 0.063038 0.229172
H24   H     H_    0.475596 0.542263 0.165408 0.232296

loop_
_geom_bond_atom_site_label_1
_geom_bond_atom_site_label_2
_ccdc_geom_bond_type
C37   H22   S    
O14   C32   A    
V4    O20   S    
C4    C6    S    
C7    H1    S    
C36   C37   S    
C1    O6    A    
C35   H18   S    
C22   C23   A    
C11   H4    S    
C5    C12   S    
O15   V3    S    
C7    C8    A    
C36   H21   S    
C6    C7    A    
O5    C3    A    
V3    O20   S    
V2    O10   S    
C29   H16   S    
O12   C31   A    
C15   C16   A    
C28   H15   S    
O8    V2    S    
C16   H8    S    
C13   C18   A    
C25   C26   A    
C18   C34   S    
C13   C14   A    
O18   V4    S    
O17   V4    S    
O15   C33   A    
O7    V1    S    
O11   V4    S    
C2    C30   S    
C19   C20   A    
O9    C4    A    
C9    C33   S    
C21   C32   S    
C20   C21   A    
C35   H19   S    
C14   C15   A    
C28   C29   A    
C23   C24   A    
C5    C10   A    
C31   O16   A    
C26   H14   S    
C10   C11   S    
O4    C2    A    
O23   H17   S    
C11   C12   S    
C27   C28   A    
O16   V4    S    
C25   C30   A    
O17   V3    S    
C26   C27   A    
O2    C1    A    
S1    O21   D    
C17   H9    S    
C27   C31   S    
C13   H7    S    
C9    C10   A    
C5    C6    A    
C36   H20   S    
S1    O22   D    
O3    C4    A    
O1    V2    S    
O13   C34   A    
C19   H10   S    
C12   H6    S    
O6    V2    S    
C8    C9    A    
C20   H11   S    
C3    C15   S    
O2    V1    S    
C35   C36   S    
C21   C22   A    
O19   V4    S    
C1    C24   S    
C19   C24   A    
C23   H12   S    
C16   C17   A    
O1    C2    A    
O24   C35   S    
O5    V1    S    
O8    C3    A    
C14   O24   S    
C11   H3    S    
O14   V3    S    
C22   S1    S    
O9    V2    S    
O7    V2    S    
O4    V1    S    
C17   C18   A    
O3    V1    S    
V1    O10   S    
O11   C32   A    
O13   V3    S    
C29   C30   A    
O18   C33   A    
S1    O23   S    
O19   C34   A    
O12   V3    S    
C12   H5    S    
C25   H13   S    
C37   H24   S    
C37   H23   S    
C8    H2    S    
