data_mof_unit_18621.cif
_audit_creation_date              2012-12-10T17:23:08-0500
_audit_creation_method            fapswitch 2.2
_symmetry_space_group_name_H-M    P1
_symmetry_Int_Tables_number       1
_space_group_crystal_system       triclinic
_cell_length_a                    15.878382
_cell_length_b                    10.895996
_cell_length_c                    9.684586
_cell_angle_alpha                 89.843596
_cell_angle_beta                  89.902721
_cell_angle_gamma                 93.657843
_cell_volume                      1672.11531539

loop_
_atom_site_label
_atom_site_type_symbol
_atom_type_description
_atom_site_fract_x
_atom_site_fract_y
_atom_site_fract_z
_atom_type_partial_charge
C1    C     C_R   0.502504 0.262508 0.500332 0.830407
C2    C     C_3   0.083827 0.503844 0.499362 0.007496
C3    C     C_3   0.976421 0.611917 0.553511 -0.303484
C4    C     C_3   0.916286 0.504000 0.501119 0.015465
C5    C     C_3   0.032579 0.599336 0.421802 -0.293251
C6    C     C_3   0.971696 0.491846 0.372327 0.361979
C7    C     C_1   0.175312 0.502409 0.499987 0.103014
C8    C     C_1   0.824742 0.502515 0.500602 0.080748
C9    C     C_R   0.534954 0.108435 0.751244 -0.305103
C10   C     C_R   0.517802 0.045634 0.875672 0.366959
C11   C     C_R   0.465931 0.936561 0.874874 0.434978
C12   C     C_R   0.340237 0.499750 0.500077 0.776076
C13   C     C_R   0.442081 0.882000 0.747824 0.318033
C14   C     C_R   0.475100 0.935265 0.623366 -0.133825
C15   C     C_R   0.505025 0.059149 0.625109 -0.058111
C16   C     C_R   0.503069 0.127408 0.500312 -0.140605
C17   C     C_R   0.490090 0.063560 0.374949 0.299578
C18   C     C_R   0.493591 0.935676 0.373989 0.313600
C19   C     C_R   0.483447 0.869725 0.498681 -0.204846
C20   C     C_R   0.639175 0.619459 0.139496 0.346396
C21   C     C_R   0.717149 0.628911 0.069374 0.277666
C22   C     C_R   0.715606 0.633700 0.927597 -0.320043
C23   C     C_R   0.493865 0.736504 0.499728 0.885899
C24   C     C_R   0.638016 0.623397 0.859323 0.379275
C25   C     C_R   0.567140 0.560052 0.925200 0.100920
C26   C     C_R   0.567541 0.558788 0.074033 0.084506
C27   C     C_R   0.436879 0.442594 0.073851 -0.004698
C28   C     C_R   0.437013 0.442348 0.926731 -0.033438
C29   C     C_R   0.659727 0.500147 0.499980 0.834504
C30   C     C_3   0.968305 0.410651 0.577005 0.266414
C31   C     C_3   0.023047 0.398328 0.448061 0.259373
C32   C     C_1   0.250712 0.501078 0.500218 -0.133691
C33   C     C_1   0.749274 0.501269 0.500143 -0.188165
C34   C     C_3   0.028397 0.516298 0.628119 0.362921
Cu1   Cu    Cu3+1 0.499990 0.499990 0.640660 1.010463
Cu2   Cu    Cu3+1 0.500010 0.500010 0.359340 1.046914
N1    N     N_R   0.500800 0.501210 0.147910 -0.167509
N2    N     N_R   0.500830 0.501290 0.852040 -0.171330
O1    O     O_R   0.499990 0.319640 0.618810 -0.610923
O2    O     O_R   0.500000 0.319660 0.381240 -0.516563
O3    O     O_R   0.379070 0.499980 0.618770 -0.565527
O4    O     O_R   0.379080 0.500000 0.381190 -0.588303
O5    O     O_R   0.500000 0.680340 0.618760 -0.498203
O6    O     O_R   0.500010 0.680360 0.381190 -0.462359
O7    O     O_R   0.620920 0.500000 0.618810 -0.552800
O8    O     O_R   0.620930 0.500020 0.381230 -0.552074
O9    O     O_3   0.048039 0.288024 0.392635 -0.698913
H1    H     H_    0.994891 0.239803 0.369675 0.353319
O10   O     O_3   0.438827 0.886757 0.999487 -0.687555
H2    H     H_    0.408980 0.805307 0.984664 0.375725
O11   O     O_3   0.381753 0.784685 0.747938 -0.711451
H3    H     H_    0.356085 0.777786 0.654794 0.320875
O12   O     O_3   0.507487 0.875377 0.252137 -0.639209
H4    H     H_    0.544453 0.930518 0.193335 0.392777
H5    H     H_    0.385015 0.394755 0.128239 0.152214
O13   O     O_3   0.628943 0.692969 0.252444 -0.660103
H6    H     H_    0.678408 0.752252 0.264157 0.320258
O14   O     O_3   0.792897 0.656035 0.135477 -0.673037
H7    H     H_    0.785904 0.633180 0.234161 0.341519
H8    H     H_    0.772710 0.665098 0.873164 0.190945
O15   O     O_3   0.628684 0.694758 0.744078 -0.675338
H9    H     H_    0.683590 0.736475 0.716586 0.305947
H10   H     H_    0.385285 0.394261 0.872842 0.148455
O16   O     O_3   0.934144 0.313426 0.658090 -0.698266
H11   H     H_    0.983275 0.270731 0.692489 0.352753
O17   O     O_3   0.940205 0.477685 0.238229 -0.675931
H12   H     H_    0.990604 0.474920 0.178071 0.347174
H13   H     H_    0.059381 0.675889 0.356142 0.191877
H14   H     H_    0.956704 0.699034 0.598921 0.185650
O18   O     O_3   0.059690 0.527887 0.762587 -0.692639
H15   H     H_    0.009385 0.534820 0.822124 0.345638
O19   O     O_3   0.474448 0.125958 0.254433 -0.677386
H16   H     H_    0.440137 0.070057 0.192956 0.385244
H17   H     H_    0.574581 0.192733 0.754115 0.184913
O20   O     O_3   0.548648 0.091254 0.999479 -0.697241
H18   H     H_    0.582613 0.169476 0.982805 0.333056

loop_
_geom_bond_atom_site_label_1
_geom_bond_atom_site_label_2
_ccdc_geom_bond_type
C24   O15   S    
C30   O16   S    
Cu2   O4    S    
C2    C7    S    
C4    C8    S    
O12   H4    S    
Cu2   N1    S    
C3    H14   S    
C22   H8    S    
C5    C6    S    
C27   H5    S    
C15   C16   A    
C29   C33   S    
C23   O5    A    
O13   H6    S    
C18   C19   A    
C12   O4    A    
C1    O2    A    
C13   O11   S    
Cu1   Cu2   S    
C16   C17   A    
Cu2   O8    S    
O18   H15   S    
Cu1   O5    S    
C9    C10   A    
C34   O18   S    
C18   O12   S    
C20   O13   S    
C2    C34   S    
C6    C31   S    
C31   O9    S    
C21   C22   A    
C12   C32   S    
C5    H13   S    
C30   C34   S    
O11   H3    S    
Cu2   O2    S    
Cu1   N2    S    
C24   C25   A    
C4    C6    S    
C3    C34   S    
O14   H7    S    
C23   O6    A    
C29   O7    A    
C2    C31   S    
C19   C23   S    
O20   H18   S    
C12   O3    A    
C11   O10   S    
C25   N2    A    
C10   O20   S    
O9    H1    S    
C28   N2    A    
C17   C18   A    
C1    C16   S    
C22   C24   A    
Cu2   O6    S    
C2    C5    S    
C9    H17   S    
C3    C4    S    
Cu1   O7    S    
C7    C32   T    
C14   C19   A    
O19   H16   S    
C3    C5    S    
C26   N1    A    
C29   O8    A    
O16   H11   S    
C25   C26   A    
C21   O14   S    
C11   C13   A    
C30   C31   S    
C20   C26   A    
C27   N1    A    
Cu1   O1    S    
O17   H12   S    
C8    C33   T    
C9    C15   A    
O15   H9    S    
Cu1   O3    S    
C10   C11   A    
C1    O1    A    
C28   H10   S    
C6    O17   S    
C20   C21   A    
C17   O19   S    
O10   H2    S    
C27   C28   A    
C14   C15   A    
C13   C14   A    
C4    C30   S    
