data_mof_unit_26733.cif
_audit_creation_date              2012-12-11T15:36:59-0500
_audit_creation_method            fapswitch 2.2
_symmetry_space_group_name_H-M    P1
_symmetry_Int_Tables_number       1
_space_group_crystal_system       triclinic
_cell_length_a                    15.120193
_cell_length_b                    15.121714
_cell_length_c                    34.727847
_cell_angle_alpha                 91.381377
_cell_angle_beta                  91.715734
_cell_angle_gamma                 60.092955
_cell_volume                      6879.45061904

loop_
_atom_site_label
_atom_site_type_symbol
_atom_type_description
_atom_site_fract_x
_atom_site_fract_y
_atom_site_fract_z
_atom_type_partial_charge
C1    C     C_R   0.610655 0.303099 0.443557 0.537617
C2    C     C_R   0.581446 0.107974 0.764673 -0.107865
C3    C     C_R   0.111634 0.758312 0.889640 0.219902
C4    C     C_R   0.141435 0.750843 0.851703 -0.063816
C5    C     C_R   0.139708 0.678141 0.827029 -0.024710
C6    C     C_R   0.115365 0.607275 0.840647 -0.110894
C7    C     C_R   0.083506 0.612671 0.878657 -0.039847
C8    C     C_R   0.235676 0.596346 0.767966 -0.100977
C9    C     C_R   0.242916 0.593843 0.728140 -0.148700
C10   C     C_R   0.168818 0.674603 0.705993 0.064279
C11   C     C_R   0.087604 0.759257 0.724001 0.291641
C12   C     C_R   0.081723 0.762098 0.764019 -0.076829
C13   C     C_R   0.580287 0.181350 0.790649 0.022429
C14   C     C_R   0.635189 0.734185 0.157971 -0.110799
C15   C     C_R   0.155046 0.680395 0.785928 -0.015329
C16   C     C_R   0.211747 0.729455 0.645759 0.275465
C17   C     C_R   0.240726 0.709087 0.607502 -0.092666
C18   C     C_R   0.204011 0.570046 0.605574 -0.138407
C19   C     C_R   0.173032 0.591415 0.643640 -0.156247
C20   C     C_R   0.180043 0.668650 0.664222 0.075880
C21   C     C_R   0.241972 0.626170 0.587752 -0.016875
C22   C     C_R   0.671658 0.080514 0.906491 0.019885
C23   C     C_R   0.591625 0.071879 0.888565 -0.132317
C24   C     C_R   0.534271 0.208986 0.641288 -0.124125
C25   C     C_R   0.557220 0.109965 0.851528 -0.126127
C26   C     C_3   0.460442 0.793628 0.397278 -0.224903
C27   C     C_3   0.409050 0.883538 0.369162 -0.315067
C28   C     C_3   0.313065 0.972234 0.386256 -0.390625
C29   C     C_3   0.213958 0.517535 0.159262 -0.277294
C30   C     C_3   0.325529 0.455388 0.172450 -0.248336
C31   C     C_3   0.344396 0.361161 0.194563 -0.422528
C32   C     C_3   0.079747 0.654246 0.285662 -0.240341
C33   C     C_3   0.086934 0.554216 0.270984 -0.311038
C34   C     C_3   0.038884 0.515161 0.298660 -0.398876
C35   C     C_R   0.814207 0.605670 0.157308 -0.126508
C36   C     C_3   0.574123 0.078080 0.102048 -0.238882
C37   C     C_3   0.485379 0.109759 0.129685 -0.332671
C38   C     C_3   0.407327 0.082401 0.113126 -0.439716
C39   C     C_3   0.867036 0.215250 0.143944 -0.249930
C40   C     C_3   0.822663 0.327293 0.155455 -0.282278
C41   C     C_3   0.907146 0.346036 0.171502 -0.466572
C42   C     C_3   0.894254 0.042332 0.214047 -0.242413
C43   C     C_3   0.936992 0.942809 0.236414 -0.323323
C44   C     C_3   0.014709 0.932934 0.267446 -0.379997
C45   C     C_3   0.470106 0.242222 0.397411 -0.251677
C46   C     C_R   0.544019 0.228834 0.603164 -0.128266
C47   C     C_3   0.402868 0.220885 0.368966 -0.326826
C48   C     C_3   0.316378 0.218881 0.389725 -0.439570
C49   C     C_3   0.724221 0.465741 0.289932 -0.226814
C50   C     C_3   0.806330 0.363804 0.272578 -0.292434
C51   C     C_3   0.915036 0.344289 0.277832 -0.408970
C52   C     C_3   0.497751 0.801202 0.837198 -0.239351
C53   C     C_3   0.520943 0.875606 0.816601 -0.325327
C54   C     C_3   0.427642 0.953798 0.793817 -0.443618
C55   C     C_3   0.056681 0.533856 0.892645 -0.236946
C56   C     C_3   0.079312 0.444166 0.864998 -0.325307
C57   C     C_R   0.691190 0.248330 0.621224 -0.001608
C58   C     C_3   0.060962 0.364919 0.884036 -0.446376
C59   C     C_3   0.771303 0.775764 0.311476 -0.251496
C60   C     C_3   0.676589 0.876120 0.323372 -0.313406
C61   C     C_3   0.705676 0.954831 0.337402 -0.443117
C62   C     C_3   0.778571 0.266363 0.611099 -0.242150
C63   C     C_3   0.859199 0.245219 0.643081 -0.317601
C64   C     C_3   0.947513 0.255603 0.628164 -0.436637
C65   C     C_3   0.739521 0.814285 0.226020 -0.242698
C66   C     C_3   0.841922 0.782402 0.207215 -0.294907
C67   C     C_3   0.828462 0.849670 0.172868 -0.447516
C68   C     C_R   0.678053 0.229968 0.659646 -0.077457
C69   C     C_R   0.598146 0.214399 0.669868 0.016370
C70   C     C_R   0.618248 0.253942 0.592705 0.019420
C71   C     C_R   0.046766 0.738216 0.048092 0.549447
C72   C     C_R   0.723420 0.661759 0.177466 0.039129
C73   C     C_R   0.746019 0.745230 0.063442 0.539702
C74   C     C_R   0.751254 0.040611 0.050994 0.528134
C75   C     C_R   0.018420 0.721617 0.939792 0.564527
C76   C     C_R   0.717269 0.730061 0.954893 0.544189
C77   C     C_R   0.819600 0.628011 0.119135 -0.130486
C78   C     C_R   0.721450 0.024359 0.942086 0.537514
C79   C     C_R   0.720638 0.573017 0.235478 -0.128111
C80   C     C_R   0.728180 0.557639 0.275235 0.025233
C81   C     C_R   0.735633 0.629321 0.300227 0.054578
C82   C     C_R   0.745401 0.710171 0.284728 -0.000941
C83   C     C_R   0.601870 0.157666 0.832048 0.033216
C84   C     C_R   0.738176 0.724033 0.244100 0.014121
C85   C     C_R   0.725494 0.654281 0.219820 -0.007000
C86   C     C_R   0.605335 0.704482 0.350027 -0.146458
C87   C     C_R   0.592434 0.610295 0.448968 0.533996
C88   C     C_R   0.567646 0.709329 0.387011 -0.026722
C89   C     C_R   0.735162 0.568197 0.405487 -0.093609
C90   C     C_R   0.773260 0.570986 0.369809 0.221773
C91   C     C_R   0.706653 0.635403 0.341029 0.015024
C92   C     C_R   0.631917 0.632841 0.414046 -0.024400
C93   C     C_R   0.112518 0.721748 0.082557 -0.033343
C94   C     C_R   0.676840 0.172395 0.851089 -0.099481
C95   C     C_R   0.155494 0.627329 0.101003 -0.127060
C96   C     C_R   0.189359 0.616277 0.139377 -0.025364
C97   C     C_R   0.188111 0.700842 0.158817 0.047283
C98   C     C_R   0.155346 0.792623 0.138752 0.223830
C99   C     C_R   0.306091 0.590439 0.441927 0.587865
C100  C     C_R   0.116897 0.802877 0.100985 -0.096526
C101  C     C_R   0.287050 0.702680 0.218114 -0.068949
C102  C     C_R   0.302178 0.693965 0.258099 -0.061911
C103  C     C_R   0.235309 0.679727 0.280976 0.111252
C104  C     C_R   0.150993 0.676736 0.263580 0.031105
C105  C     C_R   0.711508 0.134054 0.887907 -0.109896
C106  C     C_R   0.134211 0.691250 0.223984 -0.119994
C107  C     C_R   0.203646 0.699388 0.200959 0.041782
C108  C     C_R   0.300630 0.558730 0.335128 0.189115
C109  C     C_R   0.305985 0.539246 0.374206 -0.151007
C110  C     C_R   0.228954 0.719954 0.389045 0.236125
C111  C     C_R   0.604969 0.302451 0.554473 0.537184
C112  C     C_R   0.224623 0.740001 0.349490 0.208226
C113  C     C_R   0.258105 0.659373 0.322392 0.002971
C114  C     C_R   0.271971 0.618385 0.401620 -0.044211
C115  C     C_R   0.724485 0.104844 0.086813 -0.001353
C116  C     C_R   0.572574 0.270931 0.776274 -0.109599
C117  C     C_R   0.786474 0.147239 0.097170 -0.117354
C118  C     C_R   0.786665 0.185801 0.134229 0.013227
C119  C     C_R   0.719774 0.184811 0.161631 0.064072
C120  C     C_R   0.649633 0.153753 0.150145 -0.083957
C121  C     C_R   0.649589 0.114185 0.113018 -0.023672
C122  C     C_R   0.638967 0.293331 0.219344 0.198224
C123  C     C_R   0.586550 0.606018 0.559379 0.536528
C124  C     C_R   0.617879 0.297849 0.258505 -0.091892
C125  C     C_R   0.682581 0.217764 0.282787 -0.049533
C126  C     C_R   0.771409 0.136367 0.268010 -0.131053
C127  C     C_R   0.573319 0.283645 0.736717 -0.114779
C128  C     C_R   0.793482 0.128744 0.228591 -0.031031
C129  C     C_R   0.723194 0.206343 0.203511 0.023415
C130  C     C_R   0.743728 0.216012 0.349791 -0.126810
C131  C     C_R   0.727360 0.231117 0.388947 -0.115744
C132  C     C_R   0.559860 0.245876 0.380117 -0.003885
C133  C     C_R   0.576226 0.235557 0.339830 -0.068847
C134  C     C_R   0.666231 0.224437 0.324706 0.006010
C135  C     C_R   0.298481 0.589267 0.551818 0.555199
C136  C     C_R   0.633151 0.254133 0.404517 0.012321
C137  C     C_R   0.691175 0.688746 0.920085 0.007796
C138  C     C_R   0.580993 0.207352 0.710910 0.023744
C139  C     C_R   0.762316 0.593125 0.905009 -0.140181
C140  C     C_R   0.750264 0.565175 0.867498 -0.119013
C141  C     C_R   0.666361 0.631655 0.844500 0.084986
C142  C     C_R   0.589503 0.724759 0.860474 0.035862
C143  C     C_R   0.602744 0.751779 0.898282 -0.107208
C144  C     C_R   0.602837 0.582686 0.784208 0.232467
C145  C     C_R   0.597994 0.579649 0.743946 -0.084807
C146  C     C_R   0.661247 0.601373 0.721959 -0.016541
C147  C     C_R   0.734139 0.707560 0.100581 0.014663
C148  C     C_R   0.732949 0.621375 0.740523 -0.129554
C149  C     C_R   0.581176 0.121209 0.724988 -0.096729
C150  C     C_R   0.736713 0.626413 0.780637 -0.170178
C151  C     C_R   0.669479 0.610730 0.802687 0.032704
C152  C     C_R   0.727938 0.550395 0.655152 -0.118035
C153  C     C_R   0.710637 0.554094 0.615245 -0.131836
C154  C     C_R   0.534002 0.683579 0.624460 -0.112846
C155  C     C_R   0.550819 0.678426 0.664185 -0.110594
C156  C     C_R   0.647090 0.610174 0.679829 0.021112
C157  C     C_R   0.612762 0.618892 0.599615 0.018367
C158  C     C_R   0.074579 0.694766 0.902963 0.022991
C159  C     C_R   0.640643 0.757524 0.119746 -0.129063
Cl1   Cl    Cl    0.182300 0.865379 0.334336 -0.672116
Cl2   Cl    Cl    0.228088 0.823298 0.670790 -0.597957
Cl3   Cl    Cl    0.351445 0.454565 0.302706 -0.742618
Cl4   Cl    Cl    0.147946 0.901261 0.161730 -0.689557
Cl5   Cl    Cl    0.178307 0.822571 0.422520 -0.562499
Cl6   Cl    Cl    0.561308 0.399825 0.190663 -0.720965
Cl7   Cl    Cl    0.903080 0.487891 0.361985 -0.722025
Cl8   Cl    Cl    0.522836 0.553931 0.810585 -0.666020
Cl9   Cl    Cl    0.123914 0.848716 0.919026 -0.589080
Cl10  Cl    Cl    0.990025 0.860001 0.697288 -0.569816
Cr1   Cr    Cr6+3 0.426010 0.422500 0.497000 1.008552
Cr2   Cr    Cr6+3 0.651300 0.426310 0.501970 1.018307
Cr3   Cr    Cr6+3 0.422670 0.651170 0.501050 1.063905
Cr4   Cr    Cr6+3 0.905130 0.911420 0.992650 1.088948
Cr5   Cr    Cr6+3 0.911860 0.682710 0.002320 1.002968
Cr6   Cr    Cr6+3 0.682710 0.906840 0.004710 1.004282
H1    H     H_    0.573188 0.818007 0.105876 0.128608
H2    H     H_    0.342043 0.461060 0.383100 0.164889
H3    H     H_    0.936123 0.338872 0.308829 0.224746
H4    H     H_    0.968572 0.270458 0.263884 0.130370
H5    H     H_    0.802798 0.301102 0.286662 0.162948
H6    H     H_    0.789933 0.359472 0.241616 0.166103
H7    H     H_    0.731967 0.459346 0.321667 0.174369
H8    H     H_    0.647986 0.475529 0.282274 0.145255
H9    H     H_    0.403955 0.914833 0.771762 0.182741
H10   H     H_    0.363314 0.999283 0.813449 0.161029
H11   H     H_    0.446208 0.006472 0.778973 0.138639
H12   H     H_    0.544071 0.916160 0.838146 0.157310
H13   H     H_    0.840823 0.144136 0.076783 0.137491
H14   H     H_    0.584779 0.833233 0.796466 0.176344
H15   H     H_    0.432327 0.844799 0.856654 0.156796
H16   H     H_    0.472494 0.762289 0.815882 0.202399
H17   H     H_    0.112191 0.332549 0.909673 0.159115
H18   H     H_    0.980505 0.399706 0.892979 0.147179
H19   H     H_    0.077036 0.301948 0.863260 0.155504
H20   H     H_    0.028772 0.472729 0.838959 0.157202
H21   H     H_    0.160420 0.405872 0.856282 0.169952
H22   H     H_    0.101728 0.500224 0.919562 0.179018
H23   H     H_    0.973936 0.573429 0.898930 0.169156
H24   H     H_    0.520912 0.234118 0.319791 0.147899
H25   H     H_    0.762722 0.923650 0.361447 0.175607
H26   H     H_    0.737863 0.976682 0.313484 0.150857
H27   H     H_    0.636834 0.023979 0.347916 0.148564
H28   H     H_    0.620602 0.908647 0.299049 0.156622
H29   H     H_    0.638602 0.861610 0.347224 0.166936
H30   H     H_    0.811895 0.733021 0.337895 0.173989
H31   H     H_    0.827183 0.791064 0.297426 0.134418
H32   H     H_    0.986541 0.199282 0.604661 0.174151
H33   H     H_    0.919337 0.333741 0.617208 0.140387
H34   H     H_    0.003665 0.241164 0.651955 0.161757
H35   H     H_    0.552954 0.365068 0.270178 0.203952
H36   H     H_    0.824083 0.300862 0.667161 0.156461
H37   H     H_    0.890331 0.166444 0.654008 0.207674
H38   H     H_    0.818949 0.215664 0.586278 0.181403
H39   H     H_    0.745761 0.347156 0.602487 0.175519
H40   H     H_    0.904146 0.828367 0.161137 0.146667
H41   H     H_    0.789110 0.931272 0.181723 0.157262
H42   H     H_    0.782236 0.839191 0.149708 0.166430
H43   H     H_    0.893602 0.787145 0.229111 0.130730
H44   H     H_    0.881591 0.701895 0.197660 0.168370
H45   H     H_    0.675434 0.850429 0.204768 0.145695
H46   H     H_    0.822458 0.078700 0.287962 0.132079
H47   H     H_    0.723616 0.876642 0.246894 0.132677
H48   H     H_    0.815931 0.202401 0.338983 0.122168
H49   H     H_    0.787549 0.230751 0.406777 0.157599
H50   H     H_    0.598509 0.155813 0.171693 0.112183
H51   H     H_    0.830642 0.542677 0.921347 0.120524
H52   H     H_    0.547173 0.825902 0.909543 0.130399
H53   H     H_    0.883849 0.552096 0.172193 0.091639
H54   H     H_    0.487967 0.726174 0.682842 0.155346
H55   H     H_    0.543751 0.562023 0.729737 0.140879
H56   H     H_    0.809632 0.494031 0.855529 0.115838
H57   H     H_    0.782416 0.637995 0.723965 0.130497
H58   H     H_    0.789105 0.647057 0.794535 0.115555
H59   H     H_    0.802992 0.497804 0.666844 0.111159
H60   H     H_    0.772426 0.503390 0.596731 0.113642
H61   H     H_    0.457416 0.733613 0.613457 0.152467
H62   H     H_    0.709524 0.521690 0.216297 0.145570
H63   H     H_    0.149232 0.543874 0.657812 0.116374
H64   H     H_    0.786356 0.512792 0.426336 0.166264
H65   H     H_    0.305975 0.528585 0.714460 0.119683
H66   H     H_    0.291891 0.532458 0.784751 0.153384
H67   H     H_    0.164214 0.803252 0.841132 0.162562
H68   H     H_    0.017935 0.825979 0.777978 0.142997
H69   H     H_    0.269944 0.753340 0.594342 0.157083
H70   H     H_    0.116898 0.551310 0.820326 0.116354
H71   H     H_    0.564280 0.777555 0.173146 0.118308
H72   H     H_    0.204052 0.505938 0.590963 0.142277
H73   H     H_    0.559421 0.030980 0.902235 0.124807
H74   H     H_    0.772804 0.142387 0.901107 0.144287
H75   H     H_    0.153913 0.563851 0.086510 0.138072
H76   H     H_    0.728002 0.230025 0.682535 0.120000
H77   H     H_    0.571705 0.351381 0.726244 0.119981
H78   H     H_    0.570521 0.328980 0.795709 0.166930
H79   H     H_    0.498296 0.099139 0.837545 0.105572
H80   H     H_    0.587476 0.061506 0.705445 0.121967
H81   H     H_    0.589561 0.037324 0.775059 0.106777
H82   H     H_    0.473247 0.195082 0.648766 0.112883
H83   H     H_    0.489063 0.230238 0.582090 0.130011
H84   H     H_    0.713248 0.208100 0.836619 0.124715
H85   H     H_    0.556133 0.753917 0.327381 0.116750
H86   H     H_    0.083886 0.876412 0.087173 0.164595
H87   H     H_    0.259157 0.946881 0.394631 0.258122
H88   H     H_    0.333179 0.003606 0.412137 0.135167
H89   H     H_    0.274719 0.033476 0.364590 0.163445
H90   H     H_    0.462192 0.911759 0.362740 0.146494
H91   H     H_    0.387507 0.858414 0.341889 0.203587
H92   H     H_    0.410330 0.759856 0.399890 0.204258
H93   H     H_    0.466246 0.826426 0.425600 0.177723
H94   H     H_    0.301798 0.384363 0.221854 0.186330
H95   H     H_    0.319246 0.314983 0.177057 0.126177
H96   H     H_    0.426907 0.313129 0.201632 0.192443
H97   H     H_    0.367832 0.694714 0.271102 0.128846
H98   H     H_    0.375018 0.430975 0.146840 0.207290
H99   H     H_    0.346187 0.502194 0.191616 0.238088
H100  H     H_    0.163163 0.533509 0.183873 0.138271
H101  H     H_    0.197716 0.468124 0.139499 0.129572
H102  H     H_    0.075270 0.504404 0.327739 0.212242
H103  H     H_    0.956067 0.570213 0.300333 0.198993
H104  H     H_    0.050228 0.440466 0.288150 0.156999
H105  H     H_    0.047383 0.566225 0.242482 0.131978
H106  H     H_    0.167824 0.494507 0.267442 0.222497
H107  H     H_    0.096126 0.649719 0.317096 0.165067
H108  H     H_    0.341196 0.709631 0.200541 0.156577
H109  H     H_    0.000550 0.717868 0.281768 0.111620
H110  H     H_    0.373617 0.123311 0.085710 0.155087
H111  H     H_    0.443819 0.998970 0.107762 0.160344
H112  H     H_    0.345090 0.105090 0.133951 0.156713
H113  H     H_    0.514824 0.069865 0.157595 0.152362
H114  H     H_    0.446317 0.193539 0.134639 0.171684
H115  H     H_    0.539726 0.110554 0.073446 0.169729
H116  H     H_    0.616502 0.993477 0.099840 0.177695
H117  H     H_    0.959593 0.284406 0.191332 0.158033
H118  H     H_    0.951716 0.351084 0.147658 0.155785
H119  H     H_    0.892740 0.588158 0.105221 0.127116
H120  H     H_    0.872982 0.417578 0.188475 0.142327
H121  H     H_    0.784915 0.376719 0.130107 0.187908
H122  H     H_    0.764725 0.348583 0.177719 0.208310
H123  H     H_    0.917378 0.166306 0.167151 0.155436
H124  H     H_    0.917744 0.200068 0.119131 0.149778
H125  H     H_    0.089576 0.908106 0.254169 0.226327
H126  H     H_    0.991212 0.005958 0.283042 0.182928
H127  H     H_    0.022961 0.875399 0.288570 0.183241
H128  H     H_    0.874436 0.936172 0.249434 0.151559
H129  H     H_    0.976438 0.878500 0.215883 0.182041
H130  H     H_    0.068297 0.692063 0.210545 0.090866
H131  H     H_    0.885959 0.024272 0.183468 0.154530
H132  H     H_    0.951350 0.068045 0.215408 0.177279
H133  H     H_    0.347729 0.158701 0.411986 0.150004
H134  H     H_    0.266487 0.293975 0.403676 0.176377
H135  H     H_    0.269517 0.202674 0.368631 0.159516
H136  H     H_    0.368032 0.281932 0.347069 0.214186
H137  H     H_    0.449568 0.146063 0.354299 0.153866
H138  H     H_    0.501500 0.181297 0.419463 0.145551
H139  H     H_    0.419720 0.314981 0.412235 0.184938
H140  H     H_    0.923127 0.405358 0.264196 0.166122
O1    O     O_R   0.324990 0.503440 0.453910 -0.531887
O2    O     O_R   0.675430 0.831160 0.051290 -0.527300
O3    O     O_R   0.698870 0.998880 0.039560 -0.514668
O4    O     O_R   0.522030 0.339050 0.458320 -0.516003
O5    O     O_R   0.811290 0.006780 0.950620 -0.494963
O6    O     O_R   0.980960 0.812920 0.953200 -0.428766
O7    O     O_R   0.001480 0.656720 0.955830 -0.546374
O8    O     O_R   0.809240 0.683250 0.968050 -0.505205
O9    O     O_R   0.652500 0.818540 0.967340 -0.513936
O10   O     O_R   0.677620 0.987170 0.961730 -0.505149
O11   O     O_3   0.833240 0.833660 0.999890 -0.248881
O12   O     O_R   0.639980 0.519500 0.542640 -0.506077
O13   O     O_R   0.676180 0.324490 0.458320 -0.508204
O14   O     O_R   0.643570 0.521510 0.464260 -0.497897
O15   O     O_R   0.504630 0.675350 0.460920 -0.520763
O16   O     O_R   0.339850 0.642450 0.459830 -0.446030
O17   O     O_R   0.321120 0.501280 0.538470 -0.513022
O18   O     O_R   0.518440 0.337050 0.536710 -0.499898
O19   O     O_R   0.672300 0.322330 0.542880 -0.528158
O20   O     O_R   0.500750 0.673190 0.545480 -0.515634
O21   O     O_R   0.336260 0.640450 0.538210 -0.497150
O22   O     O_3   0.499990 0.499990 0.500010 -0.249916
O23   O     O_R   0.834210 0.019400 0.034570 -0.514881
O24   O     O_R   0.002210 0.824620 0.031030 -0.485204
O25   O     O_R   0.024400 0.669340 0.039790 -0.523343
O26   O     O_R   0.830490 0.694950 0.045870 -0.500216

loop_
_geom_bond_atom_site_label_1
_geom_bond_atom_site_label_2
_ccdc_geom_bond_type
C101  C107  A    
C145  H55   S    
C78   O10   A    
C18   C21   A    
C19   C20   A    
C7    C55   S    
C63   H37   S    
C55   C56   S    
C145  C146  A    
C73   O26   A    
C101  C102  A    
C99   O1    A    
C144  C151  A    
C5    C6    A    
C86   C88   A    
Cr5   O11   S    
C152  H59   S    
C106  C107  A    
C75   O7    A    
C108  C109  A    
C61   H25   S    
C23   H73   S    
C77   H119  S    
C152  C156  A    
C10   C20   S    
C38   H112  S    
C3    C158  A    
C32   C104  S    
C131  H49   S    
C1    C136  S    
C77   C147  A    
C42   C128  S    
C29   H101  S    
C34   H103  S    
C59   C60   S    
C62   H39   S    
C130  C134  A    
C65   H47   S    
C26   H93   S    
C45   C47   S    
C140  C141  A    
C22   C78   S    
C19   H63   S    
C110  Cl5   S    
C144  C145  A    
C76   O9    A    
C155  H54   S    
C17   C21   A    
C47   H137  S    
C108  C113  A    
C43   C44   S    
C37   C38   S    
C56   H20   S    
C87   O15   A    
C16   C20   A    
C9    H65   S    
C93   C100  A    
C154  C155  A    
Cr4   O24   S    
C68   H76   S    
C11   Cl10  S    
C82   C84   A    
C58   H17   S    
C79   C85   A    
C130  H48   S    
C112  Cl1   S    
C73   O2    A    
C143  H52   S    
C4    C5    A    
C139  C140  A    
C6    C7    A    
C71   C93   S    
C39   C118  S    
C43   H129  S    
C58   H18   S    
C49   C80   S    
C42   H132  S    
C24   C46   A    
C130  C131  A    
C55   H22   S    
C74   O23   A    
C1    O4    A    
C39   H123  S    
Cr4   O6    S    
C46   C70   A    
C97   C107  S    
C30   H98   S    
C155  C156  A    
C25   C83   A    
C22   C23   A    
Cr2   O12   S    
C21   C135  S    
C41   H118  S    
C46   H83   S    
C115  C121  A    
Cr4   O5    S    
C59   C82   S    
C128  C129  A    
C99   C114  S    
C72   C85   S    
C76   C137  S    
C44   H126  S    
C139  H51   S    
C36   C37   S    
C148  C150  A    
C18   C19   A    
C27   H91   S    
C51   H140  S    
C106  H130  S    
C18   H72   S    
C60   H29   S    
C47   C48   S    
C54   H10   S    
Cr2   O14   S    
C44   H125  S    
C9    C10   A    
C110  C114  A    
Cr6   O3    S    
C66   C67   S    
C123  O20   A    
C133  H24   S    
C122  Cl6   S    
C56   H21   S    
C111  O19   A    
C67   H41   S    
C51   H4    S    
C95   H75   S    
C4    H67   S    
Cr5   O7    S    
C138  C149  A    
C64   H32   S    
C5    C15   S    
C144  Cl8   S    
C13   C116  A    
C131  C136  A    
C39   C40   S    
Cr6   O10   S    
C65   C84   S    
C123  C157  S    
C52   H16   S    
C29   C30   S    
C61   H27   S    
C132  C136  A    
Cr5   O26   S    
C45   H138  S    
C31   H95   S    
C48   H135  S    
C86   H85   S    
Cr1   O22   S    
C109  C114  A    
C140  H56   S    
C41   H120  S    
C159  H1    S    
C40   H121  S    
C57   C68   A    
C122  C124  A    
C3    C4    A    
C51   H3    S    
Cr3   O21   S    
C52   C53   S    
C38   H111  S    
C69   C138  S    
C126  C128  A    
C14   C72   A    
C63   H36   S    
C117  H13   S    
C29   C96   S    
C149  H80   S    
C28   H88   S    
C14   C159  A    
C36   C121  S    
C117  C118  A    
C124  H35   S    
C8    H66   S    
C74   C115  S    
C75   O6    A    
C119  C129  S    
C44   H127  S    
C102  C103  A    
Cr2   O22   S    
C110  C112  A    
C10   C11   A    
C63   C64   S    
Cr6   O9    S    
C152  C153  A    
C37   H114  S    
C49   C50   S    
C150  C151  A    
C39   H124  S    
Cr4   O11   S    
C74   O3    A    
C53   H14   S    
C3    Cl9   S    
C33   H105  S    
C125  C134  S    
C29   H100  S    
C36   H116  S    
C34   H104  S    
C94   C105  A    
C135  O17   A    
Cr1   O17   S    
C104  C106  A    
C98   Cl4   S    
C126  H46   S    
C120  C121  A    
C137  C139  A    
C141  C151  S    
C26   C27   S    
C102  H97   S    
C73   C147  S    
C40   H122  S    
C86   C91   A    
C30   C31   S    
Cr1   O18   S    
C47   H136  S    
C127  H77   S    
C89   H64   S    
C49   H8    S    
C87   O14   A    
C16   C17   A    
C115  C117  A    
C116  C127  A    
C148  H57   S    
C127  C138  A    
C57   C70   A    
C122  C129  A    
Cr4   O23   S    
C59   H30   S    
C87   C92   S    
C90   Cl7   S    
Cr2   O19   S    
C32   H107  S    
C97   C98   A    
C146  C148  A    
C116  H78   S    
C101  H108  S    
C35   H53   S    
C67   H42   S    
C84   C85   A    
C154  C157  A    
C53   C54   S    
C83   C94   A    
C43   H128  S    
C24   H82   S    
C35   C77   A    
C60   C61   S    
C62   C63   S    
C12   C15   A    
C11   C12   A    
C50   C51   S    
C8    C9    A    
C52   H15   S    
C75   C158  S    
C34   H102  S    
C35   C72   A    
C30   H99   S    
C8    C15   A    
C98   C100  A    
C31   H96   S    
C125  C126  A    
C62   H38   S    
C54   H9    S    
C64   H34   S    
C42   C43   S    
C22   C105  A    
C26   H92   S    
C41   H117  S    
Cr3   O16   S    
C119  C120  A    
C76   O8    A    
C16   Cl2   S    
C150  H58   S    
C13   C83   S    
C32   C33   S    
C105  H74   S    
C66   H43   S    
C90   C91   A    
C27   H90   S    
C28   H87   S    
C123  O12   A    
C58   H19   S    
C153  C157  A    
C1    O13   A    
C70   C111  S    
C81   C91   S    
C109  H2    S    
C26   C88   S    
C54   H11   S    
C103  C104  A    
C142  C143  A    
C89   C90   A    
C32   H109  S    
Cr6   O2    S    
C111  O18   A    
C6    H70   S    
C67   H40   S    
C95   C96   A    
C147  C159  A    
C81   C82   A    
C57   C62   S    
C7    C158  A    
C36   H115  S    
C64   H33   S    
C66   H44   S    
C42   H131  S    
C103  C113  S    
C55   H23   S    
C78   O5    A    
C153  H60   S    
C2    C13   A    
C118  C119  A    
C61   H26   S    
C68   C69   A    
Cr1   O4    S    
C88   C92   A    
C17   H69   S    
C56   C58   S    
C135  O21   A    
C31   H94   S    
Cr2   O13   S    
C2    C149  A    
C137  C143  A    
C37   H113  S    
C112  C113  A    
C24   C69   A    
C33   H106  S    
C48   H133  S    
C132  C133  A    
C99   O16   A    
C28   H89   S    
C108  Cl3   S    
C52   C142  S    
C79   C80   A    
C50   H5    S    
C60   H28   S    
C94   H84   S    
C12   H68   S    
C96   C97   A    
C33   C34   S    
C100  H86   S    
C89   C92   A    
C40   C41   S    
C50   H6    S    
C79   H62   S    
C45   C132  S    
C59   H31   S    
Cr3   O22   S    
Cr1   O1    S    
Cr5   O8    S    
C80   C81   A    
C2    H81   S    
C65   H45   S    
C25   H79   S    
Cr6   O11   S    
C53   H12   S    
C141  C142  A    
Cr3   O15   S    
C133  C134  A    
Cr5   O25   S    
C71   O24   A    
C23   C25   A    
C48   H134  S    
C45   H139  S    
C49   H7    S    
C146  C156  S    
C93   C95   A    
C65   C66   S    
C154  H61   S    
C27   C28   S    
C71   O25   A    
C120  H50   S    
Cr3   O20   S    
C38   H110  S    
C124  C125  A    
C14   H71   S    
