data_mof_unit_52726.cif
_audit_creation_date              2012-10-26T18:44:48-0400
_audit_creation_method            fapswitch 2.2
_symmetry_space_group_name_H-M    P1
_symmetry_Int_Tables_number       1
_space_group_crystal_system       triclinic
_cell_length_a                    15.969086
_cell_length_b                    14.775244
_cell_length_c                    10.795592
_cell_angle_alpha                 89.85866
_cell_angle_beta                  90.054716
_cell_angle_gamma                 90.120232
_cell_volume                      2547.17457235

loop_
_atom_site_label
_atom_site_type_symbol
_atom_type_description
_atom_site_fract_x
_atom_site_fract_y
_atom_site_fract_z
_atom_type_partial_charge
C1    C     C_1   0.251845 0.499527 0.493904 -0.032665
C2    C     C_R   0.573956 0.048134 0.475155 -0.111280
C3    C     C_R   0.956181 0.580972 0.495715 0.235951
C4    C     C_R   0.043727 0.420545 0.441983 0.252406
C5    C     C_R   0.043371 0.579135 0.507428 0.238650
C6    C     C_R   0.955846 0.419059 0.447747 0.241417
C7    C     C_R   0.340860 0.499881 0.499623 0.521454
C8    C     C_R   0.659122 0.500028 0.500300 0.519719
C9    C     C_R   0.499896 0.500150 0.262385 0.527314
C10   C     C_R   0.499923 0.499917 0.737629 0.527981
C11   C     C_R   0.912386 0.499637 0.475669 -0.066377
C12   C     C_1   0.748102 0.499857 0.495289 -0.038931
C13   C     C_R   0.087254 0.499737 0.477424 -0.065480
C14   C     C_1   0.500130 0.802706 0.499850 0.126519
C15   C     C_1   0.500156 0.197308 0.499793 0.121712
C16   C     C_1   0.822988 0.499270 0.487966 -0.006211
C17   C     C_1   0.176903 0.499289 0.486983 -0.011322
C18   C     C_R   0.654542 0.494456 0.129270 -0.105405
C19   C     C_R   0.345447 0.510928 0.870742 -0.090856
C20   C     C_R   0.654468 0.491551 0.871352 -0.088389
C21   C     C_R   0.345496 0.512057 0.128727 -0.092755
C22   C     C_R   0.730033 0.490675 0.064826 -0.131455
C23   C     C_R   0.499888 0.499862 0.871137 -0.013663
C24   C     C_R   0.270126 0.517254 0.935222 -0.123612
C25   C     C_R   0.729985 0.488984 0.936107 -0.114056
C26   C     C_R   0.270177 0.518106 0.063957 -0.125995
C27   C     C_R   0.577009 0.495809 0.934971 0.008202
C28   C     C_R   0.422844 0.505973 0.065088 0.008922
C29   C     C_R   0.577034 0.496744 0.065366 0.009896
C30   C     C_R   0.422833 0.505558 0.934668 0.009089
C31   C     C_3   0.109105 0.652261 0.667967 0.023225
C32   C     C_3   0.042158 0.695295 0.750435 -0.247039
C33   C     C_3   0.070304 0.698349 0.885559 -0.498056
C34   C     C_R   0.499906 0.500695 0.128902 -0.012869
C35   C     C_3   0.866018 0.325693 0.337790 0.015113
C36   C     C_3   0.787900 0.270395 0.370154 -0.254143
C37   C     C_3   0.731334 0.256927 0.257733 -0.471816
C38   C     C_3   0.885713 0.698782 0.405184 0.018771
C39   C     C_3   0.954050 0.757734 0.346081 -0.250476
C40   C     C_3   0.922010 0.804981 0.229520 -0.495289
C41   C     C_3   0.128566 0.346169 0.302329 0.019311
C42   C     C_3   0.073878 0.309240 0.197533 -0.271770
C43   C     C_3   0.122933 0.301686 0.076753 -0.478768
C44   C     C_R   0.500228 0.902879 0.499668 0.003703
C45   C     C_R   0.500244 0.097164 0.499588 0.002973
C46   C     C_R   0.573944 0.952346 0.475203 -0.108094
C47   C     C_R   0.426549 0.047695 0.523957 -0.107946
C48   C     C_R   0.426540 0.951944 0.523998 -0.108571
Cu1   Cu    Cu3+1 0.500000 0.589220 0.500000 0.982544
Cu2   Cu    Cu3+1 0.500000 0.410780 0.500000 0.971666
H1    H     H_    0.211644 0.523424 0.113864 0.099170
H2    H     H_    0.342329 0.510532 0.770687 0.118142
H3    H     H_    0.657520 0.490490 0.771315 0.122606
H4    H     H_    0.342425 0.512648 0.228764 0.118196
H5    H     H_    0.168397 0.690930 0.678782 0.153828
H6    H     H_    0.122510 0.582042 0.700686 0.109567
H7    H     H_    0.029194 0.765266 0.717701 0.189535
H8    H     H_    0.983346 0.655270 0.744663 0.194705
H9    H     H_    0.081593 0.628771 0.920963 0.140916
H10   H     H_    0.020718 0.730177 0.942755 0.149611
H11   H     H_    0.128660 0.738836 0.894780 0.155453
H12   H     H_    0.788664 0.485951 0.886155 0.117254
H13   H     H_    0.902601 0.287185 0.268513 0.137680
H14   H     H_    0.846561 0.390830 0.294131 0.098580
H15   H     H_    0.807117 0.203059 0.406364 0.171317
H16   H     H_    0.752027 0.305440 0.443829 0.191720
H17   H     H_    0.708904 0.323206 0.222719 0.164265
H18   H     H_    0.676110 0.215512 0.284540 0.153335
H19   H     H_    0.765702 0.221401 0.182890 0.146003
H20   H     H_    0.830894 0.742250 0.426313 0.155822
H21   H     H_    0.863275 0.646972 0.337722 0.108336
H22   H     H_    0.975299 0.809524 0.413753 0.193421
H23   H     H_    0.211542 0.521477 0.885084 0.098275
H24   H     H_    0.008504 0.714991 0.320642 0.181255
H25   H     H_    0.901690 0.754205 0.159890 0.146114
H26   H     H_    0.972912 0.846746 0.188694 0.152340
H27   H     H_    0.868502 0.849861 0.252329 0.150581
H28   H     H_    0.185823 0.303923 0.309959 0.161931
H29   H     H_    0.150035 0.415622 0.277304 0.104449
H30   H     H_    0.049613 0.241251 0.223540 0.183830
H31   H     H_    0.020302 0.355763 0.182306 0.137072
H32   H     H_    0.145556 0.369368 0.046844 0.151509
H33   H     H_    0.081621 0.273970 0.003205 0.154382
H34   H     H_    0.788738 0.489018 0.114994 0.092713
H35   H     H_    0.177272 0.255655 0.088661 0.157584
H36   H     H_    0.631785 0.083961 0.456030 0.102536
H37   H     H_    0.368708 0.916150 0.543148 0.113681
H38   H     H_    0.368723 0.083174 0.543082 0.115804
H39   H     H_    0.631768 0.916854 0.456092 0.106875
H40   H     H_    0.657662 0.495662 0.229308 0.114376
N1    N     N_1   0.500000 0.276710 0.500000 -0.191060
N2    N     N_1   0.500000 0.723290 0.500000 -0.189266
O1    O     O_R   0.380310 0.575320 0.500020 -0.491618
O2    O     O_3   0.915045 0.336051 0.446185 -0.524181
O3    O     O_3   0.913885 0.660980 0.518490 -0.552505
O4    O     O_3   0.085918 0.340592 0.417431 -0.525030
O5    O     O_R   0.619690 0.424680 0.499980 -0.502894
O6    O     O_R   0.619690 0.575320 0.499980 -0.488428
O7    O     O_R   0.380310 0.424680 0.500020 -0.488878
O8    O     O_R   0.499990 0.575350 0.319650 -0.492950
O9    O     O_R   0.500010 0.424650 0.680350 -0.491418
O10   O     O_R   0.500010 0.575350 0.680350 -0.492670
O11   O     O_R   0.499990 0.424650 0.319650 -0.496324
O12   O     O_3   0.085524 0.657323 0.541456 -0.550801

loop_
_geom_bond_atom_site_label_1
_geom_bond_atom_site_label_2
_ccdc_geom_bond_type
C21   C26   A    
C38   H20   S    
C42   H30   S    
C37   H19   S    
C27   C29   A    
C43   H33   S    
C41   C42   S    
C35   C36   S    
C32   H8    S    
C46   H39   S    
C31   C32   S    
C2    C46   A    
Cu2   O7    S    
C7    O7    A    
C36   C37   S    
C24   C26   A    
C21   H4    S    
C36   H16   S    
C24   H23   S    
C41   O4    S    
C20   C25   A    
C37   H18   S    
C39   H24   S    
C4    C13   A    
C8    O6    A    
Cu1   O6    S    
C4    O4    S    
C19   H2    S    
C12   C16   T    
C6    O2    S    
C22   C25   A    
C38   O3    S    
C39   H22   S    
Cu1   O10   S    
C35   H14   S    
C47   H38   S    
C23   C27   A    
C31   H6    S    
C5    C13   A    
C9    O11   A    
C5    O12   S    
C28   C34   A    
Cu2   O11   S    
C33   H9    S    
C1    C7    S    
C42   H31   S    
C32   H7    S    
C44   C46   A    
C45   C47   A    
C2    C45   A    
C7    O1    A    
C18   H40   S    
C23   C30   A    
C10   O10   A    
C4    C6    A    
C41   H28   S    
C36   H15   S    
C29   C34   A    
C40   H26   S    
C22   H34   S    
C8    O5    A    
C11   C16   S    
C47   C48   A    
C8    C12   S    
C48   H37   S    
C18   C29   A    
C14   N2    T    
C21   C28   A    
C9    O8    A    
C9    C34   S    
C42   C43   S    
C15   C45   S    
Cu1   N2    S    
C6    C11   A    
C14   C44   S    
C35   O2    S    
C38   H21   S    
Cu2   O5    S    
C18   C22   A    
C10   O9    A    
C20   H3    S    
C3    C5    A    
C41   H29   S    
C3    O3    S    
C20   C27   A    
C10   C23   S    
C33   H10   S    
C1    C17   T    
C40   H25   S    
C13   C17   S    
C31   H5    S    
C31   O12   S    
C28   C30   A    
C19   C24   A    
C26   H1    S    
C32   C33   S    
Cu1   O8    S    
C38   C39   S    
C37   H17   S    
C2    H36   S    
C25   H12   S    
C3    C11   A    
C15   N1    T    
C39   C40   S    
Cu2   N1    S    
Cu2   O9    S    
C33   H11   S    
Cu1   Cu2   S    
C43   H32   S    
C40   H27   S    
C35   H13   S    
Cu1   O1    S    
C19   C30   A    
C44   C48   A    
C43   H35   S    
