data_mof_unit_18292.cif
_audit_creation_date              2012-12-10T19:45:46-0500
_audit_creation_method            fapswitch 2.2
_symmetry_space_group_name_H-M    P1
_symmetry_Int_Tables_number       1
_space_group_crystal_system       triclinic
_cell_length_a                    10.910788
_cell_length_b                    14.695888
_cell_length_c                    14.832973
_cell_angle_alpha                 64.223471
_cell_angle_beta                  104.068425
_cell_angle_gamma                 101.100727
_cell_volume                      2067.19084331

loop_
_atom_site_label
_atom_site_type_symbol
_atom_type_description
_atom_site_fract_x
_atom_site_fract_y
_atom_site_fract_z
_atom_type_partial_charge
C1    C     C_R   0.482282 0.119801 0.311993 0.882344
C2    C     C_R   0.705796 0.781283 0.955448 0.405144
C3    C     C_R   0.377256 0.171848 0.126926 0.234388
C4    C     C_R   0.625742 0.847207 0.872510 0.249218
C5    C     C_R   0.543294 0.283877 0.176898 0.341441
C6    C     C_R   0.519495 0.703249 0.839448 0.349631
C7    C     C_R   0.482630 0.371030 0.103078 -0.106426
C8    C     C_R   0.545650 0.646131 0.945252 -0.118301
C9    C     C_R   0.356768 0.353873 0.051281 -0.187629
C10   C     C_R   0.655430 0.678089 0.002018 -0.154938
C11   C     C_R   0.538398 0.473955 0.076615 0.073499
C12   C     C_R   0.523658 0.879035 0.689295 0.851777
C13   C     C_R   0.479143 0.550492 0.989104 0.085255
C14   C     C_R   0.350293 0.533423 0.951377 -0.151901
C15   C     C_R   0.645667 0.505299 0.134715 -0.215912
C16   C     C_R   0.263142 0.002456 0.499553 0.764674
C17   C     C_R   0.736961 0.998199 0.500081 0.847710
C18   C     C_R   0.285597 0.438117 0.993184 0.446266
C19   C     C_R   0.704427 0.605610 0.100392 0.392387
C20   C     C_R   0.721712 0.282788 0.664002 -0.119366
C21   C     C_R   0.291511 0.730553 0.318588 -0.191659
C22   C     C_R   0.688697 0.203722 0.632273 0.098082
C23   C     C_R   0.870132 0.997278 0.498313 -0.055670
C24   C     C_R   0.318853 0.803228 0.359812 0.017161
C25   C     C_R   0.518982 0.287143 0.506486 0.042160
C26   C     C_R   0.481602 0.712980 0.486453 0.105106
C27   C     C_R   0.549771 0.372369 0.530539 -0.052577
C28   C     C_R   0.447641 0.629554 0.458655 -0.052731
C29   C     C_R   0.644793 0.364445 0.617660 0.103793
C30   C     C_R   0.356713 0.641702 0.368787 0.108148
C31   C     C_R   0.485653 0.462346 0.474844 0.060340
C32   C     C_R   0.506348 0.537259 0.514576 0.040505
C33   C     C_R   0.584350 0.517083 0.610217 -0.204046
C34   C     C_R   0.130324 0.005698 0.500267 -0.077537
C35   C     C_R   0.402164 0.480073 0.381293 -0.264502
C36   C     C_R   0.654626 0.434573 0.659472 -0.167786
C37   C     C_R   0.335159 0.565505 0.331901 -0.155330
C38   C     C_R   0.284133 0.247443 0.641309 -0.033401
C39   C     C_R   0.726082 0.738449 0.378125 -0.001863
C40   C     C_R   0.240661 0.162712 0.616985 -0.078050
C41   C     C_R   0.766834 0.828879 0.392195 -0.066970
C42   C     C_R   0.160494 0.173874 0.523665 0.059017
C43   C     C_R   0.842593 0.826127 0.484399 0.053968
C44   C     C_R   0.125720 0.270987 0.454539 -0.151917
C45   C     C_R   0.917102 0.919108 0.489526 0.016647
C46   C     C_R   0.876477 0.732610 0.562552 -0.126188
C47   C     C_R   0.163967 0.353901 0.480511 -0.100934
C48   C     C_R   0.841341 0.643862 0.546894 -0.109530
C49   C     C_R   0.242148 0.342210 0.573681 -0.177601
C50   C     C_R   0.767010 0.646723 0.455082 -0.167717
C51   C     C_R   0.954686 0.078377 0.508251 -0.163482
C52   C     C_R   0.045401 0.925523 0.489198 -0.196214
C53   C     C_2   0.837511 0.276852 0.742711 0.440412
C54   C     C_2   0.198880 0.754498 0.221932 0.526103
C55   C     C_2   0.371203 0.238555 0.737390 0.463972
C56   C     C_R   0.083976 0.084175 0.510045 0.008597
C57   C     C_2   0.642119 0.738274 0.283789 0.469369
C58   C     C_R   0.471632 0.189336 0.202793 -0.267170
C59   C     C_R   0.549952 0.809989 0.801282 -0.326540
C60   C     C_R   0.312747 0.255720 0.051063 0.327961
Cu1   Cu    Cu3+1 0.466270 0.918260 0.475690 1.037204
Cu2   Cu    Cu3+1 0.533730 0.081740 0.524310 1.007431
H1    H     H_    0.271390 0.407637 0.592362 0.171671
H2    H     H_    0.744809 0.139777 0.665778 0.147813
H3    H     H_    0.596318 0.566132 0.647460 0.246831
H4    H     H_    0.384921 0.427909 0.345142 0.157028
H5    H     H_    0.263979 0.087716 0.672057 0.161984
H6    H     H_    0.743556 0.901338 0.330919 0.211635
H7    H     H_    0.061046 0.280910 0.383478 0.191729
H8    H     H_    0.938226 0.729688 0.632875 0.169344
H9    H     H_    0.131721 0.427276 0.428667 0.190316
H10   H     H_    0.872694 0.572766 0.605810 0.200887
H11   H     H_    0.920432 0.138590 0.516226 0.183773
H12   H     H_    0.738899 0.576393 0.445722 0.155532
H13   H     H_    0.078933 0.864816 0.481490 0.181698
H14   H     H_    0.122203 0.156632 0.859518 0.358824
H15   H     H_    0.971817 0.917146 0.825441 0.377075
H16   H     H_    0.870481 0.203362 0.794416 0.122942
H17   H     H_    0.118560 0.794867 0.209217 0.151921
H18   H     H_    0.397992 0.303896 0.756656 0.113145
H19   H     H_    0.599705 0.667012 0.279117 0.046382
H20   H     H_    0.098355 0.591729 0.957996 0.371713
H21   H     H_    0.736114 0.540178 0.312727 0.302251
H22   H     H_    0.631413 0.510264 0.867310 0.381076
H23   H     H_    0.297546 0.596928 0.897525 0.148061
H24   H     H_    0.879224 0.371990 0.164181 0.410266
H25   H     H_    0.394755 0.955513 0.791683 0.326500
H26   H     H_    0.445607 0.912594 0.193592 0.389792
H27   H     H_    0.679951 0.453381 0.210355 0.219461
H28   H     H_    0.714349 0.425597 0.732008 0.224219
H29   H     H_    0.266559 0.570264 0.264341 0.227147
H30   H     H_    0.564393 0.716236 0.541517 0.178372
H31   H     H_    0.440217 0.282637 0.448017 0.131892
H32   H     H_    0.269647 0.871130 0.323099 0.162191
N1    N     N_R   0.584450 0.204570 0.560790 -0.185137
N2    N     N_R   0.415550 0.795430 0.439210 -0.184092
O1    O     O_R   0.455540 0.022090 0.338120 -0.529556
O2    O     O_2   0.183573 0.341045 0.858438 -0.260434
O3    O     O_3   0.196098 0.151889 0.915026 -0.431146
O4    O     O_2   0.939237 0.857338 0.020094 -0.171922
O5    O     O_2   0.927460 0.722742 0.960794 -0.226935
O6    O     O_3   0.879676 0.903156 0.827044 -0.561301
O7    O     O_2   0.901316 0.353216 0.747113 -0.477159
O8    O     O_2   0.215681 0.736735 0.152984 -0.453440
O9    O     O_2   0.415434 0.158848 0.795602 -0.414907
O10   O     O_2   0.620772 0.817401 0.209505 -0.461672
O11   O     O_2   0.037214 0.440257 0.906422 -0.188647
O12   O     O_R   0.544460 0.977910 0.661880 -0.564185
O13   O     O_2   0.089281 0.339059 0.090527 -0.229372
O14   O     O_3   0.111398 0.534425 0.025811 -0.482851
O15   O     O_2   0.955775 0.622693 0.163239 -0.174581
O16   O     O_2   0.835942 0.737638 0.180280 -0.253072
O17   O     O_3   0.826482 0.548618 0.307140 -0.532962
O18   O     O_2   0.402570 0.646264 0.687958 -0.269955
O19   O     O_2   0.636109 0.686088 0.714991 -0.359812
O20   O     O_3   0.540309 0.512892 0.835737 -0.514826
O21   O     O_2   0.752639 0.289725 0.316225 -0.334032
O22   O     O_2   0.742512 0.175970 0.233811 -0.241352
O23   O     O_R   0.512510 0.160150 0.379180 -0.578362
O24   O     O_3   0.790285 0.368013 0.128432 -0.463390
O25   O     O_2   0.627049 0.935752 0.996692 -0.131410
O26   O     O_2   0.634650 0.047295 0.819486 -0.271649
O27   O     O_3   0.420240 0.942361 0.864654 -0.442538
O28   O     O_2   0.240022 0.004431 0.112941 -0.264715
O29   O     O_2   0.408118 0.084574 0.010035 -0.105647
O30   O     O_3   0.476097 0.978486 0.198381 -0.479747
O31   O     O_R   0.487490 0.839850 0.620820 -0.495944
O32   O     O_R   0.291160 0.930970 0.479480 -0.590714
O33   O     O_R   0.708840 0.069030 0.520520 -0.578972
O34   O     O_R   0.348130 0.069020 0.520540 -0.600287
O35   O     O_R   0.651870 0.930980 0.479460 -0.587634
O36   O     O_2   0.062216 0.218928 0.988461 -0.173393
S1    S     S_3+6 0.186173 0.242864 0.951822 0.113365
S2    S     S_3+6 0.868391 0.814108 0.944856 0.103421
S3    S     S_3+6 0.125903 0.434515 0.003311 0.074944
S4    S     S_3+6 0.834148 0.632608 0.186926 0.038075
S5    S     S_3+6 0.522451 0.637076 0.765684 -0.015958
S6    S     S_3+6 0.710859 0.277947 0.217151 0.028901
S7    S     S_3+6 0.579591 0.946771 0.888869 0.122368
S8    S     S_3+6 0.372113 0.057892 0.110701 0.123339

loop_
_geom_bond_atom_site_label_1
_geom_bond_atom_site_label_2
_ccdc_geom_bond_type
H25   O27   S    
C34   C56   A    
C8    C13   A    
C23   C45   A    
C17   O35   A    
C22   N1    A    
H21   O17   S    
C2    C4    A    
O21   S6    D    
C52   H13   S    
O14   S3    S    
Cu1   N2    S    
C33   H3    S    
C5    S6    S    
C39   C41   A    
C38   C49   A    
O5    S2    D    
H14   O3    S    
C7    C11   A    
C29   C36   A    
O30   S8    S    
C2    S2    S    
C5    C58   A    
C55   O9    D    
C49   H1    S    
H20   O14   S    
C54   O8    D    
C35   C37   A    
C48   H10   S    
O26   S7    D    
O20   S5    S    
C24   N2    A    
C21   C54   S    
O15   S4    D    
Cu2   O12   S    
C26   H30   S    
C39   C57   S    
O27   S7    S    
C33   C36   A    
C27   C29   A    
O3    S1    S    
C51   C56   A    
C1    O23   A    
O18   S5    D    
C14   C18   A    
H26   O30   S    
C16   C34   S    
C12   C59   S    
C11   C15   A    
C38   C55   S    
O19   S5    D    
Cu2   N1    S    
O36   S1    D    
C40   H5    S    
O11   S3    D    
C16   O34   A    
C44   C47   A    
C42   C56   S    
C3    C60   A    
C40   C42   A    
C57   O10   D    
H22   O20   S    
C13   C14   A    
C12   O31   A    
C41   C43   A    
Cu2   O33   S    
H15   O6    S    
C42   C44   A    
O16   S4    D    
O4    S2    D    
C41   H6    S    
C20   C29   A    
O29   S8    D    
C26   N2    A    
C46   C48   A    
C37   H29   S    
C17   O33   A    
C28   C32   A    
O13   S3    D    
C47   C49   A    
C1    O1    A    
C5    C7    A    
C6    C8    A    
C45   C52   A    
C19   S4    S    
C27   C31   A    
O17   S4    S    
C30   C37   A    
C15   C19   A    
O6    S2    S    
C24   H32   S    
C15   H27   S    
C16   O32   A    
C23   C51   A    
C31   C32   A    
O2    S1    D    
C10   C19   A    
C18   S3    S    
Cu1   O31   S    
C17   C23   S    
C48   C50   A    
C43   C45   S    
C47   H9    S    
Cu2   O23   S    
C20   C22   A    
C25   N1    A    
C31   C35   A    
O24   S6    S    
C2    C10   A    
C12   O12   A    
C54   H17   S    
C36   H28   S    
C7    C9    A    
C26   C28   A    
C6    C59   A    
O28   S8    D    
Cu1   O1    S    
C51   H11   S    
C14   H23   S    
C20   C53   S    
C25   C27   A    
C21   C30   A    
C34   C52   A    
Cu2   O34   S    
C35   H4    S    
C9    C60   A    
C25   H31   S    
C32   C33   A    
O25   S7    D    
C6    S5    S    
C50   H12   S    
C53   H16   S    
C1    C58   S    
C4    S7    S    
C38   C40   A    
C55   H18   S    
C11   C13   A    
C53   O7    D    
C4    C59   A    
C28   C30   A    
Cu1   O32   S    
C57   H19   S    
Cu1   Cu2   S    
C43   C46   A    
C46   H8    S    
Cu1   O35   S    
C22   H2    S    
C3    C58   A    
C9    C18   A    
C39   C50   A    
C8    C10   A    
C21   C24   A    
C44   H7    S    
H24   O24   S    
C3    S8    S    
O22   S6    D    
C60   S1    S    
