data_mof_unit_39297.cif
_audit_creation_date              2012-12-10T19:08:05-0500
_audit_creation_method            fapswitch 2.2
_symmetry_space_group_name_H-M    P1
_symmetry_Int_Tables_number       1
_space_group_crystal_system       triclinic
_cell_length_a                    9.153507
_cell_length_b                    10.881051
_cell_length_c                    9.665143
_cell_angle_alpha                 92.259448
_cell_angle_beta                  90.072771
_cell_angle_gamma                 91.417479
_cell_volume                      961.600892485

loop_
_atom_site_label
_atom_site_type_symbol
_atom_type_description
_atom_site_fract_x
_atom_site_fract_y
_atom_site_fract_z
_atom_type_partial_charge
C1    C     C_R   0.498377 0.263065 0.497441 0.775201
C2    C     C_R   0.409645 0.931420 0.405464 -0.246009
C3    C     C_R   0.486204 0.872218 0.508995 -0.072594
C4    C     C_R   0.568957 0.945204 0.604667 0.052730
C5    C     C_3   0.556736 0.966317 0.760466 -0.116334
C6    C     C_3   0.584408 0.102561 0.743561 -0.185865
C7    C     C_R   0.609349 0.557733 0.074461 0.192187
C8    C     C_R   0.402514 0.427360 0.068211 0.215957
C9    C     C_R   0.400271 0.433199 0.920483 -0.107679
C10   C     C_R   0.615079 0.549576 0.928384 0.199962
C11   C     C_3   0.676270 0.675787 0.918220 -0.279113
C12   C     C_R   0.220897 0.498466 0.499772 0.811345
C13   C     C_3   0.661161 0.690910 0.075894 -0.131096
C14   C     C_R   0.494844 0.737725 0.502964 0.757676
C15   C     C_R   0.779031 0.499014 0.499990 0.846855
C16   C     C_1   0.065390 0.497156 0.499384 -0.186525
C17   C     C_1   0.934430 0.497406 0.499671 -0.172548
C18   C     C_R   0.579999 0.071671 0.592411 0.044165
C19   C     C_R   0.502502 0.130315 0.492021 -0.071721
C20   C     C_R   0.419232 0.059253 0.395667 -0.221512
Cu1   Cu    Cu3+1 0.499990 0.499980 0.640670 0.925898
Cu2   Cu    Cu3+1 0.500010 0.500020 0.359330 0.918576
H1    H     H_    0.354456 0.102743 0.319147 0.158165
H2    H     H_    0.600849 0.730822 0.858464 0.176223
H3    H     H_    0.766747 0.705759 0.131766 0.132211
H4    H     H_    0.338718 0.878905 0.335007 0.162973
H5    H     H_    0.646971 0.926012 0.818490 0.123310
H6    H     H_    0.493717 0.160613 0.781178 0.184287
H7    H     H_    0.317857 0.383470 0.859525 0.148630
N1    N     N_R   0.500920 0.500930 0.147930 -0.205231
N2    N     N_R   0.500930 0.500890 0.852020 -0.214981
O1    O     O_R   0.500000 0.319640 0.618810 -0.586632
O2    O     O_R   0.500020 0.319680 0.381230 -0.594947
O3    O     O_R   0.288380 0.499980 0.618770 -0.588171
O4    O     O_R   0.288400 0.500020 0.381190 -0.610438
O5    O     O_R   0.499980 0.680320 0.618770 -0.603193
O6    O     O_R   0.500000 0.680360 0.381190 -0.574883
O7    O     O_R   0.711600 0.499980 0.618810 -0.550454
O8    O     O_R   0.711620 0.500020 0.381230 -0.587056
C21   C     C_3   0.552209 0.792623 0.114641 -0.317473
C22   C     C_3   0.390009 0.756740 0.093286 -0.813281
H8    H     H_    0.373097 0.706792 0.992755 0.231625
H9    H     H_    0.348462 0.697043 0.175188 0.280464
H10   H     H_    0.322905 0.840241 0.095456 0.215532
H11   H     H_    0.574111 0.826127 0.221607 0.226455
H12   H     H_    0.578990 0.873884 0.052976 0.174207
C23   C     C_3   0.404121 0.937969 0.822416 -0.370278
C24   C     C_3   0.270024 0.986123 0.747418 -0.802973
H13   H     H_    0.279691 0.085190 0.726774 0.235258
H14   H     H_    0.249744 0.934083 0.648491 0.250105
H15   H     H_    0.172136 0.973006 0.813449 0.244342
H16   H     H_    0.390917 0.837521 0.825574 0.213293
H17   H     H_    0.403109 0.977246 0.929927 0.207824
C25   C     C_R   0.730879 0.155152 0.793928 0.129110
C26   C     C_R   0.856917 0.155008 0.709708 -0.133183
C27   C     C_R   0.980474 0.225535 0.749397 -0.139478
C28   C     C_R   0.980610 0.294981 0.873682 -0.086661
C29   C     C_R   0.859884 0.290706 0.961426 -0.134193
C30   C     C_R   0.735431 0.221441 0.921654 -0.136676
H18   H     H_    0.858736 0.104619 0.610992 0.113771
H19   H     H_    0.074782 0.228884 0.682075 0.120404
H20   H     H_    0.073520 0.353384 0.900932 0.119490
H21   H     H_    0.861019 0.343861 0.058476 0.120829
H22   H     H_    0.640385 0.223730 0.987998 0.123208
C31   C     C_3   0.289745 0.340809 0.129590 -0.361026
C32   C     C_3   0.296816 0.209224 0.067723 -0.945531
H23   H     H_    0.271997 0.204334 0.955543 0.254926
H24   H     H_    0.406748 0.171749 0.084783 0.255135
H25   H     H_    0.214217 0.149872 0.118660 0.249274
H26   H     H_    0.301990 0.331865 0.240483 0.266812
H27   H     H_    0.179221 0.377181 0.113252 0.170883
C33   C     C_R   0.831121 0.679555 0.864402 0.163823
C34   C     C_R   0.863306 0.745016 0.745309 -0.116918
C35   C     C_R   0.006172 0.754396 0.696756 -0.181071
C36   C     C_R   0.118101 0.697498 0.765855 -0.082563
C37   C     C_R   0.087015 0.628939 0.881583 -0.133648
C38   C     C_R   0.944461 0.619403 0.930662 -0.148750
H28   H     H_    0.778042 0.787168 0.688123 0.111223
H29   H     H_    0.029660 0.804489 0.604522 0.121097
H30   H     H_    0.228261 0.704369 0.727447 0.160608
H31   H     H_    0.172679 0.582720 0.933633 0.121644
H32   H     H_    0.923309 0.565774 0.020679 0.102989

loop_
_geom_bond_atom_site_label_1
_geom_bond_atom_site_label_2
_ccdc_geom_bond_type
C7    C10   A    
C32   H24   S    
C26   C27   A    
C22   H8    S    
C19   C20   A    
C1    O2    A    
C28   H20   S    
Cu1   O5    S    
C21   H12   S    
Cu2   O4    S    
Cu1   N2    S    
C30   H22   S    
C14   O5    A    
C5    C6    S    
C32   H25   S    
C31   H26   S    
C11   H2    S    
C27   C28   A    
C18   C19   A    
C34   C35   A    
C13   C21   S    
C5    H5    S    
C10   N2    A    
C24   H15   S    
C6    H6    S    
Cu1   O7    S    
C12   C16   S    
C8    C9    A    
C34   H28   S    
C36   H30   S    
C9    H7    S    
C23   H17   S    
C4    C18   A    
C24   H14   S    
C32   H23   S    
C8    C31   S    
C7    N1    A    
Cu1   Cu2   S    
C22   H9    S    
C13   H3    S    
C6    C25   S    
C25   C30   A    
C21   H11   S    
C6    C18   S    
Cu1   O1    S    
C1    C19   S    
C35   C36   A    
C2    C20   A    
C37   C38   A    
C11   C33   S    
C4    C5    S    
Cu1   O3    S    
C29   C30   A    
C31   H27   S    
Cu2   O6    S    
C1    O1    A    
C36   C37   A    
C15   O7    A    
C33   C38   A    
C5    C23   S    
C23   C24   S    
C20   H1    S    
C2    H4    S    
C12   O4    A    
C15   O8    A    
C3    C14   S    
C24   H13   S    
C35   H29   S    
C22   H10   S    
C12   O3    A    
C3    C4    A    
C29   H21   S    
C15   C17   S    
Cu2   O2    S    
C25   C26   A    
C21   C22   S    
Cu2   N1    S    
C33   C34   A    
C37   H31   S    
C23   H16   S    
C8    N1    A    
C2    C3    A    
C14   O6    A    
C11   C13   S    
C28   C29   A    
C16   C17   T    
C38   H32   S    
Cu2   O8    S    
C10   C11   S    
C9    N2    A    
C7    C13   S    
C31   C32   S    
C27   H19   S    
C26   H18   S    
