data_mof_unit_56756.cif
_audit_creation_date              2013-03-05T16:08:48-0500
_audit_creation_method            fapswitch 2.2
_symmetry_space_group_name_H-M    P1
_symmetry_Int_Tables_number       1
_space_group_crystal_system       triclinic
_cell_length_a                    15.038509
_cell_length_b                    6.972163
_cell_length_c                    13.633371
_cell_angle_alpha                 89.935147
_cell_angle_beta                  101.045219
_cell_angle_gamma                 90.08221
_cell_volume                      1402.99060832

loop_
_atom_site_label
_atom_site_type_symbol
_atom_site_description
_atom_site_fract_x
_atom_site_fract_y
_atom_site_fract_z
_atom_type_partial_charge
O1    O     O_R   0.398250 0.605080 0.401520 -0.596439
O2    O     O_R   0.898250 0.394920 0.901520 -0.592977
O3    O     O_R   0.584130 0.932110 0.405450 -0.605221
O4    O     O_R   0.084130 0.067890 0.905450 -0.603868
O5    O     O_R   0.601750 0.105090 0.598480 -0.595220
O6    O     O_R   0.101750 0.894910 0.098480 -0.594434
C1    C     C_R   0.611327 0.764222 0.383644 0.990407
C2    C     C_R   0.113013 0.235773 0.885690 0.980506
O7    O     O_R   0.397870 0.934620 0.389680 -0.593592
O8    O     O_R   0.897870 0.065380 0.889680 -0.592621
O9    O     O_R   0.414160 0.107620 0.582600 -0.566479
O10   O     O_R   0.914160 0.892380 0.082600 -0.554016
C3    C     C_R   0.364025 0.765761 0.362800 1.017410
C4    C     C_R   0.864068 0.234204 0.862747 1.027357
O11   O     O_R   0.585840 0.602550 0.417400 -0.595122
O12   O     O_R   0.085840 0.397450 0.917400 -0.590928
O13   O     O_3   0.505560 0.772440 0.563310 -0.242873
O14   O     O_3   0.005560 0.227560 0.063310 -0.239495
V1    V     V_3+5 0.498970 0.046250 0.488250 1.236405
V2    V     V_3+5 0.998970 0.953750 0.988250 1.249113
O15   O     O_R   0.415870 0.437500 0.594550 -0.531945
O16   O     O_R   0.915870 0.562500 0.094550 -0.539283
C5    C     C_R   0.385618 0.269590 0.613822 0.933226
C6    C     C_R   0.887773 0.730634 0.116419 0.926978
O17   O     O_R   0.602130 0.434980 0.610320 -0.591998
O18   O     O_R   0.102130 0.565020 0.110320 -0.597170
C7    C     C_R   0.635867 0.265980 0.637284 0.987316
C8    C     C_R   0.135846 0.734069 0.137315 0.981845
V3    V     V_3+5 0.501030 0.546580 0.511750 1.267308
V4    V     V_3+5 0.001030 0.453420 0.011750 1.274084
O19   O     O_3   0.494440 0.270520 0.436690 -0.290757
O20   O     O_3   0.994440 0.729480 0.936690 -0.286580
C9    C     C_1   0.716280 0.255278 0.716927 -0.208461
C10   C     C_1   0.216235 0.744786 0.216984 -0.204574
C11   C     C_1   0.783632 0.244903 0.783143 -0.215202
C12   C     C_1   0.283581 0.755057 0.283212 -0.211792
C13   C     C_2   0.256136 0.125982 0.683331 0.249787
C14   C     C_2   0.786844 0.892421 0.218738 0.246421
C15   C     C_2   0.315440 0.272947 0.678131 -0.098172
C16   C     C_2   0.824973 0.731016 0.189162 -0.065692
C17   C     C_2   0.183436 0.133782 0.745204 -0.087057
C18   C     C_2   0.727683 0.894810 0.295568 -0.127522
C19   C     C_2   0.186030 0.241133 0.828105 -0.381676
C20   C     C_2   0.668330 0.755358 0.307673 -0.385837
H1    H     H_    0.125618 0.039207 0.722676 0.170858
H2    H     H_    0.731395 0.022300 0.341966 0.173275
H3    H     H_    0.243654 0.329814 0.858651 0.188021
H4    H     H_    0.656641 0.633474 0.258736 0.208248
N1    N     N_R   0.255469 0.960286 0.620818 0.238481
O21   O     O_R   0.181380 0.912355 0.559631 -0.369920
O22   O     O_R   0.321771 0.838113 0.639022 -0.301289
N2    N     N_R   0.807634 0.073338 0.180054 0.262293
O23   O     O_R   0.880575 0.162785 0.223465 -0.318524
O24   O     O_R   0.770162 0.118095 0.088731 -0.361211
N3    N     N_R   0.303078 0.454477 0.723372 0.256269
O25   O     O_R   0.371138 0.537527 0.781159 -0.358841
O26   O     O_R   0.226002 0.544128 0.700014 -0.327755
N4    N     N_R   0.806159 0.549397 0.228880 0.260561
O27   O     O_R   0.744798 0.440912 0.176138 -0.350170
O28   O     O_R   0.838319 0.507347 0.321927 -0.351459

loop_
_geom_bond_atom_site_label_1
_geom_bond_atom_site_label_2
_geom_bond_distance
_ccdc_geom_bond_type
O15   V3    2.010478 S    
O1    C3    1.301863 A    
V4    O20   2.172289 S    
N3    O25   1.301501 A    
O11   V3    2.014847 S    
O5    V1    1.981244 S    
O8    V2    1.985298 S    
O6    C8    1.302724 A    
O17   C7    1.307748 A    
O13   V3    1.721160 S    
O10   C6    1.307453 A    
O18   C8    1.307473 A    
C2    C19   1.467528 S    
O2    V4    1.980756 S    
O4    C2    1.293830 A    
V1    O19   1.709743 S    
O3    V1    2.026481 S    
O10   V2    2.022416 S    
C2    O12   1.301789 A    
C1    O11   1.301716 A    
C8    C10   1.464107 S    
C13   C15   1.368131 D    
V2    O20   1.711019 S    
C1    C20   1.466950 S    
C7    C9    1.464196 S    
C14   C16   1.359871 D    
C17   C19   1.350577 D    
O9    V1    2.023805 S    
C18   C20   1.350133 D    
O6    V2    1.981459 S    
C3    C12   1.464026 S    
C13   C17   1.504478 S    
C5    C15   1.495904 S    
O1    V3    1.980968 S    
C9    C11   1.223032 T    
N2    O24   1.302259 A    
C14   C18   1.498705 S    
O3    C1    1.294057 A    
C10   C12   1.222974 T    
N3    O26   1.302239 A    
O15   C5    1.300043 A    
O17   V3    1.985216 S    
O14   V4    1.719882 S    
O2    C4    1.301863 A    
O16   C6    1.300807 A    
C16   N4    1.425772 S    
C14   N2    1.423913 S    
O12   V4    2.016121 S    
O4    V2    2.024033 S    
C13   N1    1.435278 S    
N2    O23   1.300978 A    
O14   V2    2.160206 S    
V3    O19   2.174089 S    
N1    O21   1.300925 A    
C18   H2    1.086719 S    
O9    C5    1.308882 A    
C4    C11   1.464121 S    
C17   H1    1.087028 S    
O13   V1    2.158410 S    
O7    C3    1.306601 A    
O16   V4    2.012832 S    
C6    C16   1.494790 S    
N4    O27   1.298321 A    
O5    C7    1.302739 A    
N4    O28   1.301363 A    
O7    V1    1.984780 S    
C15   N3    1.436406 S    
C20   H4    1.074282 S    
O8    C4    1.306881 A    
C19   H3    1.080477 S    
N1    O22   1.299418 A    
O18   V4    1.984700 S    
