data_mof_unit_15556.cif
_audit_creation_date              2013-03-05T16:15:21-0500
_audit_creation_method            fapswitch 2.2
_symmetry_space_group_name_H-M    P1
_symmetry_Int_Tables_number       1
_space_group_crystal_system       triclinic
_cell_length_a                    27.812432
_cell_length_b                    10.609989
_cell_length_c                    9.409155
_cell_angle_alpha                 89.559395
_cell_angle_beta                  90.084841
_cell_angle_gamma                 90.018405
_cell_volume                      2776.45848864

loop_
_atom_site_label
_atom_site_type_symbol
_atom_site_description
_atom_site_fract_x
_atom_site_fract_y
_atom_site_fract_z
_atom_type_partial_charge
O1    O     O_R   0.500020 0.316850 0.620870 -0.587863
O2    O     O_R   0.499980 0.683150 0.379130 -0.587874
O3    O     O_R   0.500000 0.316860 0.379090 -0.581244
O4    O     O_R   0.500000 0.683140 0.620910 -0.581225
C1    C     C_R   0.500012 0.259388 0.500513 0.787887
C2    C     C_R   0.499990 0.740612 0.499487 0.787935
O5    O     O_R   0.430270 0.500020 0.620880 -0.584803
O6    O     O_R   0.569730 0.499980 0.379120 -0.584756
O7    O     O_R   0.430250 0.500030 0.379090 -0.585480
O8    O     O_R   0.569750 0.499970 0.620910 -0.585203
C3    C     C_R   0.407504 0.500073 0.499906 0.794149
C4    C     C_R   0.592492 0.499947 0.500089 0.793850
Cu1   Cu    Cu3+1 0.500010 0.499990 0.643150 0.933485
Cu2   Cu    Cu3+1 0.499990 0.500010 0.356850 0.933374
C5    C     C_R   0.177761 0.400573 0.448042 0.524996
C6    C     C_R   0.821946 0.608076 0.527840 0.527985
O9    O     O_2   0.202424 0.300161 0.399561 -0.556350
O10   O     O_2   0.797116 0.714834 0.553312 -0.540582
N1    N     N_R   0.202009 0.502651 0.499183 -0.471334
N2    N     N_R   0.797864 0.498705 0.500626 -0.474825
C7    C     C_R   0.178201 0.605717 0.549965 0.557739
C8    C     C_R   0.821739 0.388893 0.473285 0.557130
C9    C     C_R   0.278858 0.504048 0.370677 -0.104570
C10   C     C_R   0.721084 0.489172 0.372242 -0.114394
C11   C     C_R   0.328987 0.503303 0.370690 -0.223661
C12   C     C_R   0.670953 0.489679 0.371910 -0.220271
C13   C     C_R   0.329004 0.498066 0.628563 -0.224082
C14   C     C_R   0.671025 0.509622 0.628701 -0.222090
C15   C     C_R   0.278874 0.498614 0.628220 -0.107493
C16   C     C_R   0.721159 0.509544 0.628632 -0.101928
C17   C     C_R   0.253617 0.501711 0.499359 0.351461
C18   C     C_R   0.746314 0.499189 0.500504 0.358122
C19   C     C_R   0.101828 0.503839 0.498904 -0.107236
C20   C     C_R   0.897993 0.498555 0.499820 -0.109458
C21   C     C_R   0.127385 0.399089 0.447088 0.012173
C22   C     C_R   0.872319 0.610041 0.528601 0.003161
C23   C     C_R   0.102267 0.295212 0.394750 -0.174983
C24   C     C_R   0.897304 0.721463 0.556292 -0.161875
C25   C     C_R   0.127424 0.609047 0.550868 -0.120125
C26   C     C_R   0.872510 0.386048 0.471796 -0.119659
C27   C     C_R   0.354543 0.500408 0.499717 -0.038967
C28   C     C_R   0.645445 0.499781 0.500242 -0.037474
H1    H     H_    0.347690 0.495713 0.729617 0.153619
H2    H     H_    0.652369 0.517656 0.729171 0.149663
H3    H     H_    0.259582 0.496403 0.728092 0.142490
H4    H     H_    0.740527 0.517104 0.728126 0.135807
H5    H     H_    0.121073 0.215175 0.350583 0.175832
H6    H     H_    0.878356 0.808789 0.576041 0.194586
C29   C     C_R   0.974727 0.389170 0.464766 -0.021171
C30   C     C_R   0.025137 0.610414 0.544718 -0.022967
C31   C     C_R   0.974139 0.612055 0.535461 0.086337
C32   C     C_R   0.025637 0.393307 0.454363 0.091199
C33   C     C_R   0.949096 0.499939 0.499681 0.068298
C34   C     C_R   0.050721 0.502722 0.499029 0.068524
C35   C     C_R   0.948609 0.276783 0.443953 -0.314786
C36   C     C_R   0.051428 0.712384 0.600889 -0.309498
C37   C     C_R   0.898361 0.274556 0.444067 0.470766
C38   C     C_R   0.101666 0.713762 0.602155 0.469835
O11   O     O_2   0.796198 0.283264 0.448079 -0.492966
O12   O     O_2   0.203804 0.704812 0.597666 -0.499889
C39   C     C_R   0.052425 0.291998 0.398520 -0.213842
C40   C     C_R   0.947183 0.722776 0.559386 -0.211492
H7    H     H_    0.652240 0.481793 0.271342 0.151503
H8    H     H_    0.347657 0.505280 0.269771 0.151744
H9    H     H_    0.740397 0.481307 0.272856 0.132661
H10   H     H_    0.259557 0.506850 0.270666 0.141805
H11   H     H_    0.966333 0.187112 0.432512 0.147747
H12   H     H_    0.033929 0.791343 0.650259 0.154436
H13   H     H_    0.035781 0.209927 0.352829 0.133487
H14   H     H_    0.963665 0.813262 0.577189 0.140902
C41   C     C_3   0.500067 0.039297 0.635467 -0.139611
C42   C     C_3   0.499936 0.960703 0.364533 -0.139648
C43   C     C_3   0.539535 0.957289 0.566944 -0.162584
C44   C     C_3   0.460468 0.042710 0.433055 -0.163744
H15   H     H_    0.571863 0.919040 0.621534 0.134748
H16   H     H_    0.428140 0.080957 0.378465 0.134312
H17   H     H_    0.500125 0.074061 0.746455 0.129007
H18   H     H_    0.499878 0.925939 0.253545 0.128983
C45   C     C_3   0.499994 0.877547 0.498520 0.018127
C46   C     C_3   0.500009 0.122453 0.501480 0.018220
C47   C     C_3   0.460526 0.957252 0.566924 -0.165128
C48   C     C_3   0.539477 0.042748 0.433076 -0.164031
H19   H     H_    0.428245 0.918973 0.621500 0.133773
H20   H     H_    0.571758 0.081029 0.378500 0.133753
C49   C     C_3   0.503913 0.613434 0.049425 -0.036362
C50   C     C_3   0.496086 0.386565 0.950576 -0.036275
C51   C     C_3   0.464506 0.565578 0.948572 -0.037303
C52   C     C_3   0.535494 0.434422 0.051429 -0.035835
H21   H     H_    0.434686 0.620820 0.900282 0.113017
H22   H     H_    0.565313 0.379175 0.099720 0.111199
H23   H     H_    0.507270 0.709125 0.095238 0.112242
H24   H     H_    0.492728 0.290875 0.904763 0.112161
N3    N     N_3   0.500040 0.499970 0.858290 -0.153624
N4    N     N_3   0.499960 0.500030 0.141710 -0.153584
C53   C     C_3   0.539449 0.547812 0.949297 -0.037512
C54   C     C_3   0.460550 0.452190 0.050704 -0.039194
H25   H     H_    0.572611 0.588330 0.901875 0.111178
H26   H     H_    0.427383 0.411700 0.098133 0.112794
O13   O     O_3   0.874850 0.160289 0.429498 -0.535301
C55   C     C_3   0.877663 0.121511 0.286421 0.080712
H27   H     H_    0.915286 0.096720 0.257482 0.120557
H28   H     H_    0.864176 0.196573 0.212784 0.145465
C56   C     C_3   0.846580 0.004865 0.266860 -0.689949
H29   H     H_    0.808529 0.026825 0.292838 0.273013
H30   H     H_    0.848629 0.973088 0.154823 0.187452
H31   H     H_    0.859396 0.927520 0.337659 0.244177
O14   O     O_3   0.125194 0.813261 0.666353 -0.535872
C57   C     C_3   0.124198 0.919022 0.574287 0.083350
H32   H     H_    0.086846 0.954814 0.560263 0.117120
H33   H     H_    0.139598 0.895629 0.468341 0.152962
C58   C     C_3   0.154397 0.023642 0.638775 -0.689122
H34   H     H_    0.192014 0.990953 0.653894 0.271671
H35   H     H_    0.154486 0.107131 0.567162 0.210474
H36   H     H_    0.139290 0.051309 0.743213 0.235937

loop_
_geom_bond_atom_site_label_1
_geom_bond_atom_site_label_2
_geom_bond_distance
_ccdc_geom_bond_type
C13   C15   1.394272 A    
C58   H34   1.110924 S    
C12   H7    1.083062 S    
N1    C17   1.435375 S    
C49   H23   1.109892 S    
O5    C3    1.301697 A    
C30   C34   1.416211 A    
C44   H16   1.110222 S    
O1    C1    1.290267 A    
C9    H10   1.082877 S    
N1    C7    1.368213 A    
C10   C12   1.394279 A    
C42   C45   1.533195 S    
C32   C39   1.413129 A    
C50   C52   1.537384 S    
C37   O13   1.384928 S    
C57   H32   1.113490 S    
C40   H14   1.077891 S    
C38   O14   1.384110 S    
C14   C28   1.406179 A    
O4    Cu1   1.952854 S    
C4    C28   1.472752 S    
C56   H30   1.110790 S    
C57   H33   1.115319 S    
C54   H26   1.110258 S    
C42   H18   1.110201 S    
O14   C57   1.412557 S    
C23   H5    1.083407 S    
C24   H6    1.083493 S    
C6    N2    1.365403 A    
C52   C53   1.537975 S    
N3    C53   1.481819 S    
C44   C46   1.531482 S    
Cu1   Cu2   2.693838 S    
C43   H15   1.110225 S    
C58   H36   1.110893 S    
O2    C2    1.290268 A    
C31   C40   1.413462 A    
O8    C4    1.301751 A    
C5    C21   1.401179 A    
C41   C46   1.533195 S    
C47   H19   1.110230 S    
C32   C34   1.420255 A    
C49   C51   1.537372 S    
C52   N4    1.481512 S    
C7    O12   1.348996 S    
C42   C44   1.545652 S    
C11   C27   1.406019 A    
C8    O11   1.349050 S    
C45   C47   1.531475 S    
C29   C35   1.410848 A    
C25   C38   1.410771 A    
C14   H2    1.082995 S    
C55   C56   1.521589 S    
C30   C36   1.411253 A    
C15   H3    1.082881 S    
C31   C33   1.420709 A    
C11   H8    1.082997 S    
C9    C17   1.400541 A    
C5    N1    1.365984 A    
O7    Cu2   1.951203 S    
C10   C18   1.399836 A    
C50   N3    1.482552 S    
C49   N4    1.482546 S    
C13   C27   1.406043 A    
C35   H11   1.077862 S    
O13   C55   1.413009 S    
C7    C25   1.412711 A    
O6    C4    1.301606 A    
C29   C32   1.420091 A    
C8    C26   1.412507 A    
C51   C54   1.537971 S    
C55   H28   1.116226 S    
C30   C31   1.421045 A    
C43   C45   1.531483 S    
C58   H35   1.108845 S    
C19   C25   1.413763 A    
C1    C46   1.452835 S    
N4    C54   1.481825 S    
O7    C3    1.301777 A    
O3    Cu2   1.952853 S    
C50   C54   1.537041 S    
C10   H9    1.082898 S    
C46   C48   1.531479 S    
C52   H22   1.110388 S    
C48   H20   1.110230 S    
C35   C37   1.397713 A    
C20   C26   1.414385 A    
O4    C2    1.290885 A    
O1    Cu1   1.955992 S    
C44   C47   1.546331 S    
C43   C48   1.546337 S    
C41   H17   1.110201 S    
C12   C28   1.406201 A    
C41   C43   1.545656 S    
N2    C18   1.433743 S    
C39   H13   1.078083 S    
C19   C34   1.421466 A    
C5    O9    1.349998 S    
O6    Cu2   1.950616 S    
C26   C37   1.410733 A    
C21   C23   1.397168 A    
C16   H4    1.082880 S    
N2    C8    1.367546 A    
O3    C1    1.290885 A    
O8    Cu1   1.951203 S    
C23   C39   1.387124 A    
C53   H25   1.110234 S    
C57   C58   1.521188 S    
C51   H21   1.110382 S    
C14   C16   1.394347 A    
C15   C17   1.400538 A    
C36   H12   1.077696 S    
C6    C22   1.401147 A    
C16   C18   1.399835 A    
C49   C53   1.537031 S    
C2    C45   1.452834 S    
C29   C33   1.415795 A    
C51   N3    1.481521 S    
C22   C24   1.397151 A    
C55   H27   1.113746 S    
C19   C21   1.409963 A    
C36   C38   1.397330 A    
C3    C27   1.472975 S    
C56   H31   1.111443 S    
C20   C22   1.410118 A    
C9    C11   1.394243 A    
O2    Cu2   1.955991 S    
C13   H1    1.083033 S    
O5    Cu1   1.950616 S    
C20   C33   1.421392 A    
C6    O10   1.350010 S    
Cu1   N3    2.024284 S    
C56   H29   1.111667 S    
C50   H24   1.109891 S    
C24   C40   1.387595 A    
Cu2   N4    2.024284 S    
C42   C48   1.545656 S    
C41   C47   1.545653 S    
