data_mof_unit_53441.cif
_audit_creation_date              2013-03-05T15:53:05-0500
_audit_creation_method            fapswitch 2.2
_symmetry_space_group_name_H-M    P1
_symmetry_Int_Tables_number       1
_space_group_crystal_system       triclinic
_cell_length_a                    6.952359
_cell_length_b                    20.458513
_cell_length_c                    24.432212
_cell_angle_alpha                 89.610107
_cell_angle_beta                  90.683159
_cell_angle_gamma                 89.438485
_cell_volume                      3474.61674084

loop_
_atom_site_label
_atom_site_type_symbol
_atom_site_description
_atom_site_fract_x
_atom_site_fract_y
_atom_site_fract_z
_atom_type_partial_charge
O1    O     O_R   0.507320 0.423560 0.460500 -0.599573
O2    O     O_R   0.170760 0.556250 0.437010 -0.591087
O3    O     O_R   0.004030 0.576440 0.539500 -0.572657
C1    C     C_R   0.338439 0.576329 0.421074 0.992076
O4    O     O_R   0.177370 0.422820 0.454110 -0.599997
O5    O     O_R   0.010680 0.442050 0.556720 -0.577200
C2    C     C_R   0.346230 0.398921 0.443473 0.910748
O6    O     O_R   0.500680 0.557950 0.443280 -0.580612
O7    O     O_3   0.340380 0.506470 0.533650 -0.245578
V1    V     V_3+5 0.064130 0.498800 0.493760 1.241924
O8    O     O_R   0.681160 0.443750 0.562990 -0.590815
C3    C     C_R   0.851136 0.423668 0.578829 1.004700
O9    O     O_R   0.674560 0.577180 0.545890 -0.574148
C4    C     C_R   0.842825 0.600922 0.556825 1.153550
V2    V     V_3+5 0.564560 0.501200 0.506240 1.255685
O10   O     O_3   0.838180 0.493530 0.466350 -0.293216
C5    C     C_R   0.967366 0.838315 0.911031 -0.359414
C6    C     C_R   0.845417 0.661249 0.589899 -0.509748
C7    C     C_R   0.896645 0.722090 0.911609 0.403676
C8    C     C_R   0.917220 0.781446 0.938868 -0.275282
C9    C     C_R   0.986183 0.837199 0.853400 0.386833
C10   C     C_R   0.937162 0.779132 0.824082 -0.003357
C11   C     C_R   0.921585 0.719561 0.853953 -0.200458
C12   C     C_R   0.897123 0.778543 0.766309 -0.148315
C13   C     C_R   0.903697 0.718514 0.737010 0.002250
C14   C     C_R   0.914923 0.660189 0.767841 -0.121591
C15   C     C_R   0.925967 0.659816 0.825001 0.340245
C16   C     C_R   0.820904 0.834297 0.739075 0.717025
C17   C     C_R   0.770445 0.832900 0.683609 0.221001
C18   C     C_R   0.799917 0.775598 0.652894 -0.223734
C19   C     C_R   0.877270 0.718202 0.678481 -0.004465
C20   C     C_R   0.748733 0.774583 0.597037 -0.131042
C21   C     C_R   0.762148 0.717550 0.566926 0.745581
C22   C     C_R   0.917080 0.662518 0.644499 0.260800
H1    H     H_    0.892425 0.783406 0.982572 0.190857
H2    H     H_    0.902392 0.613296 0.748563 0.201640
H3    H     H_    0.692285 0.817594 0.576226 0.208982
C23   C     C_3   0.849624 0.306747 0.768595 0.833094
C24   C     C_3   0.038660 0.272751 0.787556 -0.429151
H4    H     H_    0.143075 0.291818 0.818091 0.204146
C25   C     C_1   0.960026 0.121829 0.875432 -0.249711
C26   C     C_1   0.864271 0.378208 0.624596 -0.222131
C27   C     C_3   0.739040 0.241907 0.773562 -0.181861
C28   C     C_3   0.928881 0.207566 0.791349 -0.026076
C29   C     C_3   0.785644 0.227009 0.712745 -0.233032
C30   C     C_3   0.894684 0.292274 0.708562 -0.210652
C31   C     C_3   0.975288 0.191797 0.731164 -0.193363
C32   C     C_3   0.081359 0.257593 0.727009 0.763613
C33   C     C_1   0.946777 0.160303 0.837439 0.151574
C34   C     C_1   0.877333 0.339689 0.662559 0.227062
H5    H     H_    0.029347 0.144231 0.715701 0.197055
H6    H     H_    0.681473 0.208328 0.681969 0.221289
H7    H     H_    0.596982 0.235890 0.793164 0.179081
C35   C     C_3   0.510520 0.720991 0.211179 0.389777
C36   C     C_3   0.313248 0.696871 0.231224 -0.356345
H8    H     H_    0.233031 0.654320 0.215135 0.219649
C37   C     C_1   0.347129 0.621747 0.375127 -0.242397
C38   C     C_1   0.477108 0.878146 0.124753 -0.208982
C39   C     C_3   0.584084 0.729853 0.270580 -0.179057
C40   C     C_3   0.384581 0.707228 0.291131 -0.069145
C41   C     C_3   0.509549 0.802328 0.268508 -0.198028
C42   C     C_3   0.439223 0.792342 0.208484 -0.137329
C43   C     C_3   0.312203 0.778576 0.288807 0.277943
C44   C     C_3   0.243845 0.769099 0.229603 0.234058
C45   C     C_1   0.361097 0.660103 0.337117 0.198645
C46   C     C_1   0.463014 0.839641 0.162632 0.269743
H9    H     H_    0.587124 0.845446 0.284565 0.230563
H10   H     H_    0.726485 0.713043 0.286550 0.190366
C47   C     C_R   0.473976 0.161549 0.089217 -0.282490
C48   C     C_R   0.353673 0.338107 0.411567 -0.105868
C49   C     C_R   0.547906 0.276218 0.095951 -0.017427
C50   C     C_R   0.540145 0.219155 0.065617 -0.283957
C51   C     C_R   0.419749 0.160693 0.144598 0.709565
C52   C     C_R   0.443906 0.217346 0.178206 -0.095253
C53   C     C_R   0.500409 0.276134 0.151674 -0.154097
C54   C     C_R   0.415518 0.218462 0.236601 -0.001803
C55   C     C_R   0.422523 0.279284 0.265642 -0.027680
C56   C     C_R   0.468566 0.336347 0.236133 -0.316136
C57   C     C_R   0.510364 0.334577 0.180812 0.799380
C58   C     C_R   0.391799 0.160676 0.267539 -0.240205
C59   C     C_R   0.360063 0.161972 0.323521 0.716024
C60   C     C_R   0.355711 0.221080 0.351777 -0.094339
C61   C     C_R   0.388892 0.280793 0.323609 0.094012
C62   C     C_R   0.321560 0.220763 0.408389 -0.034631
C63   C     C_R   0.319789 0.278712 0.437837 -0.193891
C64   C     C_R   0.387342 0.339385 0.354951 -0.168048
H11   H     H_    0.408266 0.386874 0.336831 0.099164
H12   H     H_    0.292090 0.277225 0.481378 0.129963
H13   H     H_    0.594940 0.320452 0.075715 0.205359
H14   H     H_    0.583614 0.220111 0.023170 0.155653
H15   H     H_    0.479940 0.383517 0.255033 0.171859
H16   H     H_    0.406187 0.112766 0.250333 0.249476
H17   H     H_    0.295793 0.175471 0.430209 0.191927
O11   O     O_R   0.323550 0.942140 0.056770 -0.582784
O12   O     O_R   0.647080 0.077200 0.045890 -0.605241
O13   O     O_R   0.813610 0.057920 0.943260 -0.596927
C65   C     C_R   0.478443 0.101186 0.056521 1.028907
O14   O     O_R   0.653470 0.943760 0.063000 -0.582713
O15   O     O_R   0.820050 0.923540 0.960490 -0.588900
C66   C     C_R   0.485793 0.923696 0.078927 0.993324
O16   O     O_R   0.317110 0.076520 0.039540 -0.581801
O17   O     O_3   0.483830 0.993580 0.966380 -0.267088
V3    V     V_3+5 0.760140 0.001190 0.006240 1.244226
O18   O     O_R   0.149510 0.922740 0.954070 -0.581132
C67   C     C_R   0.980579 0.899008 0.943245 1.080727
O19   O     O_R   0.143120 0.056170 0.936970 -0.586585
C68   C     C_R   0.973169 0.076368 0.921202 1.024838
V4    V     V_3+5 0.259690 0.998700 0.993700 1.261143
O20   O     O_3   0.986130 0.006420 0.033620 -0.269166
N1    N     N_R   0.959689 0.598266 0.852372 0.266915
O21   O     O_R   0.873166 0.545884 0.835442 -0.261435
O22   O     O_R   0.100557 0.592314 0.887674 -0.279565
F1    F     F_    0.783934 0.366248 0.787744 -0.606184
F2    F     F_    0.258259 0.265697 0.702735 -0.678325
N2    N     N_R   0.620624 0.687560 0.169239 0.273614
O23   O     O_R   0.680974 0.627965 0.177774 -0.317936
O24   O     O_R   0.651921 0.715731 0.122364 -0.300562
N3    N     N_R   0.060125 0.790514 0.206099 0.251580
O25   O     O_R   0.940042 0.824752 0.234784 -0.374293
O26   O     O_R   0.021228 0.778939 0.154921 -0.336371
N4    N     N_R   0.047468 0.611543 0.662376 0.232958
O27   O     O_R   0.214058 0.626438 0.683430 -0.352383
O28   O     O_R   0.001575 0.550327 0.657489 -0.405113
N5    N     N_R   0.202124 0.811805 0.330918 0.270830
O29   O     O_R   0.166400 0.874134 0.326451 -0.282150
O30   O     O_R   0.143878 0.780018 0.373800 -0.338683
F3    F     F_    0.560646 0.391143 0.155490 -0.652776
F4    F     F_    0.336689 0.104293 0.350442 -0.644092
F5    F     F_    0.337048 0.105230 0.163221 -0.718612
F6    F     F_    0.698049 0.717826 0.514174 -0.665675
N6    N     N_R   0.679725 0.889814 0.659651 0.270379
O31   O     O_R   0.504754 0.886373 0.640443 -0.326637
O32   O     O_R   0.757808 0.946898 0.665663 -0.269838
N7    N     N_R   0.825628 0.667404 0.942247 0.264519
O33   O     O_R   0.888269 0.656394 0.991899 -0.261613
O34   O     O_R   0.673752 0.636723 0.924923 -0.293660
N8    N     N_R   0.074689 0.891347 0.825658 0.261036
O35   O     O_R   0.200806 0.880515 0.787749 -0.324727
O36   O     O_R   0.031191 0.951423 0.838013 -0.367783
F7    F     F_    0.762219 0.887268 0.767890 -0.616484

loop_
_geom_bond_atom_site_label_1
_geom_bond_atom_site_label_2
_geom_bond_distance
_ccdc_geom_bond_type
C28   C33   1.482557 S    
C13   C19   1.439626 A    
O15   V3    1.992201 S    
C36   H8    1.110100 S    
C51   C52   1.435026 A    
C4    C6    1.479948 S    
C7    C11   1.422571 A    
C7    C8    1.396710 A    
C16   F7    1.358328 S    
C9    N8    1.441636 S    
C1    O6    1.297045 A    
C2    C48   1.473501 S    
C59   C60   1.396765 A    
C17   N6    1.436568 S    
C29   C30   1.545254 S    
C7    N7    1.436678 S    
N8    O36   1.301199 A    
O11   V4    1.964666 S    
C14   C15   1.397712 A    
C52   C54   1.442924 A    
C40   C43   1.539766 S    
N5    O30   1.300226 A    
C16   C17   1.396334 A    
O5    C3    1.297401 A    
C23   C24   1.545562 S    
O19   C68   1.301021 A    
C55   C61   1.438677 A    
O4    V1    1.997310 S    
O14   V3    1.967997 S    
C5    C8    1.393047 A    
C44   N3    1.456476 S    
V4    O20   2.152635 S    
C41   C43   1.546141 S    
N3    O25   1.299239 A    
C3    C26   1.451002 S    
N1    O21   1.301576 A    
C8    H1    1.084596 S    
O8    V2    1.973167 S    
C62   C63   1.390986 A    
C27   H7    1.110316 S    
C15   N1    1.437655 S    
O12   V3    1.997296 S    
N2    O24   1.300210 A    
C1    C37   1.454565 S    
C42   C44   1.537367 S    
O17   V4    1.705103 S    
O1    V2    1.989020 S    
C11   C15   1.416644 A    
O7    V1    2.150926 S    
C28   C31   1.544699 S    
C36   C40   1.556320 S    
O16   V4    1.993612 S    
C39   C40   1.554422 S    
C49   C53   1.404739 A    
O9    C4    1.296644 A    
C36   C44   1.550060 S    
O17   V3    2.150870 S    
C25   C33   1.215025 T    
O18   C67   1.300215 A    
C38   C46   1.216703 T    
C43   N5    1.457569 S    
C51   F5    1.355408 S    
C35   C39   1.545468 S    
C29   C31   1.556488 S    
O15   C67   1.295417 A    
C30   C32   1.534458 S    
C39   C41   1.566151 S    
C23   C30   1.533674 S    
C52   C53   1.423292 A    
C42   C46   1.487121 S    
C54   C58   1.410967 A    
C38   C66   1.454023 S    
C12   C13   1.426325 A    
C24   H4    1.110088 S    
O4    C2    1.297135 A    
C23   F1    1.382465 S    
C56   C57   1.386520 A    
C31   H5    1.110049 S    
C35   C42   1.537723 S    
C29   H6    1.110098 S    
C13   C14   1.407788 A    
C55   C56   1.409437 A    
C5    C9    1.415983 A    
C58   H16   1.073395 S    
C47   C50   1.393101 A    
O2    C1    1.302835 A    
C27   C28   1.545467 S    
C17   C18   1.410811 A    
C5    C67   1.477669 S    
C39   H10   1.110383 S    
C50   H14   1.083774 S    
C41   H9    1.109926 S    
C31   C32   1.544490 S    
C49   H13   1.083448 S    
O11   C66   1.296949 A    
C35   N2    1.456600 S    
C19   C22   1.440816 A    
C20   H3    1.081298 S    
C54   C55   1.437546 A    
C47   C51   1.408979 A    
C27   C29   1.556101 S    
N4    O27   1.301428 A    
C24   C28   1.545816 S    
O3    C4    1.299739 A    
C26   C34   1.214981 T    
N3    O26   1.299963 A    
C14   H2    1.075449 S    
O13   C68   1.297364 A    
C40   C45   1.487000 S    
O6    V2    1.964872 S    
C60   C62   1.406166 A    
O9    V2    1.991409 S    
C59   F4    1.359141 S    
C10   C12   1.435588 A    
N6    O31   1.301341 A    
C48   C64   1.405773 A    
O18   V4    1.991334 S    
C64   H11   1.076827 S    
C32   F2    1.382700 S    
C63   H12   1.083638 S    
C57   F3    1.359250 S    
C35   C36   1.546090 S    
C25   C68   1.451078 S    
O1    C2    1.297787 A    
C12   C16   1.412103 A    
C37   C45   1.217111 T    
C58   C59   1.388431 A    
N6    O32   1.301174 A    
O5    V1    1.962155 S    
N7    O34   1.301534 A    
O8    C3    1.300949 A    
O12   C65   1.296368 A    
N7    O33   1.301476 A    
C56   H15   1.075857 S    
C22   N4    1.437345 S    
N8    O35   1.301577 A    
C30   C34   1.482725 S    
O14   C66   1.302658 A    
V3    O20   1.704907 S    
C20   C21   1.386554 A    
O7    V2    1.706416 S    
C23   C27   1.544501 S    
O3    V1    1.992175 S    
V1    O10   1.704993 S    
C18   C20   1.406554 A    
C18   C19   1.424251 A    
O19   V4    1.972986 S    
C6    C22   1.418905 A    
V2    O10   2.152595 S    
C62   H17   1.083384 S    
C41   C42   1.555773 S    
C6    C21   1.395448 A    
N1    O22   1.301530 A    
N4    O28   1.301346 A    
C43   C44   1.531336 S    
C21   F6    1.358663 S    
C49   C50   1.388213 A    
C61   C64   1.426811 A    
C60   C61   1.420246 A    
O13   V3    1.962327 S    
C10   C11   1.421980 A    
N5    O29   1.300332 A    
C9    C10   1.433244 A    
C48   C63   1.393765 A    
C53   C57   1.397584 A    
C65   O16   1.299129 A    
N2    O23   1.300167 A    
C47   C65   1.475608 S    
C24   C32   1.545154 S    
O2    V1    1.967962 S    
