data_mof_unit_11537.cif
_audit_creation_date              2012-12-10T20:35:52-0500
_audit_creation_method            fapswitch 2.2
_symmetry_space_group_name_H-M    P1
_symmetry_Int_Tables_number       1
_space_group_crystal_system       triclinic
_cell_length_a                    15.736699
_cell_length_b                    10.637227
_cell_length_c                    9.917469
_cell_angle_alpha                 89.36981
_cell_angle_beta                  90.085661
_cell_angle_gamma                 91.381349
_cell_volume                      1659.54903647

loop_
_atom_site_label
_atom_site_type_symbol
_atom_type_description
_atom_site_fract_x
_atom_site_fract_y
_atom_site_fract_z
_atom_type_partial_charge
Br1   Br    Br    0.638605 0.677493 0.162678 -0.323148
Br2   Br    Br    0.635392 0.682754 0.832559 -0.387120
Br3   Br    Br    0.303357 0.284116 0.178159 -0.316227
Br4   Br    Br    0.091428 0.462321 0.201511 -0.352509
Br5   Br    Br    0.101369 0.241659 0.398092 -0.354324
Br6   Br    Br    0.891617 0.420178 0.209576 -0.299789
C1    C     C_R   0.507861 0.260861 0.500341 0.897753
C2    C     C_R   0.529550 0.130821 0.502069 -0.183720
C3    C     C_R   0.556390 0.067142 0.384946 -0.064683
C4    C     C_R   0.338476 0.499913 0.499853 0.904107
C5    C     C_R   0.547802 0.936448 0.384367 -0.195927
C6    C     C_R   0.519559 0.872267 0.500579 -0.126299
C7    C     C_R   0.515347 0.935523 0.621958 0.177139
C8    C     C_3   0.448541 0.928198 0.728706 -0.436566
C9    C     C_3   0.452006 0.070461 0.727974 -0.366582
C10   C     C_R   0.444171 0.424498 0.072313 0.119996
C11   C     C_R   0.557856 0.570683 0.070894 0.266294
C12   C     C_3   0.950821 0.479796 0.634580 -0.425514
C13   C     C_R   0.557421 0.571514 0.927320 0.259301
C14   C     C_R   0.444127 0.423726 0.929688 0.023958
C15   C     C_3   0.348860 0.431250 0.927167 -0.336712
C16   C     C_R   0.503064 0.740246 0.499509 0.900133
C17   C     C_3   0.350047 0.430714 0.081359 0.068064
C18   C     C_R   0.661481 0.500578 0.499996 0.930618
C19   C     C_3   0.047582 0.462942 0.630598 -0.351197
C20   C     C_3   0.047669 0.406951 0.379576 0.419140
C21   C     C_3   0.946252 0.400495 0.389958 0.050888
C22   C     C_1   0.750157 0.503961 0.499435 0.016366
C23   C     C_3   0.917136 0.508933 0.489648 -0.042035
C24   C     C_3   0.082756 0.500200 0.489417 0.070260
C25   C     C_2   0.925641 0.689597 0.309350 0.996994
C26   C     C_2   0.591010 0.131447 0.262522 1.007896
C27   C     C_2   0.304622 0.320385 0.861657 1.077049
C28   C     C_2   0.912525 0.270635 0.442127 0.959532
C29   C     C_2   0.922731 0.746699 0.546370 0.903192
C30   C     C_3   0.954893 0.645439 0.449334 -0.120945
C31   C     C_3   0.054952 0.636543 0.456982 -0.472540
C32   C     C_1   0.825371 0.507254 0.496161 0.064082
C33   C     C_1   0.174444 0.499815 0.495082 0.054817
C34   C     C_1   0.249696 0.499972 0.498533 -0.058862
C35   C     C_R   0.519244 0.063584 0.622407 0.090244
H1    H     H_    0.918506 0.396686 0.681755 0.241599
H2    H     H_    0.327645 0.522548 0.884610 0.156175
H3    H     H_    0.329245 0.521150 0.124080 0.149832
H4    H     H_    0.083101 0.697627 0.536223 0.228460
H5    H     H_    0.087327 0.672152 0.364662 0.252938
H6    H     H_    0.955447 0.749264 0.120731 0.382753
H7    H     H_    0.599785 0.134689 0.059500 0.352274
H8    H     H_    0.213741 0.260779 0.732123 0.355663
H9    H     H_    0.917848 0.130461 0.581175 0.377040
H10   H     H_    0.821920 0.837105 0.621629 0.370059
H11   H     H_    0.077902 0.522599 0.709713 0.223583
H12   H     H_    0.936380 0.557181 0.704711 0.222965
H13   H     H_    0.560749 0.885904 0.293011 0.232107
H14   H     H_    0.387030 0.887878 0.691780 0.202340
H15   H     H_    0.472450 0.885977 0.824109 0.241906
H16   H     H_    0.392943 0.112344 0.687843 0.227461
H17   H     H_    0.476958 0.110908 0.823495 0.244663
H18   H     H_    0.062923 0.364032 0.655856 0.261427
N1    N     N_R   0.499430 0.499140 0.142800 -0.170096
N2    N     N_R   0.499430 0.499180 0.857150 -0.157823
O1    O     O_R   0.500010 0.316790 0.614690 -0.620675
O2    O     O_R   0.983955 0.721430 0.207439 -0.752888
O3    O     O_2   0.638253 0.223817 0.273166 -0.569255
O4    O     O_R   0.572263 0.083211 0.134968 -0.782476
O5    O     O_2   0.325376 0.212993 0.888384 -0.599769
O6    O     O_R   0.238631 0.341589 0.770535 -0.811207
O7    O     O_2   0.855089 0.214724 0.382644 -0.528238
O8    O     O_R   0.945895 0.214892 0.558581 -0.797323
O9    O     O_2   0.971867 0.810126 0.614822 -0.597616
O10   O     O_R   0.835541 0.768625 0.555279 -0.756365
O11   O     O_R   0.500000 0.316760 0.385350 -0.583348
O12   O     O_R   0.377150 0.500020 0.614720 -0.621503
O13   O     O_R   0.377140 0.499990 0.385380 -0.605287
O14   O     O_R   0.500000 0.683240 0.614650 -0.595309
O15   O     O_R   0.499990 0.683210 0.385310 -0.608284
O16   O     O_R   0.622860 0.500010 0.614620 -0.593412
O17   O     O_R   0.622850 0.499980 0.385280 -0.545671
O18   O     O_2   0.849678 0.700422 0.286419 -0.521698
Zn1   Zn    Zn3+2 0.500010 0.500020 0.653130 1.002041
Zn2   Zn    Zn3+2 0.499990 0.499980 0.346870 1.049832

loop_
_geom_bond_atom_site_label_1
_geom_bond_atom_site_label_2
_ccdc_geom_bond_type
C8    H15   S    
C21   C23   S    
Br3   C17   S    
C29   C30   S    
C16   O15   A    
C7    C35   A    
C1    C2    S    
C23   C30   S    
C20   C21   S    
O1    Zn1   S    
C30   C31   S    
H9    O8    S    
C12   H1    S    
H6    O2    S    
C4    O12   A    
C15   C27   S    
N2    Zn1   S    
C6    C16   S    
C4    C34   S    
C10   N1    A    
C14   N2    A    
C3    C26   S    
C15   H2    S    
C29   O9    D    
C2    C3    A    
C23   C32   S    
H7    O4    S    
O14   Zn1   S    
O11   Zn2   S    
C12   H12   S    
C8    H14   S    
C29   O10   S    
C7    C8    S    
C9    H16   S    
C12   C19   S    
H10   O10   S    
C16   O14   A    
C27   O5    D    
C21   C28   S    
C25   O2    S    
C2    C35   A    
C9    C35   S    
C28   O7    D    
C33   C34   T    
C17   H3    S    
C24   C31   S    
C1    O1    A    
N1    Zn2   S    
Br6   C21   S    
C22   C32   T    
C10   C14   A    
C12   C23   S    
C6    C7    A    
C3    C5    A    
C28   O8    S    
C26   O3    D    
C5    H13   S    
C18   O17   A    
C20   C24   S    
C10   C17   S    
C15   C17   S    
C9    H17   S    
O13   Zn2   S    
C31   H4    S    
C1    O11   A    
C27   O6    S    
O16   Zn1   S    
C19   C24   S    
H8    O6    S    
Br2   C13   S    
C8    C9    S    
C18   C22   S    
O15   Zn2   S    
Br4   C20   S    
C5    C6    A    
C25   O18   D    
Br1   C11   S    
C19   H11   S    
C4    O13   A    
O17   Zn2   S    
C13   N2    A    
C11   C13   A    
O12   Zn1   S    
C24   C33   S    
C11   N1    A    
Br5   C20   S    
C18   O16   A    
C14   C15   S    
C25   C30   S    
C19   H18   S    
C31   H5    S    
C26   O4    S    
