data_mof_unit_21905.cif
_audit_creation_date              2012-12-11T16:17:34-0500
_audit_creation_method            fapswitch 2.2
_symmetry_space_group_name_H-M    P1
_symmetry_Int_Tables_number       1
_space_group_crystal_system       triclinic
_cell_length_a                    6.9161
_cell_length_b                    28.883007
_cell_length_c                    31.973602
_cell_angle_alpha                 101.126316
_cell_angle_beta                  89.859391
_cell_angle_gamma                 90.236696
_cell_volume                      6266.86412909

loop_
_atom_site_label
_atom_site_type_symbol
_atom_type_description
_atom_site_fract_x
_atom_site_fract_y
_atom_site_fract_z
_atom_type_partial_charge
O1    O     O_R   0.494350 0.453160 0.452490 -0.505627
O2    O     O_R   0.820990 0.455850 0.538220 -0.553057
O3    O     O_R   0.994300 0.546840 0.547510 -0.543462
C1    C     C_R   0.651821 0.445350 0.551465 0.666865
O4    O     O_R   0.823860 0.447580 0.452250 -0.541553
O5    O     O_R   0.997190 0.538510 0.460920 -0.503755
C2    C     C_R   0.654446 0.433888 0.437017 0.769474
O6    O     O_R   0.491450 0.461490 0.539080 -0.546295
O7    O     O_3   0.661790 0.529840 0.502950 -0.355413
V1    V     V_3+5 0.935470 0.494460 0.499450 1.468810
O8    O     O_R   0.327090 0.544150 0.461780 -0.529641
C3    C     C_R   0.158247 0.553629 0.447593 0.784258
O9    O     O_R   0.324210 0.552420 0.547750 -0.547865
C4    C     C_R   0.155130 0.565421 0.563593 0.671372
V2    V     V_3+5 0.435840 0.505540 0.500550 1.492344
O10   O     O_3   0.159650 0.470160 0.497050 -0.374689
C5    C     C_R   0.964003 0.621160 0.618772 -0.151507
H1    H     H_    0.830716 0.606733 0.603893 0.119851
C6    C     C_R   0.952895 0.657074 0.655083 -0.123447
H2    H     H_    0.811587 0.669160 0.667000 0.135026
C7    C     C_R   0.121614 0.676930 0.675761 0.025744
C8    C     C_R   0.301847 0.659921 0.658937 -0.118674
H3    H     H_    0.435023 0.674319 0.673878 0.141510
C9    C     C_R   0.312999 0.624082 0.622533 -0.155737
H4    H     H_    0.454259 0.611888 0.610657 0.117333
C10   C     C_R   0.144200 0.604113 0.601949 -0.046487
N1    N     N_R   0.272833 0.732734 0.735530 -0.261129
N2    N     N_R   0.263108 0.767165 0.769873 -0.200135
C11   C     C_R   0.090501 0.785910 0.784730 0.562827
N3    N     N_R   0.927248 0.767912 0.763991 -0.238084
N4    N     N_R   0.936798 0.733395 0.729635 -0.267562
C12   C     C_R   0.110001 0.715145 0.714483 0.499204
C13   C     C_R   0.908705 0.830396 0.847867 -0.118903
H5    H     H_    0.787112 0.806792 0.839197 0.186403
C14   C     C_R   0.892778 0.866116 0.884294 -0.125923
H6    H     H_    0.759316 0.869290 0.902397 0.141476
C15   C     C_R   0.048404 0.896789 0.897531 -0.123995
C16   C     C_R   0.218578 0.891418 0.872946 -0.185502
H7    H     H_    0.339381 0.915250 0.881899 0.157934
C17   C     C_R   0.234517 0.856434 0.836026 0.408846
C18   C     C_R   0.079305 0.824684 0.823200 -0.073294
C19   C     C_R   0.108255 0.656871 0.281885 0.591297
N5    N     N_R   0.138689 0.676101 0.324142 -0.550518
C20   C     C_R   0.160348 0.724009 0.337290 0.580351
C21   C     C_R   0.150924 0.754376 0.307701 -0.032876
C22   C     C_R   0.116271 0.735100 0.264454 -0.017373
C23   C     C_R   0.094650 0.685962 0.251341 -0.037655
C24   C     C_R   0.173326 0.803506 0.320370 -0.133884
C25   C     C_R   0.161180 0.833013 0.290552 -0.139162
C26   C     C_R   0.125504 0.814174 0.247324 -0.028925
C27   C     C_R   0.102736 0.765034 0.234259 -0.014873
C28   C     C_R   0.066173 0.745762 0.191074 -0.030971
C29   C     C_R   0.044889 0.696628 0.178359 -0.136716
C30   C     C_R   0.059423 0.667098 0.208091 -0.132393
C31   C     C_R   0.111624 0.843238 0.216741 0.569937
N6    N     N_R   0.075461 0.824001 0.174786 -0.560613
C32   C     C_R   0.052484 0.776198 0.161649 0.575415
O11   O     O_2   0.092260 0.609663 0.269317 -0.505179
O12   O     O_2   0.187967 0.742389 0.378947 -0.516391
H8    H     H_    0.200240 0.819362 0.353393 0.176561
H9    H     H_    0.179298 0.870657 0.301537 0.172889
O13   O     O_2   0.132881 0.890364 0.228916 -0.523250
O14   O     O_2   0.018185 0.758092 0.120189 -0.516960
H10   H     H_    0.017048 0.680792 0.145370 0.174475
H11   H     H_    0.042104 0.629438 0.197067 0.177167
C33   C     C_R   0.886031 0.862422 0.125555 -0.086694
H12   H     H_    0.755825 0.845836 0.134593 0.119175
C34   C     C_R   0.875134 0.892038 0.095679 -0.199564
H13   H     H_    0.735671 0.897623 0.082192 0.129979
C35   C     C_R   0.042509 0.914013 0.083377 -0.059841
C36   C     C_R   0.220623 0.905645 0.101885 -0.199149
H14   H     H_    0.352443 0.921986 0.093381 0.128964
C37   C     C_R   0.230915 0.876276 0.131889 -0.091552
H15   H     H_    0.369245 0.870356 0.145720 0.116581
C38   C     C_R   0.063915 0.854427 0.143928 0.383352
C39   C     C_R   0.306393 0.643469 0.380534 -0.064347
H16   H     H_    0.432486 0.664750 0.377024 0.147280
C40   C     C_R   0.309140 0.613797 0.410400 -0.203847
H17   H     H_    0.437509 0.613508 0.429663 0.184095
C41   C     C_R   0.148834 0.585075 0.415545 -0.148857
C42   C     C_R   0.984141 0.586892 0.389395 0.344096
C43   C     C_R   0.982133 0.617286 0.360106 -0.119695
H18   H     H_    0.855056 0.618608 0.340630 0.165018
C44   C     C_R   0.142576 0.645599 0.355200 0.299753
C45   C     C_R   0.682801 0.218062 0.834396 0.675216
N7    N     N_R   0.561832 0.179785 0.828345 -0.557519
C46   C     C_R   0.447682 0.169063 0.792718 0.722523
C47   C     C_R   0.450765 0.197811 0.761302 -0.121595
C48   C     C_R   0.582345 0.236264 0.766576 -0.072561
C49   C     C_R   0.698377 0.246361 0.803349 -0.067405
C50   C     C_R   0.329092 0.189787 0.724840 0.414891
C51   C     C_R   0.344699 0.218431 0.694383 -0.183987
C52   C     C_R   0.477637 0.255849 0.699061 -0.080610
C53   C     C_R   0.596551 0.265120 0.735356 -0.073418
C54   C     C_R   0.727973 0.303474 0.740637 -0.107121
C55   C     C_R   0.847451 0.312300 0.777306 0.411643
C56   C     C_R   0.827404 0.284574 0.808571 -0.212725
C57   C     C_R   0.491672 0.284686 0.668334 0.595106
N8    N     N_R   0.616829 0.322323 0.673923 -0.561506
C58   C     C_R   0.733044 0.332208 0.709345 0.597040
O15   O     O_2   0.787341 0.228862 0.870546 -0.479134
O16   O     O_2   0.334367 0.130346 0.787741 -0.447582
H19   H     H_    0.249741 0.211442 0.666964 0.203438
O17   O     O_2   0.381643 0.274850 0.632906 -0.524913
O18   O     O_2   0.850390 0.370267 0.714606 -0.508967
H20   H     H_    0.914820 0.293241 0.837102 0.190543
C59   C     C_R   0.800327 0.359962 0.622517 -0.081298
H21   H     H_    0.930908 0.342693 0.630020 0.142394
C60   C     C_R   0.809101 0.390034 0.593044 -0.218689
H22   H     H_    0.947302 0.395435 0.578695 0.134572
C61   C     C_R   0.641769 0.412749 0.582262 -0.047541
C62   C     C_R   0.465326 0.404343 0.601597 -0.209033
H23   H     H_    0.333537 0.421119 0.594087 0.130031
C63   C     C_R   0.457168 0.374688 0.631429 -0.107453
H24   H     H_    0.320029 0.369411 0.646251 0.130149
C64   C     C_R   0.624696 0.352318 0.642389 0.362617
C65   C     C_R   0.716855 0.121129 0.864141 -0.088911
H25   H     H_    0.843861 0.122042 0.844445 0.199719
C66   C     C_R   0.712807 0.090890 0.893527 -0.192501
H26   H     H_    0.837653 0.069076 0.896009 0.155315
C67   C     C_R   0.547482 0.088071 0.918626 -0.120347
C68   C     C_R   0.388910 0.117277 0.914587 -0.246532
H27   H     H_    0.261143 0.116503 0.934124 0.157535
C69   C     C_R   0.394013 0.148173 0.885775 0.430204
C70   C     C_R   0.557277 0.149701 0.859683 0.277760
C71   C     C_R   0.470393 0.367417 0.389790 0.402759
C72   C     C_R   0.460025 0.332364 0.352707 -0.200845
H28   H     H_    0.324823 0.313491 0.345445 0.150591
C73   C     C_R   0.620788 0.321412 0.325684 -0.037991
C74   C     C_R   0.794048 0.346446 0.336624 -0.124120
H29   H     H_    0.921381 0.338813 0.316756 0.160989
C75   C     C_R   0.804634 0.382280 0.373020 -0.187172
H30   H     H_    0.939385 0.401450 0.379869 0.186581
C76   C     C_R   0.642710 0.394007 0.399675 -0.159021
N9    N     N_R   0.760833 0.272574 0.260177 -0.276502
N10   N     N_R   0.746143 0.239391 0.224944 -0.284718
C77   C     C_R   0.576205 0.216271 0.214159 0.550165
N11   N     N_R   0.421796 0.228093 0.240338 -0.231419
N12   N     N_R   0.436247 0.261220 0.275539 -0.295383
C78   C     C_R   0.606088 0.284209 0.286334 0.531016
C79   C     C_R   0.388856 0.152528 0.163584 0.441720
C80   C     C_R   0.382517 0.117308 0.126465 -0.320972
H31   H     H_    0.248479 0.098146 0.118493 0.185419
C81   C     C_R   0.546426 0.105856 0.100545 -0.193830
C82   C     C_R   0.717379 0.132615 0.110963 0.437269
C83   C     C_R   0.723894 0.167778 0.148202 -0.303589
H32   H     H_    0.858795 0.186479 0.156296 0.201578
C84   C     C_R   0.561225 0.178617 0.174789 -0.132060
O19   O     O_R   0.699050 0.038480 0.960880 -0.546044
O20   O     O_R   0.366680 0.052470 0.047720 -0.541917
O21   O     O_R   0.193410 0.961530 0.039110 -0.539939
C85   C     C_R   0.536021 0.066130 0.063003 0.736475
O22   O     O_R   0.369510 0.044100 0.961740 -0.542297
O23   O     O_R   0.196260 0.953110 0.952520 -0.539059
C86   C     C_R   0.538600 0.054764 0.948693 0.720493
O24   O     O_R   0.696210 0.046900 0.047470 -0.510993
O25   O     O_3   0.528780 0.970170 0.997070 -0.371645
V3    V     V_3+5 0.255080 0.005530 0.000540 1.426514
O26   O     O_R   0.866350 0.947520 0.952280 -0.539974
C87   C     C_R   0.035532 0.934737 0.936332 0.719751
O27   O     O_R   0.863520 0.955880 0.038260 -0.542675
C88   C     C_R   0.032247 0.945807 0.051861 0.710290
V4    V     V_3+5 0.754720 0.994440 0.999470 1.433404
O28   O     O_3   0.030880 0.029830 0.002930 -0.363005
Cl1   Cl    Cl    0.779164 0.550456 0.389920 -0.647646
Cl2   Cl    Cl    0.147922 0.145813 0.715365 -0.514745
O29   O     O_3   0.973405 0.350341 0.784680 -0.531221
C89   C     C_3   0.165095 0.333631 0.778193 0.140221
H33   H     H_    0.186989 0.315904 0.744378 0.120464
H34   H     H_    0.200020 0.308087 0.799086 0.085760
C90   C     C_3   0.306500 0.374982 0.789382 -0.300616
H35   H     H_    0.273739 0.395215 0.821835 0.210064
H36   H     H_    0.455697 0.361121 0.789805 0.158527
C91   C     C_3   0.297493 0.407883 0.757402 -0.609424
H37   H     H_    0.329535 0.388111 0.724824 0.205055
H38   H     H_    0.406665 0.436416 0.765904 0.207665
H39   H     H_    0.152151 0.424144 0.757823 0.271558
Cl3   Cl    Cl    0.195841 0.185500 0.883708 -0.611245
O30   O     O_3   0.307813 0.376022 0.415331 -0.568223
C92   C     C_3   0.313788 0.346843 0.446083 0.080767
H40   H     H_    0.422182 0.360969 0.471054 0.107625
H41   H     H_    0.351932 0.309666 0.431564 0.110980
C93   C     C_3   0.114480 0.346291 0.466804 -0.300366
H42   H     H_    0.068576 0.382864 0.480254 0.220644
H43   H     H_    0.007293 0.330502 0.442242 0.189064
C94   C     C_3   0.116033 0.318004 0.502483 -0.814874
H44   H     H_    0.160668 0.281034 0.489899 0.247340
H45   H     H_    0.968644 0.317634 0.516266 0.233297
H46   H     H_    0.217171 0.334305 0.528138 0.237661
O31   O     O_3   0.222688 0.162611 0.187707 -0.553795
C95   C     C_3   0.196194 0.127714 0.212690 0.097755
H47   H     H_    0.327185 0.124887 0.232349 0.118441
H48   H     H_    0.165251 0.092788 0.192043 0.113657
C96   C     C_3   0.024349 0.141339 0.242593 -0.258555
H49   H     H_    0.050272 0.176777 0.262624 0.235505
H50   H     H_    0.891701 0.142963 0.223468 0.197987
C97   C     C_3   0.992376 0.105670 0.271471 -0.826397
H51   H     H_    0.963145 0.070097 0.252074 0.240425
H52   H     H_    0.866090 0.116510 0.292550 0.238609
H53   H     H_    0.121701 0.104048 0.291666 0.241045
O32   O     O_3   0.883113 0.122015 0.086573 -0.562701
C98   C     C_3   0.928492 0.158895 0.064637 0.089397
H54   H     H_    0.088083 0.159377 0.060605 0.145686
H55   H     H_    0.887872 0.194682 0.082357 0.117522
C99   C     C_3   0.834982 0.149496 0.020376 -0.364857
H56   H     H_    0.881894 0.114524 0.002575 0.226868
H57   H     H_    0.675010 0.149150 0.023661 0.173554
C100  C     C_3   0.892459 0.186898 0.994825 -0.720557
H58   H     H_    0.845454 0.222366 0.011641 0.238550
H59   H     H_    0.821844 0.179001 0.963068 0.264093
H60   H     H_    0.051656 0.187004 0.990109 0.239443
Cl4   Cl    Cl    0.448337 0.856379 0.805923 -0.591840

loop_
_geom_bond_atom_site_label_1
_geom_bond_atom_site_label_2
_ccdc_geom_bond_type
C96   H50   S    
C90   H35   S    
C52   C53   A    
C59   C60   A    
O32   C98   S    
O23   V3    S    
C77   C84   S    
C33   C34   A    
C54   C55   A    
C1    O6    A    
C39   C44   A    
C62   C63   A    
C42   C43   A    
N9    N10   A    
C30   H11   S    
C29   C30   A    
C20   C21   A    
C90   H36   S    
C58   O18   S    
C71   C72   A    
C98   H55   S    
C5    C10   A    
C15   C87   S    
C7    C8    A    
N2    C11   A    
C14   C15   A    
C39   C40   A    
C73   C74   A    
C65   C66   A    
O26   C87   A    
C82   C83   A    
N3    N4    A    
C29   H10   S    
C40   C41   A    
C99   C100  S    
C96   C97   S    
C33   C38   A    
C20   O12   S    
V2    O10   S    
C57   N8    A    
C31   O13   S    
O22   V3    S    
N6    C32   A    
C37   H15   S    
C48   C53   A    
C97   H52   S    
C91   H37   S    
C68   C69   A    
C50   Cl2   S    
C79   C84   A    
C5    C6    A    
C89   H33   S    
O8    V2    S    
O25   V3    S    
C6    H2    S    
O24   V4    S    
C75   H30   S    
C98   C99   S    
C59   H21   S    
C32   O14   S    
C35   C36   A    
O19   V4    S    
O22   C86   A    
C11   N3    A    
O20   V3    S    
O7    V1    S    
O25   V4    S    
C49   C56   A    
C69   Cl3   S    
C51   H19   S    
C92   C93   S    
V3    O28   S    
C8    C9    A    
C89   H34   S    
C33   H12   S    
O29   C89   S    
N6    C38   S    
O1    C2    A    
O9    C4    A    
N7    C70   S    
N5    C44   S    
C37   C38   A    
C19   O11   S    
C53   C54   A    
C35   C88   S    
O5    C3    A    
C62   H23   S    
O27   V4    S    
C92   H41   S    
C24   H8    S    
C83   C84   A    
C68   H27   S    
C89   C90   S    
N9    C78   A    
C90   C91   S    
C82   O32   S    
C25   H9    S    
C98   H54   S    
C27   C28   A    
O21   V3    S    
C85   O24   A    
C39   H16   S    
C2    C76   S    
N11   N12   A    
C93   C94   S    
C100  H58   S    
C50   C51   A    
C36   C37   A    
C54   C58   A    
C34   H13   S    
C26   C27   A    
C99   H56   S    
C22   C27   A    
C4    C10   S    
C95   H47   S    
C14   H6    S    
C97   H53   S    
C74   C75   A    
C93   H42   S    
C72   C73   A    
O31   C95   S    
O23   C87   A    
C15   C16   A    
C46   O16   S    
N4    C12   A    
C47   C50   A    
C45   C49   A    
O21   C88   A    
C55   C56   A    
C31   N6    A    
C5    H1    S    
C55   O29   S    
C71   O30   S    
C9    H4    S    
C66   H26   S    
O3    C4    A    
C91   H39   S    
C67   C68   A    
O19   C86   A    
C66   C67   A    
C23   C30   A    
O1    V2    S    
C56   H20   S    
C100  H59   S    
C24   C25   A    
C1    C61   S    
C25   C26   A    
O6    V2    S    
C43   C44   A    
O9    V2    S    
N5    C20   A    
O26   V4    S    
C19   N5    A    
C94   H45   S    
C72   H28   S    
O2    V1    S    
N8    C64   S    
C80   C81   A    
C45   O15   S    
C28   C29   A    
O4    C2    A    
C83   H32   S    
C21   C24   A    
C22   C23   A    
C17   C18   A    
C67   C86   S    
C61   C62   A    
C11   C18   S    
N1    C12   A    
N7    C46   A    
C79   O31   S    
C9    C10   A    
C41   C42   A    
C45   N7    A    
O5    V1    S    
C63   C64   A    
N12   C78   A    
C63   H24   S    
C77   N11   A    
C17   Cl4   S    
C26   C31   A    
N8    C58   A    
C81   C82   A    
C13   C18   A    
C94   H46   S    
C60   C61   A    
C74   H29   S    
C94   H44   S    
C95   C96   S    
C36   H14   S    
C81   C85   S    
O3    V1    S    
V1    O10   S    
C65   H25   S    
C95   H48   S    
C16   C17   A    
C40   H17   S    
C16   H7    S    
C73   C78   S    
O27   C88   A    
C100  H60   S    
C57   O17   S    
O2    C1    A    
C3    C41   S    
C51   C52   A    
C13   C14   A    
C13   H5    S    
C96   H49   S    
O20   C85   A    
C19   C23   A    
O7    V2    S    
C97   H51   S    
C91   H38   S    
C59   C64   A    
V4    O28   S    
C28   C32   A    
O30   C92   S    
C7    C12   S    
C21   C22   A    
O4    V1    S    
C47   C48   A    
C71   C76   A    
C46   C47   A    
C75   C76   A    
C43   H18   S    
C60   H22   S    
N1    N2    A    
C80   H31   S    
C34   C35   A    
C42   Cl1   S    
C8    H3    S    
N10   C77   A    
C93   H43   S    
C48   C49   A    
C79   C80   A    
C99   H57   S    
C65   C70   A    
C52   C57   A    
C92   H40   S    
O8    C3    A    
C69   C70   A    
C6    C7    A    
