data_mof_unit_57701.cif
_audit_creation_date              2012-12-10T17:26:20-0500
_audit_creation_method            fapswitch 2.2
_symmetry_space_group_name_H-M    P1
_symmetry_Int_Tables_number       1
_space_group_crystal_system       triclinic
_cell_length_a                    10.069049
_cell_length_b                    10.662396
_cell_length_c                    27.269496
_cell_angle_alpha                 90.525374
_cell_angle_beta                  80.80005
_cell_angle_gamma                 97.46768
_cell_volume                      2865.28440467

loop_
_atom_site_label
_atom_site_type_symbol
_atom_type_description
_atom_site_fract_x
_atom_site_fract_y
_atom_site_fract_z
_atom_type_partial_charge
C1    C     C_R   0.560064 0.734425 0.496602 0.959001
C2    C     C_R   0.440088 0.265567 0.503471 0.955655
C3    C     C_R   0.497571 0.587935 0.901929 -0.135603
C4    C     C_R   0.461369 0.660802 0.105899 -0.118092
C5    C     C_R   0.591259 0.668190 0.867682 -0.139682
C6    C     C_R   0.356120 0.587661 0.138546 -0.135161
C7    C     C_R   0.655235 0.784312 0.884475 0.302617
C8    C     C_R   0.235415 0.535293 0.120619 0.308260
C9    C     C_R   0.428993 0.473052 0.886122 -0.044906
C10   C     C_R   0.576311 0.726491 0.123730 -0.063691
C11   C     C_R   0.499230 0.504160 0.648950 -0.233996
C12   C     C_R   0.509344 0.538440 0.352746 -0.230577
C13   C     C_R   0.556390 0.734379 0.021246 0.028825
C14   C     C_R   0.376227 0.546436 0.986359 0.043798
C15   C     C_R   0.350488 0.584144 0.036397 -0.032207
C16   C     C_R   0.550254 0.728391 0.969579 -0.032879
C17   C     C_R   0.454643 0.662292 0.054747 0.061866
C18   C     C_R   0.474610 0.621050 0.952458 0.064186
C19   C     C_R   0.668335 0.799614 0.039261 -0.237544
C20   C     C_R   0.319339 0.428344 0.971353 -0.274942
C21   C     C_R   0.678050 0.802830 0.090062 0.157143
C22   C     C_R   0.346068 0.388759 0.922251 0.191806
C23   C     C_R   0.499439 0.500053 0.594714 0.957719
C24   C     C_R   0.501836 0.506153 0.405552 0.968770
C25   C     C_R   0.621750 0.820085 0.934453 0.068454
C26   C     C_R   0.230098 0.541048 0.069295 0.067042
C27   C     C_2   0.604199 0.869921 0.490813 -0.038199
C28   C     C_2   0.397143 0.129906 0.509492 -0.055510
C29   C     C_2   0.518674 0.945704 0.513284 0.170199
C30   C     C_2   0.483909 0.054795 0.487125 0.184342
C31   C     C_2   0.927987 0.510644 0.504360 -0.093814
C32   C     C_2   0.071763 0.488547 0.495964 -0.096753
C33   C     C_R   0.608089 0.633244 0.817285 0.572034
C34   C     C_R   0.376833 0.569840 0.187641 0.571136
C35   C     C_R   0.442283 0.451010 0.834700 0.504370
C36   C     C_R   0.587099 0.707091 0.174124 0.498354
C37   C     C_R   0.595151 0.446432 0.720537 -0.131851
C38   C     C_R   0.445852 0.671026 0.290924 -0.127962
C39   C     C_R   0.587477 0.435493 0.670268 0.219051
C40   C     C_R   0.445335 0.641600 0.340229 0.217362
C41   C     C_R   0.413150 0.578543 0.680146 0.229693
C42   C     C_R   0.581693 0.471269 0.314538 0.208381
C43   C     C_R   0.423372 0.589973 0.731074 0.123938
C44   C     C_R   0.580974 0.501858 0.264186 0.126974
C45   C     C_R   0.516048 0.523639 0.750584 0.190406
C46   C     C_R   0.509775 0.601128 0.253176 0.195217
H1    H     H_    0.106213 0.418918 0.469249 0.167369
H2    H     H_    0.893370 0.579712 0.531301 0.171044
H3    H     H_    0.121846 0.616784 0.545061 0.205007
H4    H     H_    0.878338 0.383819 0.454697 0.197123
H5    H     H_    0.393669 0.748010 0.281547 0.189463
H6    H     H_    0.662870 0.393864 0.736705 0.190464
H7    H     H_    0.752075 0.843331 0.012705 0.170958
H8    H     H_    0.257608 0.363165 0.998726 0.156676
N1    N     N_R   0.527314 0.532600 0.802160 -0.341825
N2    N     N_R   0.491598 0.626267 0.203394 -0.340344
N3    N     N_2   0.842700 0.448890 0.480020 -0.175465
N4    N     N_2   0.157300 0.551110 0.519980 -0.168609
O1    O     O_R   0.431060 0.692470 0.504020 -0.564725
O2    O     O_R   0.568940 0.307530 0.495980 -0.573636
O3    O     O_R   0.651120 0.659650 0.491200 -0.627541
O4    O     O_R   0.348880 0.340350 0.508800 -0.622008
O5    O     O_R   0.389980 0.516390 0.577660 -0.564585
O6    O     O_R   0.610020 0.483610 0.422340 -0.567237
O7    O     O_R   0.610040 0.483570 0.564830 -0.582692
O8    O     O_R   0.389960 0.516430 0.435170 -0.587074
O9    O     O_2   0.699288 0.700797 0.782760 -0.480510
O10   O     O_2   0.286236 0.493948 0.219630 -0.483030
O11   O     O_2   0.693366 0.763700 0.194001 -0.568662
O12   O     O_2   0.365655 0.354199 0.816445 -0.555438
Zn1   Zn    Zn3+2 0.353060 0.521910 0.508560 1.027300
Zn2   Zn    Zn3+2 0.646940 0.478090 0.491440 1.022549
Br1   Br    Br    0.278474 0.664461 0.655176 -0.432812
Br2   Br    Br    0.679555 0.336921 0.330572 -0.404767
C47   C     C_3   0.264912 0.079337 0.542713 -0.364434
C48   C     C_3   0.140275 0.114348 0.523136 -0.796648
H9    H     H_    0.127017 0.214748 0.530478 0.277444
H10   H     H_    0.148567 0.096467 0.482634 0.265974
H11   H     H_    0.047918 0.055870 0.542589 0.257851
H12   H     H_    0.252240 0.974369 0.544434 0.257884
H13   H     H_    0.265741 0.115968 0.580957 0.245394
C49   C     C_3   0.739843 0.920250 0.459631 -0.364877
C50   C     C_3   0.860894 0.882848 0.480950 -0.804185
H14   H     H_    0.848600 0.899312 0.521618 0.269167
H15   H     H_    0.873991 0.782557 0.473337 0.276653
H16   H     H_    0.955158 0.941027 0.462862 0.256017
H17   H     H_    0.742929 0.885445 0.420983 0.246990
H18   H     H_    0.753991 0.025254 0.458605 0.252759
C51   C     C_3   0.335387 0.672122 0.764806 -0.385405
C52   C     C_3   0.392467 0.812145 0.759138 -0.695144
H19   H     H_    0.494155 0.828740 0.770539 0.277955
H20   H     H_    0.401149 0.845250 0.720178 0.305406
H21   H     H_    0.324018 0.869051 0.783281 0.248444
H22   H     H_    0.229564 0.657696 0.757125 0.256790
H23   H     H_    0.326173 0.645460 0.804501 0.195027
C53   C     C_3   0.653490 0.428458 0.222428 -0.344857
C54   C     C_3   0.567396 0.304755 0.212706 -0.755578
H24   H     H_    0.541595 0.244219 0.246645 0.297921
H25   H     H_    0.472173 0.324267 0.200398 0.271728
H26   H     H_    0.624807 0.252253 0.182917 0.246978
H27   H     H_    0.678435 0.484507 0.187353 0.209965
H28   H     H_    0.752788 0.408745 0.231137 0.271791
Br3   Br    Br    0.791386 0.897596 0.841929 -0.445685
Br4   Br    Br    0.075890 0.453550 0.163853 -0.457226
Br5   Br    Br    0.359883 0.752203 0.388088 -0.437726
Br6   Br    Br    0.694257 0.317051 0.634234 -0.424100
C55   C     C_3   0.796535 0.886197 0.107730 -0.297667
C56   C     C_3   0.886409 0.977576 0.069385 -0.942070
H29   H     H_    0.945877 0.924849 0.040247 0.258061
H30   H     H_    0.824041 0.038237 0.052306 0.263656
H31   H     H_    0.959643 0.040011 0.088096 0.278069
H32   H     H_    0.754288 0.946235 0.138339 0.252636
H33   H     H_    0.863505 0.825056 0.121914 0.247820
C57   C     C_3   0.289547 0.253629 0.912129 -0.375602
C58   C     C_3   0.142611 0.244859 0.903293 -0.739029
H34   H     H_    0.077119 0.273574 0.937168 0.226725
H35   H     H_    0.133900 0.306997 0.871855 0.294787
H36   H     H_    0.105543 0.145770 0.894596 0.255937
H37   H     H_    0.353724 0.211222 0.881225 0.250929
H38   H     H_    0.291999 0.192429 0.944710 0.179407
C59   C     C_3   0.641254 0.959933 0.948052 -0.387705
C60   C     C_3   0.550669 0.035352 0.923027 -0.822629
H39   H     H_    0.575807 0.033370 0.881981 0.293621
H40   H     H_    0.442410 0.996033 0.934262 0.248432
H41   H     H_    0.564309 0.135579 0.934811 0.242690
H42   H     H_    0.611306 0.974945 0.988309 0.212597
H43   H     H_    0.749379 0.000809 0.938192 0.232533
C61   C     C_3   0.094060 0.517689 0.050486 -0.388225
C62   C     C_3   0.008086 0.624164 0.065639 -0.806838
H44   H     H_    0.984075 0.632033 0.106553 0.289212
H45   H     H_    0.062963 0.715917 0.050046 0.253573
H46   H     H_    0.910946 0.605423 0.050810 0.246440
H47   H     H_    0.106288 0.515784 0.009434 0.214647
H48   H     H_    0.037820 0.424799 0.064053 0.231550
Br7   Br    Br    0.541625 0.083718 0.416553 -0.434652
Br8   Br    Br    0.473228 0.924351 0.584562 -0.471407

loop_
_geom_bond_atom_site_label_1
_geom_bond_atom_site_label_2
_ccdc_geom_bond_type
C33   N1    A    
C39   Br6   S    
C51   H23   S    
C53   H28   S    
C27   C29   D    
C8    C26   A    
C55   H32   S    
C14   C18   A    
C48   H11   S    
C32   N4    D    
C61   C62   S    
C54   H24   S    
C34   N2    A    
C43   C51   S    
C3    C9    A    
C19   C21   A    
C48   H10   S    
C59   H43   S    
C1    O1    A    
C2    O2    A    
N4    Zn1   S    
O2    Zn2   S    
C49   H17   S    
C56   H29   S    
C3    C18   A    
C51   H22   S    
C55   H33   S    
C12   C42   A    
C50   H14   S    
C35   O12   S    
C58   H35   S    
C5    C33   A    
C55   C56   S    
C47   H12   S    
C57   H37   S    
C24   O8    A    
C62   H46   S    
C19   H7    S    
C23   O5    A    
C24   O6    A    
C7    Br3   S    
C53   H27   S    
C41   C43   A    
C42   C44   A    
C54   H25   S    
C44   C46   A    
C57   C58   S    
C27   C49   S    
C10   C21   A    
C42   Br2   S    
C13   C19   A    
C35   N1    A    
C14   C20   A    
C48   H9    S    
C20   H8    S    
C34   O10   S    
C5    C7    A    
C37   H6    S    
C47   H13   S    
C15   C26   A    
C6    C8    A    
C38   H5    S    
H3    N4    S    
C6    C34   A    
C12   C40   A    
C47   C48   S    
C29   C30   S    
C36   N2    A    
C61   H48   S    
C43   C45   A    
C52   H20   S    
O8    Zn1   S    
C58   H36   S    
C53   C54   S    
C29   Br8   S    
C26   C61   S    
C11   C39   A    
C8    Br4   S    
C59   C60   S    
C21   C55   S    
C4    C17   A    
O3    Zn2   S    
C4    C6    A    
C50   H15   S    
O5    Zn1   S    
C30   Br7   S    
C31   H2    S    
C32   H1    S    
C37   C45   A    
C54   H26   S    
C36   O11   S    
C33   O9    S    
C52   H21   S    
C1    C27   S    
C62   H44   S    
C16   C25   A    
C15   C17   A    
C44   C53   S    
H4    N3    S    
C31   C32   S    
C4    C10   A    
C20   C22   A    
C3    C5    A    
C1    O3    A    
C10   C36   A    
O7    Zn2   S    
C12   C24   S    
C7    C25   A    
C56   H31   S    
C13   C17   A    
C23   O7    A    
C60   H41   S    
C28   C30   D    
C60   H39   S    
C59   H42   S    
C37   C39   A    
C61   H47   S    
C38   C40   A    
C31   N3    D    
C52   H19   S    
C25   C59   S    
C49   H18   S    
C11   C23   S    
C56   H30   S    
O4    Zn1   S    
C11   C41   A    
O6    Zn2   S    
N3    Zn2   S    
C9    C22   A    
C38   C46   A    
C41   Br1   S    
C22   C57   S    
C50   H16   S    
C45   N1    S    
C16   C18   A    
C49   C50   S    
C13   C16   A    
C46   N2    S    
C9    C35   A    
C14   C15   A    
C2    C28   S    
C58   H34   S    
C51   C52   S    
C28   C47   S    
C60   H40   S    
C57   H38   S    
C2    O4    A    
O1    Zn1   S    
C40   Br5   S    
C62   H45   S    
