data_mof_unit_61466.cif
_audit_creation_date              2012-10-26T18:12:27-0400
_audit_creation_method            fapswitch 2.2
_symmetry_space_group_name_H-M    P1
_symmetry_Int_Tables_number       1
_space_group_crystal_system       triclinic
_cell_length_a                    36.429613
_cell_length_b                    29.395755
_cell_length_c                    21.599134
_cell_angle_alpha                 89.988021
_cell_angle_beta                  126.202139
_cell_angle_gamma                 90.014988
_cell_volume                      18664.4762981

loop_
_atom_site_label
_atom_site_type_symbol
_atom_type_description
_atom_site_fract_x
_atom_site_fract_y
_atom_site_fract_z
_atom_type_partial_charge
C1    C     C_R   0.914444 0.999997 0.914500 0.549269
C2    C     C_1   0.229332 0.000009 0.229476 -0.000724
C3    C     C_3   0.451621 0.497259 0.235665 -0.327470
C4    C     C_1   0.863309 0.999991 0.863298 -0.049366
C5    C     C_1   0.136690 0.000009 0.136703 -0.049376
C6    C     C_1   0.363309 0.499990 0.863297 -0.049372
C7    C     C_1   0.636690 0.500009 0.136703 -0.049375
C8    C     C_3   0.915306 0.908965 0.597295 -0.113555
C9    C     C_3   0.088375 0.087849 0.405864 -0.113772
C10   C     C_3   0.078459 0.904154 0.397212 -0.113238
C11   C     C_3   0.917651 0.092920 0.599319 -0.113478
C12   C     C_3   0.412352 0.411496 0.594772 -0.113739
C13   C     C_1   0.270668 0.499991 0.770524 -0.000724
C14   C     C_3   0.578876 0.595556 0.397537 -0.113310
C15   C     C_3   0.587993 0.411821 0.405574 -0.113719
C16   C     C_3   0.420749 0.595269 0.602070 -0.113285
C17   C     C_1   0.729332 0.500008 0.229476 -0.000728
C18   C     C_1   0.728280 0.999993 0.728088 -0.000441
C19   C     C_1   0.271720 0.000007 0.271913 -0.000446
C20   C     C_1   0.228280 0.499992 0.728087 -0.000445
C21   C     C_1   0.771720 0.500006 0.271913 -0.000449
C22   C     C_1   0.678024 0.999996 0.677799 -0.035601
C23   C     C_1   0.321976 0.000005 0.322201 -0.035604
C24   C     C_1   0.178024 0.499995 0.677799 -0.035603
C25   C     C_R   0.085556 0.000003 0.085500 0.549388
C26   C     C_1   0.821976 0.500004 0.322201 -0.035608
C27   C     C_1   0.635635 0.999998 0.635428 -0.036528
C28   C     C_1   0.364365 0.000002 0.364572 -0.036529
C29   C     C_1   0.135635 0.499998 0.635428 -0.036529
C30   C     C_1   0.864365 0.500002 0.364572 -0.036533
C31   C     C_R   0.999997 0.914461 0.499983 0.534796
C32   C     C_R   0.000003 0.085539 0.500018 0.533825
C33   C     C_R   0.499996 0.414460 0.499997 0.533216
C34   C     C_R   0.500003 0.585539 0.500003 0.535443
C35   C     C_R   0.999881 0.999916 0.621102 0.582816
C36   C     C_R   0.414444 0.499997 0.914500 0.549323
C37   C     C_R   0.000119 0.000374 0.378901 0.582838
C38   C     C_R   0.499881 0.499685 0.621100 0.582835
C39   C     C_R   0.500119 0.499648 0.378901 0.582840
C40   C     C_R   0.500000 0.084501 0.499994 0.539907
C41   C     C_R   0.500000 0.915498 0.500005 0.539938
C42   C     C_R   0.000000 0.584502 0.499994 0.539950
C43   C     C_R   1.000000 0.415498 0.500006 0.539896
C44   C     C_R   0.584494 1.000000 0.584416 0.539925
C45   C     C_R   0.415506 0.000000 0.415584 0.539925
C46   C     C_R   0.084494 0.500000 0.584416 0.539926
C47   C     C_R   0.585556 0.500003 0.085500 0.549339
C48   C     C_R   0.915506 0.500000 0.415584 0.539925
C49   C     C_1   0.999992 0.863331 0.499966 -0.061180
C50   C     C_1   0.000007 0.136670 0.500034 -0.060418
C51   C     C_1   0.499991 0.363330 0.499988 -0.059881
C52   C     C_1   0.500009 0.636668 0.500012 -0.061713
C53   C     C_R   0.997524 0.000005 0.876524 0.559077
C54   C     C_R   0.002392 0.999988 0.123399 0.559136
C55   C     C_R   0.497584 0.500010 0.876579 0.559118
C56   C     C_R   0.502405 0.500005 0.123411 0.559126
C57   C     C_1   0.999993 0.820945 0.499960 -0.050725
C58   C     C_1   0.820923 0.999990 0.820849 -0.040368
C59   C     C_1   0.000006 0.179056 0.500041 -0.050289
C60   C     C_1   0.499990 0.320943 0.499984 -0.049946
C61   C     C_1   0.500010 0.679054 0.500016 -0.051071
C62   C     C_1   0.999995 0.770689 0.499959 -0.006175
C63   C     C_1   0.000005 0.229312 0.500040 -0.006166
C64   C     C_1   0.499991 0.270687 0.499980 -0.006079
C65   C     C_1   0.500009 0.729311 0.500019 -0.006258
C66   C     C_1   0.499993 0.228297 0.499979 -0.003426
C67   C     C_1   0.500007 0.771701 0.500021 -0.003468
C68   C     C_1   0.999996 0.728298 0.499963 -0.003418
C69   C     C_1   0.179077 0.000010 0.179152 -0.040373
C70   C     C_1   0.000003 0.271703 0.500036 -0.003480
C71   C     C_1   0.499995 0.178037 0.499979 -0.037133
C72   C     C_1   0.500004 0.821961 0.500021 -0.037115
C73   C     C_1   0.999998 0.678038 0.499972 -0.037078
C74   C     C_1   0.000002 0.321962 0.500028 -0.037173
C75   C     C_1   0.499998 0.135646 0.499983 -0.037250
C76   C     C_1   0.500002 0.864353 0.500017 -0.037210
C77   C     C_1   0.999999 0.635647 0.499980 -0.037184
C78   C     C_1   0.000001 0.364354 0.500019 -0.037279
C79   C     C_3   0.972622 0.957485 0.758185 -0.194062
C80   C     C_1   0.320923 0.499989 0.820848 -0.040373
C81   C     C_3   0.029236 0.041369 0.243505 -0.194253
C82   C     C_3   0.024135 0.955809 0.238849 -0.193688
C83   C     C_3   0.973828 0.043188 0.759269 -0.193945
C84   C     C_3   0.471132 0.458392 0.756829 -0.194229
C85   C     C_3   0.524359 0.544079 0.239035 -0.193689
C86   C     C_3   0.529039 0.458496 0.243347 -0.194262
C87   C     C_3   0.475444 0.543996 0.760761 -0.193733
C88   C     C_3   0.974014 0.956541 0.688033 0.184780
C89   C     C_3   0.027772 0.042582 0.313575 0.185439
C90   C     C_3   0.022958 0.955276 0.309230 0.183787
C91   C     C_1   0.679077 0.500009 0.179152 -0.040376
C92   C     C_3   0.975153 0.043972 0.689044 0.184445
C93   C     C_3   0.472584 0.457234 0.686744 0.185324
C94   C     C_3   0.523162 0.544640 0.309393 0.183839
C95   C     C_3   0.527583 0.457315 0.313430 0.185383
C96   C     C_3   0.476656 0.544578 0.690416 0.183897
C97   C     C_3   0.047556 0.999295 0.834793 -0.279856
C98   C     C_3   0.952481 0.003035 0.165277 -0.279941
C99   C     C_3   0.547531 0.497437 0.834744 -0.279920
C100  C     C_3   0.452473 0.497184 0.165267 -0.279933
C101  C     C_3   0.997864 0.000003 0.808552 -0.021992
C102  C     C_1   0.770668 0.999991 0.770524 -0.000721
C103  C     C_3   0.002079 0.000015 0.191398 -0.022012
C104  C     C_3   0.497905 0.499989 0.808587 -0.022004
C105  C     C_3   0.502087 0.499971 0.191406 -0.022008
C106  C     C_3   0.999031 0.999935 0.688830 0.085357
C107  C     C_3   0.000960 0.000297 0.311166 0.085398
C108  C     C_3   0.499037 0.499750 0.688833 0.085389
C109  C     C_3   0.500961 0.499714 0.311167 0.085394
C110  C     C_3   0.048422 0.999314 0.764406 -0.327448
C111  C     C_3   0.951630 0.002953 0.235677 -0.327474
C112  C     C_3   0.548386 0.497506 0.764347 -0.327466
Cu1   Cu    Cu3+1 0.000000 0.957500 0.000000 0.914692
Cu2   Cu    Cu3+1 0.500030 0.000000 0.562500 0.944945
Cu3   Cu    Cu3+1 0.999970 0.500000 0.437500 0.944946
Cu4   Cu    Cu3+1 0.000030 0.500000 0.562500 0.944943
Cu5   Cu    Cu3+1 0.000000 0.042500 0.000000 0.914297
Cu6   Cu    Cu3+1 0.500000 0.457500 0.000000 0.914200
Cu7   Cu    Cu3+1 0.500000 0.542500 0.000000 0.914802
Cu8   Cu    Cu3+1 0.957500 0.000000 0.457520 0.965288
Cu9   Cu    Cu3+1 0.042500 1.000000 0.542480 0.965234
Cu10  Cu    Cu3+1 0.457500 0.500000 0.457520 0.965253
Cu11  Cu    Cu3+1 0.542500 0.500000 0.542480 0.965241
Cu12  Cu    Cu3+1 0.499970 1.000000 0.437500 0.944955
H1    H     H_    0.988702 0.925821 0.792097 0.096368
H2    H     H_    0.065033 0.039421 0.262498 0.150661
H3    H     H_    0.059809 0.953224 0.257404 0.152022
H4    H     H_    0.938034 0.044040 0.740459 0.151378
H5    H     H_    0.435323 0.459987 0.737845 0.150725
H6    H     H_    0.560052 0.546489 0.257623 0.151949
H7    H     H_    0.564842 0.460268 0.262333 0.150695
H8    H     H_    0.439738 0.546230 0.742145 0.151888
H9    H     H_    0.994851 0.926638 0.693724 0.064273
H10   H     H_    0.008153 0.073351 0.308892 0.063825
H11   H     H_    0.000245 0.926867 0.302052 0.065155
H12   H     H_    0.014700 0.073706 0.210917 0.096149
H13   H     H_    0.996723 0.073321 0.695313 0.064545
H14   H     H_    0.492452 0.426637 0.691633 0.063902
H15   H     H_    0.500568 0.573144 0.302288 0.065102
H16   H     H_    0.507834 0.426630 0.308659 0.063861
H17   H     H_    0.499142 0.573181 0.697418 0.065034
H18   H     H_    0.065353 0.968489 0.870194 0.135302
H19   H     H_    0.936150 0.034673 0.131436 0.136149
H20   H     H_    0.932388 0.973711 0.127472 0.133757
H21   H     H_    0.066241 0.029560 0.871116 0.134672
H22   H     H_    0.564163 0.465962 0.868906 0.135961
H23   H     H_    0.005608 0.925392 0.202874 0.096347
H24   H     H_    0.432530 0.526606 0.127603 0.133888
H25   H     H_    0.435982 0.465626 0.131273 0.136024
H26   H     H_    0.567342 0.526958 0.872251 0.133961
H27   H     H_    0.066905 0.968593 0.766228 0.129861
H28   H     H_    0.934410 0.034366 0.235229 0.128661
H29   H     H_    0.931171 0.973453 0.231741 0.131609
H30   H     H_    0.067672 0.029587 0.767039 0.130476
H31   H     H_    0.565864 0.466228 0.765077 0.128873
H32   H     H_    0.431289 0.526836 0.231849 0.131536
H33   H     H_    0.434264 0.465911 0.235088 0.128742
H34   H     H_    0.990852 0.074402 0.793971 0.096337
H35   H     H_    0.568604 0.527165 0.768023 0.131414
H36   H     H_    0.918715 0.888957 0.644189 0.095118
H37   H     H_    0.935080 0.892796 0.578999 0.114434
H38   H     H_    0.878924 0.908574 0.547459 0.150441
H39   H     H_    0.069251 0.105029 0.424599 0.114418
H40   H     H_    0.085849 0.107751 0.359648 0.095031
H41   H     H_    0.124726 0.086800 0.455753 0.150091
H42   H     H_    0.073585 0.884088 0.349177 0.095145
H43   H     H_    0.057767 0.889626 0.414930 0.114313
H44   H     H_    0.114775 0.901449 0.446816 0.150999
H45   H     H_    0.485984 0.426185 0.789688 0.096185
H46   H     H_    0.937793 0.108475 0.581258 0.114396
H47   H     H_    0.921617 0.112960 0.646644 0.095036
H48   H     H_    0.881277 0.094191 0.549553 0.150610
H49   H     H_    0.415052 0.391577 0.641128 0.095020
H50   H     H_    0.431611 0.394507 0.576137 0.114416
H51   H     H_    0.375991 0.412255 0.544888 0.150155
H52   H     H_    0.558240 0.610182 0.415284 0.114320
H53   H     H_    0.574095 0.615621 0.349565 0.095120
H54   H     H_    0.615201 0.598122 0.447158 0.150922
H55   H     H_    0.585376 0.391911 0.359293 0.095055
H56   H     H_    0.505995 0.574581 0.203180 0.096382
H57   H     H_    0.568799 0.394732 0.424266 0.114437
H58   H     H_    0.624351 0.412731 0.455459 0.150156
H59   H     H_    0.441334 0.610000 0.584286 0.114342
H60   H     H_    0.425440 0.615336 0.649961 0.095153
H61   H     H_    0.384416 0.597686 0.552429 0.150928
H62   H     H_    0.514332 0.426224 0.210631 0.096152
H63   H     H_    0.493668 0.574581 0.796481 0.096373
H64   H     H_    0.936799 0.957695 0.739271 0.151074
O1    O     O_R   0.938020 0.964110 0.938040 -0.487413
O2    O     O_R   0.000010 0.035890 0.091160 -0.505334
O3    O     O_R   0.000010 0.964110 0.091160 -0.505638
O4    O     O_R   0.999990 0.035890 0.908840 -0.505506
O5    O     O_R   0.499990 0.464110 0.908840 -0.505350
O6    O     O_R   0.500010 0.535890 0.091160 -0.505652
O7    O     O_R   0.500010 0.464110 0.091160 -0.505315
O8    O     O_R   0.499990 0.535890 0.908840 -0.505610
O9    O     O_R   0.964100 0.938030 0.464100 -0.493118
O10   O     O_R   0.035900 0.061970 0.535900 -0.494108
O11   O     O_R   0.035900 0.938030 0.535900 -0.491583
O12   O     O_R   0.061980 0.035890 0.061960 -0.487503
O13   O     O_R   0.964100 0.061970 0.464100 -0.492675
O14   O     O_R   0.464100 0.438030 0.464100 -0.494025
O15   O     O_R   0.535900 0.561970 0.535900 -0.491627
O16   O     O_R   0.535900 0.438030 0.535900 -0.494094
O17   O     O_R   0.464100 0.561970 0.464100 -0.491708
O18   O     O_R   0.964110 0.000000 0.555280 -0.413140
O19   O     O_R   0.035890 0.000000 0.444720 -0.413275
O20   O     O_R   0.464110 0.500000 0.555280 -0.413234
O21   O     O_R   0.535890 0.500000 0.444720 -0.413253
O22   O     O_R   0.035850 0.000000 0.627010 -0.541771
O23   O     O_R   0.061980 0.964110 0.061960 -0.487154
O24   O     O_R   0.964150 0.000000 0.372990 -0.541743
O25   O     O_R   0.535850 0.500000 0.627010 -0.541757
O26   O     O_R   0.464150 0.500000 0.372990 -0.541753
O27   O     O_R   0.499940 0.061950 0.447200 -0.483499
O28   O     O_R   0.500060 0.938050 0.552800 -0.483483
O29   O     O_R   0.500060 0.061950 0.552800 -0.483521
O30   O     O_R   0.499940 0.938050 0.447200 -0.483502
O31   O     O_R   0.999940 0.561950 0.447200 -0.483495
O32   O     O_R   0.000060 0.438050 0.552800 -0.483536
O33   O     O_R   0.000060 0.561950 0.552800 -0.483467
O34   O     O_R   0.938020 0.035890 0.938040 -0.487392
O35   O     O_R   0.999940 0.438050 0.447200 -0.483507
O36   O     O_R   0.561950 0.000000 0.509180 -0.483356
O37   O     O_R   0.438050 0.000000 0.490820 -0.483360
O38   O     O_R   0.061950 0.500000 0.509180 -0.483358
O39   O     O_R   0.938050 0.500000 0.490820 -0.483361
O40   O     O_R   0.561950 0.000000 0.614710 -0.483398
O41   O     O_R   0.438050 0.000000 0.385290 -0.483397
O42   O     O_R   0.061950 0.500000 0.614710 -0.483396
O43   O     O_R   0.938050 0.500000 0.385290 -0.483398
O44   O     O_3   0.929003 0.954543 0.619397 -0.497974
O45   O     O_R   0.438020 0.464110 0.938040 -0.487523
O46   O     O_3   0.072804 0.042834 0.382311 -0.497445
O47   O     O_3   0.067809 0.950473 0.377521 -0.498780
O48   O     O_3   0.930186 0.047036 0.620510 -0.498250
O49   O     O_3   0.427551 0.456630 0.618023 -0.497537
O50   O     O_3   0.568028 0.549275 0.377712 -0.498731
O51   O     O_3   0.572617 0.456893 0.382157 -0.497499
O52   O     O_3   0.431777 0.549032 0.622069 -0.498689
O53   O     O_R   0.561980 0.535890 0.061960 -0.487208
O54   O     O_R   0.561980 0.464110 0.061960 -0.487507
O55   O     O_R   0.438020 0.535890 0.938040 -0.487213
O56   O     O_R   0.999990 0.964110 0.908840 -0.505423

loop_
_geom_bond_atom_site_label_1
_geom_bond_atom_site_label_2
_ccdc_geom_bond_type
Cu8   O24   S    
C21   C26   S    
C11   H47   S    
C94   H15   S    
C112  H35   S    
C15   H55   S    
C81   H2    S    
C37   O19   A    
C84   H5    S    
C19   C23   S    
C43   O32   A    
C17   C91   S    
C53   O56   A    
C83   H4    S    
C72   C76   T    
C111  H28   S    
C31   O11   A    
C82   H23   S    
C16   H59   S    
C57   C62   S    
Cu8   Cu9   S    
C43   C78   S    
C83   C92   S    
C3    H33   S    
C94   C109  S    
C100  C105  S    
C1    O1    A    
C38   O20   A    
Cu11  O16   S    
C50   C59   T    
Cu7   O8    S    
C30   C48   S    
C35   O22   A    
C3    C109  S    
C90   C107  S    
C37   C107  S    
C45   O41   A    
C52   C61   T    
C93   C108  S    
C81   C103  S    
C40   O29   A    
C90   H11   S    
C86   H7    S    
C98   C103  S    
C15   H58   S    
C15   O51   S    
C33   O14   A    
Cu4   O33   S    
C49   C57   T    
C39   O21   A    
C9    H39   S    
C67   C72   S    
C18   C102  T    
C32   O13   A    
C25   O23   A    
Cu6   O5    S    
C73   C77   T    
C24   C29   T    
Cu9   O11   S    
C14   H52   S    
C93   H14   S    
C96   H17   S    
Cu6   Cu7   S    
C48   O43   A    
C27   C44   S    
C94   O50   S    
Cu12  O36   S    
C93   O49   S    
C10   H43   S    
C65   C67   T    
C112  H31   S    
C15   H57   S    
C70   C74   S    
C32   O10   A    
C82   C103  S    
C58   C102  S    
Cu4   O32   S    
C42   O33   A    
C83   C101  S    
Cu3   O43   S    
Cu12  O41   S    
C39   O26   A    
Cu2   Cu12  S    
C82   H3    S    
C98   H19   S    
C55   O8    A    
C79   H1    S    
C13   C80   S    
C11   H48   S    
C89   H10   S    
Cu8   O13   S    
C46   O42   A    
Cu10  O17   S    
Cu3   O31   S    
Cu5   O34   S    
C97   H21   S    
C31   C49   S    
C85   C105  S    
C92   H13   S    
C3    C100  S    
C79   C88   S    
C41   O30   A    
C8    H37   S    
C34   O17   A    
C97   H18   S    
C99   H26   S    
Cu12  O30   S    
C28   C45   S    
C79   H64   S    
Cu4   O39   S    
Cu6   O54   S    
C20   C24   S    
C54   C103  S    
Cu1   O23   S    
Cu3   O38   S    
C110  H27   S    
C54   O3    A    
C53   C101  S    
C14   O50   S    
C41   O28   A    
C45   O37   A    
Cu10  O20   S    
C68   C73   S    
Cu9   O22   S    
C5    C69   T    
C55   C104  S    
C92   O48   S    
C96   C108  S    
C17   C21   T    
C108  C112  S    
C1    O34   A    
C7    C47   S    
C89   O46   S    
C95   H16   S    
C9    H40   S    
C43   O35   A    
C37   O24   A    
C110  H30   S    
Cu5   O4    S    
Cu2   O28   S    
C85   H6    S    
C56   O7    A    
C88   C106  S    
C85   C94   S    
C35   O18   A    
C6    C80   T    
C66   C71   S    
C63   C70   T    
C34   O15   A    
C10   H42   S    
Cu1   O56   S    
C7    C91   T    
C87   C96   S    
C89   C107  S    
Cu8   O9    S    
C46   O38   A    
C95   O51   S    
C23   C28   T    
Cu6   O7    S    
C111  H29   S    
C32   C50   S    
C96   O52   S    
Cu5   O12   S    
C11   H46   S    
C12   H51   S    
C56   O6    A    
C92   C106  S    
C12   O49   S    
C55   O5    A    
C99   H22   S    
C86   H62   S    
C22   C27   T    
Cu11  O25   S    
C95   C109  S    
C84   C104  S    
C5    C25   S    
C59   C63   S    
C86   C105  S    
Cu9   O19   S    
Cu2   O29   S    
C2    C69   S    
C98   H20   S    
C31   O9    A    
C56   C105  S    
C14   H54   S    
C81   H12   S    
C47   O53   A    
C106  C110  S    
Cu1   Cu5   S    
Cu3   O35   S    
C11   O48   S    
C48   O39   A    
C99   C104  S    
C98   C111  S    
C54   O2    A    
C13   C20   T    
C88   O44   S    
C9    O46   S    
C18   C22   S    
C36   O55   A    
C107  C111  S    
C44   O40   A    
C84   H45   S    
Cu7   O53   S    
C88   H9    S    
C47   O54   A    
C87   H63   S    
C16   H60   S    
C26   C30   T    
Cu1   O3    S    
Cu11  O15   S    
C100  H25   S    
C33   C51   S    
Cu1   O1    S    
Cu4   O42   S    
C33   O16   A    
C34   C52   S    
C82   C90   S    
C40   C75   S    
C62   C68   T    
C29   C46   S    
C60   C64   S    
C1    C4    S    
Cu8   O18   S    
Cu7   O6    S    
C9    H41   S    
C36   O45   A    
C81   C89   S    
C35   C106  S    
C8    H38   S    
C41   C76   S    
C71   C75   T    
C97   C110  S    
C8    O44   S    
Cu6   O45   S    
Cu10  O14   S    
C83   H34   S    
C86   C95   S    
C100  H24   S    
C85   H56   S    
C99   C112  S    
Cu11  O21   S    
C40   O27   A    
C42   O31   A    
C3    H32   S    
C87   H8    S    
C6    C36   S    
C90   O47   S    
C25   O12   A    
C84   C93   S    
C61   C65   S    
C38   C108  S    
C53   O4    A    
Cu9   O10   S    
C14   H53   S    
Cu5   O2    S    
Cu2   O40   S    
C87   C104  S    
Cu10  O26   S    
C39   C109  S    
C16   O52   S    
C42   C77   S    
C10   H44   S    
C74   C78   T    
C4    C58   T    
C12   H50   S    
C10   O47   S    
C79   C101  S    
C51   C60   T    
C38   O25   A    
Cu10  Cu11  S    
C16   H61   S    
Cu7   O55   S    
C97   C101  S    
C44   O36   A    
Cu3   Cu4   S    
C2    C19   T    
C64   C66   T    
C12   H49   S    
Cu2   O37   S    
Cu12  O27   S    
C8    H36   S    
