data_mof_unit_62393.cif
_audit_creation_date              2012-12-10T19:30:53-0500
_audit_creation_method            fapswitch 2.2
_symmetry_space_group_name_H-M    P1
_symmetry_Int_Tables_number       1
_space_group_crystal_system       triclinic
_cell_length_a                    17.878527
_cell_length_b                    16.598014
_cell_length_c                    23.255135
_cell_angle_alpha                 89.973919
_cell_angle_beta                  94.735269
_cell_angle_gamma                 90.039933
_cell_volume                      6877.35906464

loop_
_atom_site_label
_atom_site_type_symbol
_atom_type_description
_atom_site_fract_x
_atom_site_fract_y
_atom_site_fract_z
_atom_type_partial_charge
C1    C     C_R   0.355053 0.500002 0.499807 0.927169
C2    C     C_R   0.644972 0.500047 0.500153 0.927232
C3    C     C_R   0.563226 0.489947 0.239922 0.214798
C4    C     C_R   0.437699 0.492624 0.760413 0.214736
C5    C     C_R   0.564507 0.484586 0.300635 0.236024
C6    C     C_R   0.435738 0.487179 0.699675 0.236561
C7    C     C_R   0.498954 0.500685 0.327852 -0.322730
C8    C     C_R   0.501540 0.500659 0.672145 -0.323330
C9    C     C_R   0.430687 0.510180 0.294419 0.190847
C10   C     C_R   0.570315 0.507747 0.705244 0.191129
C11   C     C_R   0.429551 0.511401 0.234203 0.389780
C12   C     C_R   0.572037 0.508821 0.765483 0.390321
C13   C     C_R   0.497859 0.520512 0.207670 0.024345
C14   C     C_R   0.504364 0.520538 0.792404 0.024003
C15   C     C_R   0.844305 0.570034 0.476767 0.325992
C16   C     C_R   0.150128 0.430735 0.490527 0.318163
C17   C     C_R   0.155923 0.569343 0.523822 0.325732
C18   C     C_R   0.849707 0.430369 0.507732 0.317808
C19   C     C_R   0.765790 0.570228 0.479052 0.132459
C20   C     C_R   0.228041 0.430738 0.485495 0.133743
C21   C     C_R   0.234483 0.569485 0.521828 0.134808
C22   C     C_R   0.771845 0.430274 0.513041 0.136156
C23   C     C_R   0.728542 0.500422 0.498254 -0.153789
C24   C     C_R   0.271518 0.500313 0.501573 -0.153893
C25   C     C_R   0.885818 0.501231 0.493123 -0.131565
C26   C     C_R   0.114206 0.501115 0.506237 -0.131975
C27   C     C_R   0.500069 0.500092 0.390859 0.969329
C28   C     C_R   0.499921 0.500071 0.609131 0.971322
C29   C     C_1   0.966346 0.503592 0.497352 0.229003
C30   C     C_1   0.033684 0.503569 0.501983 0.228967
C31   C     C_R   0.544650 0.830216 0.541314 0.235854
C32   C     C_R   0.456937 0.169655 0.457846 0.252453
C33   C     C_R   0.455161 0.830265 0.458924 0.236269
C34   C     C_R   0.543139 0.169726 0.542212 0.251767
C35   C     C_R   0.540987 0.744461 0.542984 0.279051
C36   C     C_R   0.460270 0.255426 0.456467 0.316132
C37   C     C_R   0.458935 0.744539 0.457112 0.277444
C38   C     C_R   0.539734 0.255492 0.543564 0.315252
C39   C     C_R   0.499909 0.873898 0.500133 -0.154407
C40   C     C_R   0.500038 0.126026 0.500046 -0.158996
C41   C     C_1   0.499960 0.963022 0.500124 0.233500
C42   C     C_1   0.500004 0.036896 0.500095 0.235863
C43   C     C_R   0.567688 0.577201 0.883081 0.681623
C44   C     C_R   0.437263 0.580400 0.117163 0.681784
C45   C     C_R   0.437642 0.574452 0.874099 0.672708
C46   C     C_R   0.567028 0.571036 0.126103 0.672519
C47   C     C_R   0.433934 0.576070 0.934650 -0.166117
C48   C     C_R   0.570795 0.572434 0.065560 -0.166244
C49   C     C_R   0.502362 0.572275 0.969773 -0.106707
C50   C     C_R   0.502271 0.572245 0.030436 -0.106633
C51   C     C_R   0.570991 0.575111 0.943837 -0.160438
C52   C     C_R   0.433861 0.578630 0.056392 -0.160038
C53   C     C_R   0.365203 0.580835 0.960893 0.345498
C54   C     C_R   0.639664 0.573597 0.039330 0.345698
C55   C     C_R   0.365285 0.582950 0.021397 0.359524
C56   C     C_R   0.639683 0.575779 0.978835 0.359511
Cu1   Cu    Cu3+1 0.500000 0.580420 0.500000 0.980325
Cu2   Cu    Cu3+1 0.500000 0.419580 0.500000 1.002234
N1    N     N_R   0.503402 0.553961 0.851191 -0.449733
N2    N     N_R   0.500427 0.553867 0.148969 -0.449642
N3    N     N_R   0.500000 0.701220 0.500000 -0.249064
N4    N     N_R   0.500000 0.298780 0.500000 -0.254859
O1    O     O_R   0.391260 0.567930 0.500000 -0.577146
O2    O     O_R   0.608740 0.432070 0.500000 -0.563854
O3    O     O_R   0.608740 0.567930 0.500000 -0.577029
O4    O     O_R   0.391260 0.432070 0.500000 -0.565514
O5    O     O_R   0.499980 0.567930 0.417880 -0.578949
O6    O     O_R   0.500020 0.432070 0.582120 -0.572004
O7    O     O_R   0.500020 0.567930 0.582120 -0.578305
O8    O     O_R   0.499980 0.432070 0.417880 -0.571142
O9    O     O_2   0.624133 0.610993 0.856641 -0.400251
O10   O     O_2   0.382346 0.616786 0.143756 -0.401535
O11   O     O_2   0.379030 0.600411 0.838888 -0.423556
O12   O     O_2   0.626701 0.594204 0.161333 -0.422830
Cl1   Cl    Cl    0.277165 0.577413 0.919730 -0.366911
Cl2   Cl    Cl    0.727416 0.565438 0.080487 -0.367126
N5    N     N_2   0.582230 0.704650 0.589678 -0.405417
H1    H     H_    0.607325 0.650366 0.582976 0.300625
C57   C     C_3   0.560636 0.719777 0.647528 -0.421158
H2    H     H_    0.538316 0.664250 0.666054 0.209488
H3    H     H_    0.516542 0.766904 0.648097 0.223247
H4    H     H_    0.610666 0.739367 0.675443 0.268968
N6    N     N_2   0.419668 0.295294 0.409652 -0.409449
H5    H     H_    0.395807 0.349955 0.416845 0.305558
C58   C     C_3   0.442527 0.281578 0.351985 -0.484208
H6    H     H_    0.459627 0.338929 0.332606 0.216462
H7    H     H_    0.394361 0.256912 0.324334 0.259460
H8    H     H_    0.490435 0.238878 0.352060 0.234843
N7    N     N_2   0.417876 0.704843 0.410292 -0.404338
H9    H     H_    0.392759 0.650490 0.416888 0.301567
C59   C     C_3   0.439817 0.720223 0.352555 -0.416930
H10   H     H_    0.463486 0.665183 0.334437 0.209762
H11   H     H_    0.483032 0.768356 0.352050 0.222397
H12   H     H_    0.389700 0.738549 0.324263 0.269915
N8    N     N_2   0.580157 0.295429 0.590439 -0.410169
H13   H     H_    0.604232 0.350060 0.583321 0.306199
C60   C     C_3   0.557313 0.281435 0.648088 -0.480715
H14   H     H_    0.539526 0.338547 0.667336 0.216879
H15   H     H_    0.605683 0.257431 0.675833 0.260417
H16   H     H_    0.509850 0.238096 0.648022 0.233881
Cl3   Cl    Cl    0.277613 0.582643 0.052016 -0.314888
Cl4   Cl    Cl    0.727219 0.570866 0.948192 -0.315155
N9    N     N_2   0.623342 0.456332 0.211053 -0.352783
H17   H     H_    0.675232 0.455537 0.233843 0.334217
C61   C     C_3   0.605390 0.381719 0.180884 -0.560676
H18   H     H_    0.653973 0.362496 0.157417 0.255892
H19   H     H_    0.556368 0.389834 0.148826 0.226885
H20   H     H_    0.592821 0.333865 0.212120 0.232768
N10   N     N_2   0.376546 0.461822 0.789564 -0.353232
H21   H     H_    0.324533 0.463217 0.766976 0.334229
C62   C     C_3   0.391755 0.386626 0.819729 -0.560344
H22   H     H_    0.342658 0.369701 0.843440 0.255716
H23   H     H_    0.441276 0.392709 0.851576 0.226724
H24   H     H_    0.402168 0.338100 0.788461 0.233488
Cl5   Cl    Cl    0.647286 0.456270 0.342779 -0.593760
Cl6   Cl    Cl    0.351769 0.461959 0.657872 -0.595146
Cl7   Cl    Cl    0.345826 0.519175 0.327630 -0.595796
Cl8   Cl    Cl    0.655034 0.513980 0.671552 -0.596216
Cl9   Cl    Cl    0.347290 0.474272 0.195301 -0.395363
Cl10  Cl    Cl    0.653082 0.467950 0.803771 -0.396068
Cl11  Cl    Cl    0.891098 0.655587 0.451684 -0.499710
Cl12  Cl    Cl    0.096910 0.341354 0.477889 -0.478426
Cl13  Cl    Cl    0.109351 0.654212 0.549994 -0.499233
Cl14  Cl    Cl    0.902616 0.340502 0.518472 -0.478635
N11   N     N_2   0.723911 0.639532 0.459833 -0.398510
H25   H     H_    0.733729 0.657945 0.418767 0.305657
C63   C     C_3   0.725855 0.705579 0.500587 -0.463954
H26   H     H_    0.679337 0.747856 0.487980 0.219087
H27   H     H_    0.779479 0.739196 0.500656 0.268755
H28   H     H_    0.719641 0.683175 0.544897 0.231275
N12   N     N_2   0.262010 0.360799 0.463638 -0.416938
H29   H     H_    0.252633 0.309494 0.487026 0.314208
C64   C     C_3   0.246313 0.348725 0.402054 -0.514944
H30   H     H_    0.271908 0.291434 0.388923 0.254372
H31   H     H_    0.269915 0.398983 0.378120 0.264530
H32   H     H_    0.185223 0.345059 0.389634 0.273963
N13   N     N_2   0.276648 0.637922 0.542513 -0.396556
H33   H     H_    0.266410 0.655042 0.583759 0.307316
C65   C     C_3   0.275808 0.705298 0.502891 -0.463977
H34   H     H_    0.322579 0.746836 0.516535 0.217575
H35   H     H_    0.222397 0.739213 0.502960 0.268217
H36   H     H_    0.282483 0.684322 0.458317 0.231376
N14   N     N_2   0.737732 0.359594 0.533768 -0.415176
H37   H     H_    0.746547 0.309201 0.509302 0.313968
C66   C     C_3   0.753971 0.345050 0.595033 -0.514116
H38   H     H_    0.727795 0.287571 0.607237 0.255681
H39   H     H_    0.731391 0.394672 0.620138 0.264708
H40   H     H_    0.815091 0.340204 0.606956 0.273467
Cl15  Cl    Cl    0.607735 0.883054 0.590445 -0.489109
Cl16  Cl    Cl    0.396258 0.116682 0.407056 -0.491561
Cl17  Cl    Cl    0.391975 0.883107 0.409890 -0.487362
Cl18  Cl    Cl    0.603892 0.116857 0.592996 -0.492848

loop_
_geom_bond_atom_site_label_1
_geom_bond_atom_site_label_2
_ccdc_geom_bond_type
Cu2   N4    S    
C4    N10   S    
C9    Cl7   S    
C41   C42   T    
N8    H13   S    
C21   N13   S    
C2    O3    A    
C11   Cl9   S    
C60   H16   S    
C60   H14   S    
C39   C41   S    
C13   N2    S    
N5    H1    S    
C15   C19   A    
C14   N1    S    
C61   H19   S    
Cu2   O4    S    
C33   C39   A    
C34   C40   A    
C17   C26   A    
C32   C36   A    
C28   O6    A    
C44   N2    A    
N10   C62   S    
C66   H38   S    
C31   Cl15  S    
C65   H36   S    
C15   C25   A    
C36   N6    S    
N14   H37   S    
N14   C66   S    
C11   C13   A    
C7    C27   S    
C45   O11   S    
C51   C56   A    
C45   C47   A    
C35   N5    S    
C16   Cl12  S    
N9    H17   S    
C60   H15   S    
C12   Cl10  S    
C17   Cl13  S    
C20   C24   A    
C49   C51   A    
C38   N8    S    
C64   H32   S    
C50   C52   A    
N7    C59   S    
C3    C13   A    
C52   C55   A    
C43   N1    A    
C47   C53   A    
C44   C52   A    
C53   C55   A    
C34   C38   A    
C5    Cl5   S    
C25   C29   S    
C53   Cl1   S    
C18   C25   A    
Cu1   O5    S    
C36   N4    A    
C1    O1    A    
C66   H39   S    
C2    O2    A    
Cu1   O1    S    
C46   C48   A    
C58   H7    S    
Cu2   O2    S    
C61   H20   S    
C54   C56   A    
C4    C6    A    
C33   Cl17  S    
C59   H10   S    
C5    C7    A    
C34   Cl18  S    
Cu2   O8    S    
C6    C8    A    
C3    C5    A    
C58   H6    S    
C19   N11   S    
C17   C21   A    
C22   N14   S    
C48   C54   A    
C19   C23   A    
C63   H27   S    
C29   C30   T    
C10   Cl8   S    
C59   H11   S    
N13   C65   S    
N6    H5    S    
C16   C20   A    
C28   O7    A    
C1    O4    A    
N5    C57   S    
C62   H23   S    
N11   C63   S    
C9    C11   A    
C6    Cl6   S    
C27   O8    A    
C10   C12   A    
C54   Cl2   S    
Cu2   O6    S    
N6    C58   S    
C12   C14   A    
C26   C30   S    
N11   H25   S    
C8    C28   S    
N9    C61   S    
C31   C35   A    
C20   N12   S    
N12   H29   S    
C46   O12   S    
C66   H40   S    
C57   H3    S    
C61   H18   S    
C58   H8    S    
C3    N9    S    
C7    C9    A    
C45   N1    A    
C43   O9    S    
C15   Cl11  S    
C62   H22   S    
C46   N2    A    
C18   C22   A    
Cu1   O3    S    
C40   C42   S    
N12   C64   S    
C16   C26   A    
C57   H4    S    
C37   N3    A    
C65   H34   S    
N8    C60   S    
Cu1   N3    S    
C47   C49   A    
N13   H33   S    
C55   Cl3   S    
C37   N7    S    
C63   H28   S    
C56   Cl4   S    
N10   H21   S    
C59   H12   S    
C65   H35   S    
C43   C51   A    
Cu1   Cu2   S    
C64   H30   S    
C35   N3    A    
C48   C50   A    
C31   C39   A    
C44   O10   S    
C62   H24   S    
C32   C40   A    
C4    C14   A    
C33   C37   A    
C27   O5    A    
C57   H2    S    
C32   Cl16  S    
C1    C24   S    
C8    C10   A    
C49   C50   A    
C21   C24   A    
C2    C23   S    
C64   H31   S    
C22   C23   A    
Cu1   O7    S    
N7    H9    S    
C63   H26   S    
C18   Cl14  S    
C38   N4    A    
