data_mof_unit_24298.cif
_audit_creation_date              2012-12-11T15:08:38-0500
_audit_creation_method            fapswitch 2.2
_symmetry_space_group_name_H-M    P1
_symmetry_Int_Tables_number       1
_space_group_crystal_system       triclinic
_cell_length_a                    26.870227
_cell_length_b                    7.086868
_cell_length_c                    12.038371
_cell_angle_alpha                 89.766884
_cell_angle_beta                  103.727621
_cell_angle_gamma                 87.782565
_cell_volume                      2225.05772719

loop_
_atom_site_label
_atom_site_type_symbol
_atom_type_description
_atom_site_fract_x
_atom_site_fract_y
_atom_site_fract_z
_atom_type_partial_charge
O1    O     O_R   0.437360 0.505910 0.042120 -0.534693
O2    O     O_R   0.562640 0.005910 0.957880 -0.542589
O3    O     O_R   0.542480 0.176660 0.157100 -0.535086
O4    O     O_R   0.457520 0.676660 0.842900 -0.520697
C1    C     C_R   0.556327 0.341545 0.198677 0.824301
C2    C     C_R   0.443252 0.847497 0.801999 0.843477
O5    O     O_R   0.436520 0.176250 0.054800 -0.549804
O6    O     O_R   0.563480 0.676250 0.945200 -0.540911
O7    O     O_R   0.455920 0.005040 0.854840 -0.536177
O8    O     O_R   0.544080 0.505040 0.145160 -0.518377
C3    C     C_R   0.417617 0.348125 0.063684 0.710460
C4    C     C_R   0.582334 0.841498 0.936595 0.689581
O9    O     O_3   0.506490 0.338900 0.934520 -0.377352
O10   O     O_3   0.493510 0.838900 0.065480 -0.379450
V1    V     V_3+5 0.498800 0.064400 0.012150 1.607936
V2    V     V_3+5 0.501200 0.564400 0.987850 1.639910
C5    C     C_R   0.683732 0.730631 0.777494 -0.166253
C6    C     C_R   0.317084 0.516987 0.215732 -0.166457
H1    H     H_    0.685664 0.667930 0.696435 0.175628
H2    H     H_    0.315391 0.590838 0.293634 0.178204
C7    C     C_R   0.632350 0.836608 0.906652 -0.125398
C8    C     C_R   0.368025 0.371035 0.095938 -0.129281
C9    C     C_R   0.866814 0.970223 0.200991 -0.081401
C10   C     C_R   0.132600 0.286660 0.793002 -0.096254
C11   C     C_R   0.820736 0.047613 0.216645 -0.103090
C12   C     C_R   0.178440 0.278968 0.758015 -0.138108
C13   C     C_R   0.775582 0.029162 0.133453 0.634216
C14   C     C_R   0.224502 0.319620 0.833693 0.712607
C15   C     C_R   0.773656 0.905028 0.040807 -0.016523
C16   C     C_R   0.226622 0.353978 0.950714 -0.040027
C17   C     C_R   0.821387 0.842530 0.018079 -0.056030
C18   C     C_R   0.179130 0.382952 0.983071 -0.080106
C19   C     C_R   0.726452 0.854575 0.964487 0.012492
C20   C     C_R   0.273852 0.375484 0.034803 0.008598
C21   C     C_R   0.728747 0.772130 0.858072 -0.003748
C22   C     C_R   0.271890 0.464938 0.139202 -0.013140
C23   C     C_R   0.776041 0.727328 0.833230 0.675750
C24   C     C_R   0.224884 0.498281 0.167733 0.678578
C25   C     C_R   0.821446 0.756517 0.913107 -0.176372
C26   C     C_R   0.179482 0.450778 0.092923 -0.153214
C27   C     C_R   0.677363 0.870685 0.991415 -0.057680
C28   C     C_R   0.322893 0.307504 0.022278 -0.027527
C29   C     C_R   0.635900 0.768989 0.799198 -0.082911
C30   C     C_R   0.364668 0.478363 0.192160 -0.086989
C31   C     C_R   0.868204 0.880042 0.097453 -0.066461
C32   C     C_R   0.132123 0.346564 0.904207 -0.064031
H3    H     H_    0.820344 0.134069 0.290315 0.124293
H4    H     H_    0.178337 0.248186 0.669787 0.137868
H5    H     H_    0.856701 0.714016 0.890114 0.146205
H6    H     H_    0.144374 0.474107 0.120984 0.140578
C33   C     C_R   0.091528 0.850389 0.311581 -0.116440
C34   C     C_R   0.908973 0.374446 0.686883 -0.115403
C35   C     C_R   0.408317 0.872706 0.688130 -0.323424
C36   C     C_R   0.591187 0.330835 0.313485 -0.311111
C37   C     C_R   0.106218 0.758284 0.510419 -0.036866
C38   C     C_R   0.892327 0.492614 0.492103 -0.037349
C39   C     C_R   0.073266 0.784204 0.403112 -0.143932
C40   C     C_R   0.926124 0.454461 0.597143 -0.133414
C41   C     C_R   0.143500 0.894097 0.327526 0.029281
C42   C     C_R   0.857249 0.326514 0.669920 0.032294
C43   C     C_R   0.176934 0.882038 0.439567 0.038590
C44   C     C_R   0.823298 0.348229 0.558693 0.040566
C45   C     C_R   0.157995 0.802295 0.528945 -0.108866
C46   C     C_R   0.840792 0.445627 0.473097 -0.102900
C47   C     C_R   0.228914 0.938831 0.465739 -0.143262
C48   C     C_R   0.771956 0.285406 0.530835 -0.148253
C49   C     C_R   0.264337 0.868518 0.567010 -0.167748
C50   C     C_R   0.735305 0.360737 0.432497 -0.167872
C51   C     C_R   0.243319 0.793251 0.654475 0.690181
C52   C     C_R   0.754951 0.456054 0.349103 0.678385
C53   C     C_R   0.190915 0.767331 0.636294 0.475032
C54   C     C_R   0.806733 0.494982 0.369096 0.470596
C55   C     C_R   0.245114 0.080589 0.401454 0.665253
C56   C     C_R   0.757743 0.133730 0.590787 0.660880
C57   C     C_R   0.296430 0.118789 0.418604 -0.134240
C58   C     C_R   0.706992 0.091040 0.575633 -0.134546
C59   C     C_R   0.333118 0.025757 0.504404 -0.145026
C60   C     C_R   0.668967 0.186107 0.494171 -0.148312
C61   C     C_R   0.318173 0.897867 0.580811 0.021046
C62   C     C_R   0.681905 0.320178 0.418287 0.022457
C63   C     C_R   0.384517 0.070136 0.518265 -0.175281
C64   C     C_R   0.618171 0.137301 0.484131 -0.178743
C65   C     C_R   0.421475 0.999313 0.611292 0.600784
C66   C     C_R   0.579818 0.205564 0.393343 0.602010
C67   C     C_R   0.357970 0.809387 0.667392 0.610052
C68   C     C_R   0.640557 0.402198 0.332254 0.602861
H7    H     H_    0.307376 0.227315 0.366586 0.148744
H8    H     H_    0.697519 0.976908 0.625256 0.148480
H9    H     H_    0.091114 0.700986 0.578728 0.171389
H10   H     H_    0.906544 0.562561 0.426293 0.170742
H11   H     H_    0.033542 0.747828 0.390635 0.132984
H12   H     H_    0.965427 0.496478 0.610386 0.132600
H13   H     H_    0.395668 0.169100 0.460515 0.176784
H14   H     H_    0.608596 0.036103 0.542789 0.175614
O11   O     O_R   0.955980 0.206520 0.854760 -0.532941
O12   O     O_R   0.044020 0.706520 0.145240 -0.543271
O13   O     O_R   0.063490 0.536770 0.945200 -0.537898
O14   O     O_R   0.936510 0.036770 0.054800 -0.539260
C69   C     C_R   0.082807 0.365223 0.938082 0.696267
C70   C     C_R   0.917318 0.871766 0.062619 0.690700
O15   O     O_R   0.957530 0.536190 0.842880 -0.543948
O16   O     O_R   0.042470 0.036190 0.157120 -0.534282
O17   O     O_R   0.937350 0.707210 0.042130 -0.540987
O18   O     O_R   0.062650 0.207210 0.957870 -0.536075
C71   C     C_R   0.943590 0.370573 0.801906 0.684726
C72   C     C_R   0.056339 0.865288 0.197837 0.686635
O19   O     O_3   0.993540 0.373870 0.065440 -0.375611
O20   O     O_3   0.006460 0.873870 0.934560 -0.371660
V3    V     V_3+5 0.001200 0.648440 0.987860 1.493915
V4    V     V_3+5 0.998800 0.148440 0.012140 1.522618
C73   C     C_1   0.590718 0.728693 0.711450 0.318243
N1    N     N_1   0.554577 0.696437 0.641197 -0.252679
C74   C     C_1   0.409971 0.542246 0.271324 0.316494
N2    N     N_1   0.446236 0.593309 0.334717 -0.266697
F1    F     F_    0.349624 0.658897 0.729491 -0.589549
F2    F     F_    0.645944 0.553903 0.268595 -0.623072
F3    F     F_    0.470036 0.060083 0.629114 -0.638950
F4    F     F_    0.531863 0.140318 0.379221 -0.636548
C75   C     C_1   0.162467 0.922811 0.225517 0.444109
N3    N     N_1   0.177233 0.945544 0.143767 -0.336995
C76   C     C_1   0.838368 0.289174 0.771135 0.445149
N4    N     N_1   0.823574 0.259861 0.852131 -0.335961
F5    F     F_    0.270990 0.768436 0.763391 -0.563227
F6    F     F_    0.727171 0.488703 0.240965 -0.559469
F7    F     F_    0.210869 0.203001 0.334061 -0.679613
F8    F     F_    0.793335 0.009569 0.653023 -0.675746
F9    F     F_    0.778397 0.650863 0.731238 -0.684306
F10   F     F_    0.223036 0.569678 0.271264 -0.682577
C77   C     C_1   0.672229 0.890768 0.108243 0.532339
N5    N     N_1   0.667823 0.908415 0.201042 -0.236402
C78   C     C_1   0.328248 0.152975 0.947278 0.418354
N6    N     N_1   0.333279 0.029074 0.888216 -0.240445
C79   C     C_1   0.913066 0.002606 0.287480 0.321072
N7    N     N_1   0.950005 0.028984 0.356806 -0.351895
C80   C     C_1   0.085970 0.242663 0.710916 0.320464
N8    N     N_1   0.048696 0.207004 0.645106 -0.349911
F11   F     F_    0.736516 0.154634 0.135766 -0.658194
F12   F     F_    0.265009 0.348312 0.787473 -0.634127
F13   F     F_    0.172240 0.707053 0.725141 -0.668711
F14   F     F_    0.823755 0.580567 0.284649 -0.669241

loop_
_geom_bond_atom_site_label_1
_geom_bond_atom_site_label_2
_ccdc_geom_bond_type
C50   C62   A    
C48   C50   A    
C32   C69   S    
C9    C31   A    
C13   C15   A    
O19   V3    S    
C73   N1    T    
O1    C3    A    
C46   C54   A    
O2    C4    A    
C2    O7    A    
C36   C66   A    
C80   N8    T    
C56   F8    S    
O5    C3    A    
C13   F11   S    
C56   C58   A    
O14   V4    S    
C68   F2    S    
C21   C23   A    
C58   C60   A    
C77   N5    T    
C60   C62   A    
C51   F5    S    
O15   V3    S    
C48   C56   A    
C15   C19   A    
C47   C55   A    
O20   V3    S    
C42   C44   A    
C43   C45   A    
C44   C46   A    
C34   C42   A    
C63   C65   A    
C7    C29   A    
C8    C30   A    
C38   C40   A    
C20   C28   A    
C47   C49   A    
C37   C45   A    
C62   C68   A    
C38   C46   A    
C28   C78   S    
C33   C39   A    
O11   C71   A    
C58   H8    S    
C20   C22   A    
C12   H4    S    
O5    V1    S    
C69   O18   A    
O6    V2    S    
C24   C26   A    
C55   C57   A    
C29   C73   S    
C12   C14   A    
O13   C69   A    
C59   C61   A    
O15   C71   A    
C41   C43   A    
C51   C53   A    
C16   C20   A    
C1    C36   S    
C67   F1    S    
C44   C48   A    
C49   C61   A    
O4    C2    A    
C36   C68   A    
C9    C79   S    
C5    H1    S    
C53   F13   S    
C4    C7    S    
C31   C70   S    
C70   O17   A    
C49   C51   A    
O4    V2    S    
C5    C29   A    
C6    C30   A    
C27   C77   S    
C63   H13   S    
C60   C64   A    
C55   F7    S    
C59   C63   A    
O6    C4    A    
C14   F12   S    
O1    V2    S    
O2    V1    S    
C57   C59   A    
C76   N4    T    
C34   C40   A    
C7    C27   A    
C10   C80   S    
C57   H7    S    
C25   H5    S    
C45   C53   A    
C34   C71   S    
C64   C66   A    
C37   C39   A    
C66   F4    S    
C79   N7    T    
O19   V4    S    
O16   V4    S    
C33   C41   A    
C2    C35   S    
C78   N6    T    
C61   C67   A    
C18   C26   A    
O3    V1    S    
O18   V4    S    
C74   N2    T    
O12   C72   A    
C11   H3    S    
C41   C75   S    
C39   H11   S    
C52   C54   A    
C18   C32   A    
C10   C12   A    
O3    C1    A    
O11   V4    S    
C30   C74   S    
C24   F10   S    
C75   N3    T    
C14   C16   A    
C11   C13   A    
O12   V3    S    
C3    C8    S    
O14   C70   A    
O17   V3    S    
C35   C65   A    
C19   C27   A    
C65   F3    S    
C22   C24   A    
O13   V3    S    
O7    V1    S    
C10   C32   A    
C1    O8    A    
C15   C17   A    
O8    V2    S    
C16   C18   A    
C8    C28   A    
C6    C22   A    
C33   C72   S    
C26   H6    S    
C38   H10   S    
C19   C21   A    
O20   V4    S    
O16   C72   A    
C6    H2    S    
C9    C11   A    
C43   C47   A    
C42   C76   S    
C37   H9    S    
C52   F6    S    
C54   F14   S    
C23   C25   A    
C17   C31   A    
O9    V2    S    
C17   C25   A    
C50   C52   A    
O10   V1    S    
C64   H14   S    
C35   C67   A    
C5    C21   A    
C40   H12   S    
C23   F9    S    
