data_mof_unit_26700.cif
_audit_creation_date              2012-12-10T17:05:17-0500
_audit_creation_method            fapswitch 2.2
_symmetry_space_group_name_H-M    P1
_symmetry_Int_Tables_number       1
_space_group_crystal_system       triclinic
_cell_length_a                    10.026658
_cell_length_b                    10.629787
_cell_length_c                    15.364539
_cell_angle_alpha                 89.260851
_cell_angle_beta                  67.021989
_cell_angle_gamma                 87.765152
_cell_volume                      1506.48652159

loop_
_atom_site_label
_atom_site_type_symbol
_atom_type_description
_atom_site_fract_x
_atom_site_fract_y
_atom_site_fract_z
_atom_type_partial_charge
C1    C     C_R   0.504468 0.736349 0.487992 0.828674
C2    C     C_R   0.744680 0.500715 0.019347 -0.036458
C3    C     C_R   0.602150 0.545280 0.077239 0.058770
C4    C     C_R   0.408681 0.502500 0.676700 0.896734
C5    C     C_R   0.844497 0.472562 0.062286 0.656494
C6    C     C_R   0.801134 0.476736 0.160868 -0.141568
C7    C     C_R   0.558758 0.541220 0.175505 -0.214620
C8    C     C_2   0.612224 0.068585 0.433865 0.674809
C9    C     C_2   0.510656 0.128937 0.508538 -0.296792
C10   C     C_2   0.631130 0.932178 0.431596 -0.299106
C11   C     C_2   0.510044 0.866038 0.459872 0.281681
C12   C     C_R   0.427745 0.570383 0.905217 0.023314
C13   C     C_2   0.112134 0.432503 0.442184 -0.065872
C14   C     C_2   0.959969 0.426723 0.446249 -0.123437
C15   C     C_R   0.501562 0.262308 0.502570 1.019026
C16   C     C_R   0.592175 0.500413 0.322701 0.905596
C17   C     C_R   0.351189 0.529612 0.777887 -0.029453
C18   C     C_R   0.654147 0.506314 0.218280 -0.227043
C19   C     C_R   0.195286 0.659164 0.910729 0.044779
C20   C     C_R   0.227115 0.606974 0.821032 -0.250824
C21   C     C_R   0.442793 0.503850 0.824250 -0.086806
C22   C     C_2   0.430716 0.070770 0.602649 0.447515
C23   C     C_R   0.294449 0.636506 0.955731 0.005631
C24   C     C_2   0.780600 0.874924 0.394728 0.529152
C25   C     C_2   0.912862 0.451240 0.200518 0.594883
C26   C     C_2   0.924874 0.429999 0.857288 0.543829
C27   C     C_2   0.065166 0.744578 0.948439 0.552898
C28   C     C_2   0.745257 0.565505 0.776755 0.363054
C29   C     C_R   0.540277 0.564187 0.939440 0.076890
C30   C     C_R   0.502630 0.584731 0.036432 0.004036
C31   C     C_R   0.366102 0.644382 0.089232 -0.287588
C32   C     C_R   0.265170 0.672253 0.049415 0.667114
C33   C     C_R   0.687864 0.535936 0.879907 -0.087569
C34   C     C_R   0.785478 0.492039 0.920094 -0.146248
F1    F     F_    0.134530 0.722796 0.106958 -0.628953
F2    F     F_    0.987510 0.450074 0.009001 -0.629969
F3    F     F_    0.697136 0.134007 0.356266 -0.609445
F4    F     F_    0.381987 0.923124 0.466452 -0.616816
H1    H     H_    0.195740 0.375483 0.388985 0.187120
H2    H     H_    0.801496 0.778274 0.369875 0.070472
H3    H     H_    0.917939 0.509960 0.256144 0.056121
H4    H     H_    0.994506 0.475381 0.792924 0.007261
H5    H     H_    0.968495 0.722422 0.936946 0.027516
H6    H     H_    0.829650 0.506521 0.725877 0.037387
H7    H     H_    0.068437 0.546996 0.552936 0.164472
H8    H     H_    0.940437 0.359202 0.400596 0.202807
H9    H     H_    0.872110 0.567586 0.538214 0.194647
H10   H     H_    0.447294 0.560781 0.221014 0.181512
H11   H     H_    0.159963 0.633123 0.782464 0.132268
H12   H     H_    0.532537 0.436659 0.792760 0.140019
H13   H     H_    0.335266 0.674718 0.161371 0.188603
H14   H     H_    0.461057 0.977414 0.619478 0.075590
N1    N     N_2   0.148330 0.498670 0.499030 -0.188622
N2    N     N_2   0.852680 0.498640 0.499000 -0.198254
O1    O     O_R   0.386950 0.680940 0.500010 -0.540987
O2    O     O_2   0.883300 0.937137 0.389520 -0.471950
O3    O     O_2   0.003521 0.365609 0.169350 -0.463376
O4    O     O_2   0.958973 0.324026 0.874700 -0.435398
O5    O     O_2   0.067851 0.844509 0.985853 -0.447440
O6    O     O_2   0.699762 0.658486 0.747961 -0.534528
O7    O     O_R   0.613110 0.680900 0.499990 -0.657020
O8    O     O_R   0.322330 0.500030 0.632270 -0.609324
O9    O     O_R   0.548480 0.499990 0.632240 -0.589241
O10   O     O_R   0.386890 0.319100 0.500010 -0.571150
O11   O     O_R   0.613050 0.319060 0.499990 -0.596650
O12   O     O_R   0.451520 0.500010 0.367760 -0.607170
O13   O     O_R   0.677670 0.499970 0.367730 -0.642378
O14   O     O_2   0.331145 0.128790 0.663659 -0.506840
Zn1   Zn    Zn3+2 0.349000 0.500030 0.500020 1.017204
Zn2   Zn    Zn3+2 0.651000 0.499970 0.499980 0.981017

loop_
_geom_bond_atom_site_label_1
_geom_bond_atom_site_label_2
_ccdc_geom_bond_type
O7    Zn2   S    
C11   F4    S    
C19   C23   A    
C15   O10   A    
C32   F1    S    
C20   H11   S    
C27   H5    S    
C12   C29   A    
C3    C30   A    
C19   C27   S    
N2    Zn2   S    
C13   N1    D    
C31   C32   A    
C1    C11   S    
O9    Zn2   S    
C30   C31   A    
O13   Zn2   S    
N1    Zn1   S    
C7    H10   S    
C7    C18   A    
C15   O11   A    
C33   C34   A    
C9    C15   S    
H7    N1    S    
C14   H8    S    
C16   O13   A    
C27   O5    D    
O10   Zn1   S    
C23   C32   A    
C26   O4    D    
C4    O9    A    
C2    C34   A    
O1    Zn1   S    
C29   C30   A    
C25   O3    D    
O12   Zn1   S    
H9    N2    S    
C4    C17   S    
O8    Zn1   S    
C8    C10   S    
C21   H12   S    
C14   N2    D    
C26   C34   S    
C28   C33   S    
C2    C3    A    
C3    C7    A    
C28   O6    D    
C1    O1    A    
C5    C6    A    
C6    C18   A    
C9    C22   S    
C13   H1    S    
C2    C5    A    
C24   O2    D    
C10   C11   D    
O11   Zn2   S    
C6    C25   S    
C5    F2    S    
C4    O8    A    
C17   C20   A    
C16   O12   A    
C26   H4    S    
C22   H14   S    
C8    F3    S    
C25   H3    S    
C24   H2    S    
C12   C23   A    
C22   O14   D    
C10   C24   S    
C13   C14   S    
C12   C21   A    
C28   H6    S    
C16   C18   S    
C17   C21   A    
C19   C20   A    
C29   C33   A    
C31   H13   S    
C8    C9    D    
C1    O7    A    
