data_mof_unit_23637.cif
_audit_creation_date              2012-12-10T19:24:56-0500
_audit_creation_method            fapswitch 2.2
_symmetry_space_group_name_H-M    P1
_symmetry_Int_Tables_number       1
_space_group_crystal_system       triclinic
_cell_length_a                    15.715048
_cell_length_b                    10.506636
_cell_length_c                    9.795767
_cell_angle_alpha                 90.622056
_cell_angle_beta                  89.595453
_cell_angle_gamma                 90.029987
_cell_volume                      1617.26571441

loop_
_atom_site_label
_atom_site_type_symbol
_atom_type_description
_atom_site_fract_x
_atom_site_fract_y
_atom_site_fract_z
_atom_type_partial_charge
C1    C     C_R   0.501818 0.257857 0.499160 0.871340
C2    C     C_R   0.498517 0.742172 0.500778 0.868506
C3    C     C_3   0.579943 0.954592 0.475484 -0.269644
C4    C     C_3   0.420899 0.045440 0.523997 -0.261537
C5    C     C_3   0.498596 0.876992 0.501802 -0.073171
C6    C     C_3   0.502193 0.123058 0.497806 -0.073773
C7    C     C_3   0.473791 0.963983 0.620678 0.308022
C8    C     C_3   0.527060 0.036147 0.378828 0.308574
C9    C     C_3   0.504724 0.384517 0.047626 -0.139764
C10   C     C_3   0.495448 0.615574 0.952594 -0.188283
C11   C     C_3   0.569054 0.447833 0.949555 -0.128690
C12   C     C_3   0.431072 0.552248 0.050638 -0.182146
C13   C     C_3   0.437052 0.438146 0.953742 0.338043
C14   C     C_3   0.562986 0.561818 0.046741 0.337028
C15   C     C_R   0.338188 0.499790 0.500401 0.897644
C16   C     C_R   0.661813 0.500231 0.499602 0.891586
C17   C     C_3   0.971610 0.387383 0.534153 0.292092
C18   C     C_3   0.028391 0.612739 0.465952 0.290870
C19   C     C_3   0.028611 0.411496 0.408804 -0.214731
C20   C     C_3   0.971387 0.588625 0.591302 -0.215622
C21   C     C_1   0.249291 0.499130 0.501332 -0.198069
C22   C     C_1   0.750709 0.500934 0.498697 -0.181675
C23   C     C_3   0.027033 0.471305 0.627426 -0.248400
C24   C     C_3   0.972968 0.528817 0.372679 -0.245170
C25   C     C_3   0.083144 0.498259 0.501267 0.105870
C26   C     C_3   0.916857 0.501862 0.498835 0.104391
C27   C     C_1   0.173998 0.498590 0.501637 -0.064385
C28   C     C_1   0.826003 0.501509 0.498433 -0.060800
C29   C     C_3   0.554592 0.042961 0.597340 -0.209608
C30   C     C_3   0.446261 0.957127 0.402132 -0.215656
H1    H     H_    0.053472 0.338265 0.336390 0.143537
H2    H     H_    0.946522 0.661844 0.663726 0.143690
H3    H     H_    0.949452 0.554654 0.270040 0.148886
H4    H     H_    0.050551 0.445475 0.730066 0.146060
H5    H     H_    0.643817 0.913688 0.453788 0.144706
H6    H     H_    0.356997 0.086261 0.545670 0.147182
H7    H     H_    0.597617 0.081510 0.677160 0.144739
H8    H     H_    0.403300 0.918621 0.322198 0.145921
H9    H     H_    0.627120 0.405378 0.902697 0.131717
H10   H     H_    0.372832 0.594137 0.097531 0.139587
H11   H     H_    0.507883 0.287902 0.091724 0.156158
H12   H     H_    0.493246 0.712414 0.908841 0.164859
N1    N     N_3   0.499940 0.500030 0.863290 -0.106648
N2    N     N_3   0.500060 0.499970 0.136710 -0.108763
O1    O     O_R   0.500000 0.313960 0.616610 -0.606614
O2    O     O_R   0.500000 0.686040 0.383390 -0.633256
O3    O     O_R   0.500040 0.313950 0.383350 -0.622146
O4    O     O_R   0.499960 0.686050 0.616650 -0.618888
O5    O     O_R   0.376760 0.499990 0.616610 -0.628522
O6    O     O_R   0.623240 0.500010 0.383390 -0.606325
O7    O     O_R   0.376790 0.499980 0.383350 -0.612739
O8    O     O_R   0.623210 0.500020 0.616650 -0.618150
Zn1   Zn    Zn3+2 0.499980 0.500010 0.655740 0.943793
Zn2   Zn    Zn3+2 0.500020 0.499990 0.344260 0.940606
N3    N     N_2   0.936695 0.265079 0.571576 -0.304833
H13   H     H_    0.891679 0.271728 0.648397 0.220545
C31   C     C_3   0.999210 0.167027 0.595001 -0.803801
H14   H     H_    0.966351 0.075787 0.616508 0.240666
H15   H     H_    0.039423 0.192921 0.683953 0.235241
H16   H     H_    0.040108 0.153213 0.503111 0.246449
N4    N     N_2   0.063305 0.735037 0.428507 -0.305275
H17   H     H_    0.108194 0.728408 0.351517 0.220565
C32   C     C_3   0.000815 0.833175 0.405434 -0.804633
H18   H     H_    0.033668 0.924382 0.383783 0.240760
H19   H     H_    0.960129 0.847008 0.497513 0.246546
H20   H     H_    0.960416 0.807366 0.316722 0.235769
N5    N     N_2   0.443969 0.919864 0.751984 -0.309400
H21   H     H_    0.394888 0.855117 0.743985 0.224049
C33   C     C_3   0.426481 0.019704 0.850817 -0.798167
H22   H     H_    0.409146 0.976809 0.950289 0.233645
H23   H     H_    0.372601 0.079247 0.816013 0.257157
H24   H     H_    0.483514 0.080589 0.865837 0.257782
N6    N     N_2   0.556803 0.080966 0.247711 -0.303221
H25   H     H_    0.604856 0.147381 0.256063 0.228009
C34   C     C_3   0.576201 0.981861 0.148948 -0.827093
H26   H     H_    0.591394 0.025404 0.048965 0.240795
H27   H     H_    0.520850 0.917255 0.135463 0.254327
H28   H     H_    0.632262 0.926400 0.182573 0.241047
N7    N     N_2   0.365139 0.369410 0.898304 -0.288817
H29   H     H_    0.326272 0.426609 0.841225 0.246764
C35   C     C_3   0.317353 0.296641 0.997125 -0.855884
H30   H     H_    0.264784 0.245374 0.944897 0.240852
H31   H     H_    0.289709 0.360819 0.076809 0.246374
H32   H     H_    0.358867 0.224957 0.045925 0.260317
N8    N     N_2   0.633735 0.631143 0.104823 -0.287041
H33   H     H_    0.615384 0.694133 0.180697 0.247903
C36   C     C_3   0.691158 0.686743 0.006272 -0.842160
H34   H     H_    0.745704 0.731088 0.060308 0.241551
H35   H     H_    0.657908 0.761221 0.947193 0.245940
H36   H     H_    0.716290 0.612384 0.935365 0.255035

loop_
_geom_bond_atom_site_label_1
_geom_bond_atom_site_label_2
_ccdc_geom_bond_type
C36   H34   S    
C4    H6    S    
C7    C29   S    
C10   H12   S    
N6    H25   S    
N3    H13   S    
C19   H1    S    
C32   H19   S    
C35   H30   S    
N8    H33   S    
C2    O2    A    
C17   C23   S    
C18   C24   S    
C17   C26   S    
C24   C26   S    
C11   C14   S    
C31   H15   S    
C13   N7    S    
C30   H8    S    
C33   H23   S    
C3    C29   S    
C9    C13   S    
N1    Zn1   S    
C11   N1    S    
C15   O7    A    
C17   N3    S    
C23   C25   S    
C21   C27   T    
C32   H20   S    
O1    Zn1   S    
C22   C28   T    
N6    C34   S    
N4    H17   S    
C18   C25   S    
C4    C7    S    
C35   H31   S    
C5    C7    S    
N8    C36   S    
O4    Zn1   S    
N5    H21   S    
N7    H29   S    
C4    C6    S    
C3    C8    S    
C10   C14   S    
N7    C35   S    
C1    O3    A    
C31   H16   S    
C6    C8    S    
C2    O4    A    
C1    C6    S    
N5    C33   S    
C12   H10   S    
C33   H24   S    
C34   H26   S    
C9    C11   S    
C20   C23   S    
C3    H5    S    
C23   H4    S    
O2    Zn2   S    
N4    C32   S    
O6    Zn2   S    
C11   H9    S    
C34   H27   S    
C10   C12   S    
O3    Zn2   S    
C36   H35   S    
C2    C5    S    
C13   N1    S    
C35   H32   S    
O8    Zn1   S    
C14   N2    S    
C5    C30   S    
C20   H2    S    
C9    N2    S    
C16   C22   S    
C10   N1    S    
C26   C28   S    
C16   O8    A    
C14   N8    S    
C16   O6    A    
C3    C5    S    
C18   N4    S    
C25   C27   S    
C9    H11   S    
C24   H3    S    
O7    Zn2   S    
C8    C30   S    
N3    C31   S    
C19   C24   S    
C12   N2    S    
C1    O1    A    
C31   H14   S    
C20   C26   S    
O5    Zn1   S    
C8    N6    S    
C17   C19   S    
C18   C20   S    
C15   O5    A    
C33   H22   S    
C19   C25   S    
C34   H28   S    
C7    N5    S    
C32   H18   S    
N2    Zn2   S    
C15   C21   S    
C6    C29   S    
C12   C13   S    
C36   H36   S    
C29   H7    S    
C4    C30   S    
