data_mof_unit_35094.cif
_audit_creation_date              2012-12-11T16:22:23-0500
_audit_creation_method            fapswitch 2.2
_symmetry_space_group_name_H-M    P1
_symmetry_Int_Tables_number       1
_space_group_crystal_system       triclinic
_cell_length_a                    19.642212
_cell_length_b                    6.933898
_cell_length_c                    17.728682
_cell_angle_alpha                 89.88287
_cell_angle_beta                  108.191585
_cell_angle_gamma                 90.078224
_cell_volume                      2293.90301822

loop_
_atom_site_label
_atom_site_type_symbol
_atom_type_description
_atom_site_fract_x
_atom_site_fract_y
_atom_site_fract_z
_atom_type_partial_charge
O1    O     O_R   0.561700 0.369960 0.440190 -0.542245
O2    O     O_R   0.061700 0.630040 0.940190 -0.539841
O3    O     O_R   0.413790 0.033680 0.407460 -0.503013
O4    O     O_R   0.913790 0.966320 0.907460 -0.509926
O5    O     O_R   0.438300 0.869760 0.559810 -0.511322
O6    O     O_R   0.938300 0.130240 0.059810 -0.514115
C1    C     C_R   0.386570 0.203317 0.384613 0.786635
C2    C     C_R   0.886553 0.796954 0.884568 0.784512
O7    O     O_R   0.559630 0.039830 0.430710 -0.547184
O8    O     O_R   0.059630 0.960170 0.930710 -0.539744
O9    O     O_R   0.585190 0.875950 0.583220 -0.539171
O10   O     O_R   0.085190 0.124050 0.083220 -0.541941
C3    C     C_R   0.580987 0.209319 0.415462 0.682932
C4    C     C_R   0.080705 0.791254 0.915550 0.682050
O11   O     O_R   0.414810 0.363770 0.416780 -0.550745
O12   O     O_R   0.914810 0.636230 0.916780 -0.551932
O13   O     O_3   0.508210 0.205480 0.550010 -0.373303
O14   O     O_3   0.008210 0.794520 0.050010 -0.366256
V1    V     V_3+5 0.498480 0.928140 0.490720 1.465914
V2    V     V_3+5 0.998480 0.071860 0.990720 1.480484
O15   O     O_R   0.586210 0.546600 0.592540 -0.553741
O16   O     O_R   0.086210 0.453400 0.092540 -0.548791
C5    C     C_R   0.614032 0.715611 0.614896 0.753999
C6    C     C_R   0.113091 0.283987 0.116068 0.756049
O17   O     O_R   0.440370 0.540460 0.569290 -0.549871
O18   O     O_R   0.940370 0.459540 0.069290 -0.544863
C7    C     C_R   0.419680 0.709220 0.585531 0.713580
C8    C     C_R   0.919427 0.290433 0.085102 0.729677
V3    V     V_3+5 0.501520 0.428910 0.509280 1.397868
V4    V     V_3+5 0.001520 0.571090 0.009280 1.425347
O19   O     O_3   0.491790 0.701440 0.449990 -0.365993
O20   O     O_3   0.991790 0.298560 0.949990 -0.367550
C9    C     C_R   0.317475 0.893569 0.722237 -0.280828
C10   C     C_R   0.818191 0.109352 0.223513 -0.309059
H1    H     H_    0.313184 0.026124 0.752368 0.133067
H2    H     H_    0.816170 0.982484 0.258409 0.119354
C11   C     C_R   0.365736 0.887505 0.678325 0.404172
C12   C     C_R   0.869088 0.118289 0.182382 0.433536
C13   C     C_R   0.371658 0.718654 0.636189 -0.189762
C14   C     C_R   0.870087 0.279977 0.133995 -0.166547
C15   C     C_R   0.330779 0.556421 0.642712 -0.257669
C16   C     C_R   0.822411 0.432663 0.131224 -0.274585
H3    H     H_    0.335464 0.424965 0.611786 0.173095
H4    H     H_    0.822189 0.557260 0.094129 0.158963
C17   C     C_R   0.283283 0.561266 0.688197 0.229553
C18   C     C_R   0.772797 0.424789 0.173677 0.221216
C19   C     C_R   0.275381 0.733268 0.727713 0.017105
C20   C     C_R   0.770874 0.262524 0.221277 0.035246
C21   C     C_R   0.155286 0.667452 0.748686 -0.096375
C22   C     C_R   0.712247 0.407029 0.316003 -0.100937
H5    H     H_    0.136576 0.595403 0.691849 0.149905
H6    H     H_    0.741947 0.539363 0.317459 0.125144
C23   C     C_R   0.108820 0.679668 0.794573 -0.175939
C24   C     C_R   0.666509 0.393882 0.362540 -0.187627
H7    H     H_    0.056451 0.612637 0.773255 0.112122
H8    H     H_    0.661386 0.517920 0.397410 0.126657
C25   C     C_R   0.129108 0.781186 0.866507 -0.030433
C26   C     C_R   0.629191 0.221966 0.365445 -0.043963
C27   C     C_R   0.196746 0.869010 0.892275 -0.160456
C28   C     C_R   0.638459 0.063892 0.320079 -0.165676
H9    H     H_    0.213522 0.947289 0.947874 0.107621
H10   H     H_    0.610477 0.929500 0.320711 0.129524
C29   C     C_R   0.244262 0.850986 0.847895 -0.150551
C30   C     C_R   0.683299 0.078284 0.272400 -0.162428
H11   H     H_    0.296970 0.915119 0.870921 0.107914
H12   H     H_    0.688385 0.954883 0.237294 0.124972
C31   C     C_R   0.224462 0.749120 0.775472 0.117283
C32   C     C_R   0.720721 0.250167 0.269596 0.144410
C33   C     C_2   0.719731 0.893425 0.700110 -0.254245
C34   C     C_2   0.209938 0.102031 0.213858 -0.244220
C35   C     C_2   0.683057 0.725718 0.680480 -0.371009
C36   C     C_2   0.178248 0.272528 0.186430 -0.374818
H13   H     H_    0.695500 0.018417 0.665657 0.154020
H14   H     H_    0.186818 0.970985 0.182915 0.150084
H15   H     H_    0.704811 0.591704 0.709313 0.133550
H16   H     H_    0.198585 0.405947 0.216788 0.134845
C37   C     C_2   0.792437 0.917327 0.762583 0.453139
C38   C     C_2   0.274261 0.075940 0.286324 0.443908
C39   C     C_2   0.817054 0.782415 0.819935 -0.374580
C40   C     C_2   0.320917 0.221308 0.315071 -0.370319
H17   H     H_    0.785381 0.655437 0.821660 0.084736
H18   H     H_    0.310778 0.362886 0.287863 0.108822
O21   O     O_3   0.839406 0.069410 0.761892 -0.564750
C41   C     C_3   0.807093 0.235463 0.719419 0.094414
H19   H     H_    0.840031 0.361323 0.748201 0.141718
H20   H     H_    0.753061 0.265521 0.724295 0.087884
C42   C     C_3   0.808666 0.226562 0.633465 -0.321996
H21   H     H_    0.865339 0.227585 0.633749 0.200070
H22   H     H_    0.783711 0.091041 0.604386 0.193831
C43   C     C_3   0.769522 0.397393 0.584723 -0.846990
H23   H     H_    0.711696 0.391430 0.579211 0.236045
H24   H     H_    0.774963 0.391558 0.524304 0.233271
H25   H     H_    0.792732 0.535466 0.613029 0.236842
O22   O     O_3   0.291052 0.894405 0.320594 -0.559793
C44   C     C_3   0.230656 0.804840 0.332679 0.054081
H26   H     H_    0.201701 0.721139 0.278812 0.120102
H27   H     H_    0.193221 0.910608 0.345707 0.123309
C45   C     C_3   0.256350 0.668609 0.403794 -0.263973
H28   H     H_    0.300432 0.577387 0.397224 0.210470
H29   H     H_    0.277523 0.754712 0.459003 0.184265
C46   C     C_3   0.196213 0.538146 0.411131 -0.864371
H30   H     H_    0.152512 0.625184 0.421210 0.235206
H31   H     H_    0.217407 0.438426 0.462180 0.236932
H32   H     H_    0.174461 0.451527 0.356225 0.229665
O23   O     O_3   0.404841 0.051575 0.675154 -0.568439
C47   C     C_3   0.469869 0.045950 0.738470 0.089314
H33   H     H_    0.506516 0.937734 0.725433 0.112192
H34   H     H_    0.461073 0.008295 0.795997 0.100330
C48   C     C_3   0.505199 0.244878 0.747584 -0.272016
H35   H     H_    0.510390 0.292509 0.689936 0.228154
H36   H     H_    0.470909 0.350863 0.765802 0.182707
C49   C     C_3   0.579555 0.242357 0.809127 -0.872080
H37   H     H_    0.575981 0.197842 0.867996 0.236313
H38   H     H_    0.603368 0.389025 0.814442 0.227400
H39   H     H_    0.615192 0.141046 0.790709 0.234170
O24   O     O_3   0.915195 0.964809 0.185261 -0.565731
C50   C     C_3   0.962321 0.937793 0.263387 0.084997
H40   H     H_    0.984246 0.789177 0.267181 0.134033
H41   H     H_    0.934998 0.945542 0.309612 0.110148
C51   C     C_3   0.025348 0.079926 0.282089 -0.323839
H42   H     H_    0.060490 0.043091 0.245754 0.191470
H43   H     H_    0.005556 0.229624 0.267205 0.180269
C52   C     C_3   0.068692 0.072415 0.370013 -0.848000
H44   H     H_    0.036073 0.127026 0.406536 0.239068
H45   H     H_    0.117170 0.163738 0.381258 0.235372
H46   H     H_    0.085560 0.922330 0.388297 0.225659
N1    N     N_3   0.244270 0.390677 0.695549 -0.684498
H47   H     H_    0.252926 0.280363 0.659495 0.240768
H48   H     H_    0.264512 0.343365 0.754347 0.226750
N2    N     N_3   0.722251 0.578289 0.165170 -0.686071
H49   H     H_    0.751010 0.706581 0.181366 0.223328
H50   H     H_    0.692365 0.589177 0.105125 0.232562

loop_
_geom_bond_atom_site_label_1
_geom_bond_atom_site_label_2
_ccdc_geom_bond_type
C12   C14   A    
C42   H21   S    
C29   H11   S    
C46   H30   S    
C34   C38   S    
O13   V3    S    
C33   C37   S    
C44   H26   S    
C41   C42   S    
C36   H16   S    
V1    O19   S    
C49   H38   S    
C44   C45   S    
C52   H44   S    
C13   C15   A    
O9    V1    S    
C22   C24   A    
C30   C32   A    
C41   H20   S    
O3    C1    A    
C48   H36   S    
C24   C26   A    
C38   C40   D    
C52   H45   S    
C47   H33   S    
C37   O21   S    
O12   V4    S    
O24   C50   S    
C28   H10   S    
C16   C18   A    
C17   C19   A    
C33   C35   D    
O7    C3    A    
C22   C32   A    
C1    O11   A    
O5    C7    A    
O7    V1    S    
O6    C8    A    
O8    V2    S    
C21   H5    S    
C34   H14   S    
C2    C39   S    
C22   H6    S    
O3    V1    S    
O14   V4    S    
V4    O20   S    
C21   C31   A    
C10   H2    S    
C51   C52   S    
O4    C2    A    
C37   C39   D    
C2    O12   A    
C15   H3    S    
C16   H4    S    
C19   C31   S    
C49   H37   S    
C51   H43   S    
O11   V3    S    
C18   C20   A    
C23   H7    S    
O17   V3    S    
C29   C31   A    
C27   H9    S    
C5    C35   S    
C41   H19   S    
C40   H18   S    
O8    C4    A    
C50   C51   S    
C7    C13   S    
C39   H17   S    
C23   C25   A    
O13   V1    S    
C52   H46   S    
C3    C26   S    
O15   V3    S    
C9    C11   A    
C17   N1    S    
C30   H12   S    
N2    H50   S    
N1    H48   S    
C11   O23   S    
C12   O24   S    
C43   H24   S    
O21   C41   S    
V3    O19   S    
O10   V2    S    
O1    V3    S    
C20   C32   S    
C33   H13   S    
O18   V4    S    
C46   H32   S    
C45   H29   S    
O15   C5    A    
C9    C19   A    
O16   C6    A    
C48   C49   S    
O1    C3    A    
N1    H47   S    
C51   H42   S    
C6    C36   S    
C43   H25   S    
V2    O20   S    
C4    C25   S    
C15   C17   A    
O16   V4    S    
C10   C12   A    
O18   C8    A    
C14   C16   A    
C18   N2    S    
C44   H27   S    
C24   H8    S    
O5    V1    S    
O17   C7    A    
C45   C46   S    
O6    V2    S    
O23   C47   S    
O10   C6    A    
C27   C29   A    
C28   C30   A    
O2    V4    S    
C50   H41   S    
N2    H49   S    
C11   C13   A    
C50   H40   S    
C35   H15   S    
C43   H23   S    
C47   H34   S    
C38   O22   S    
C21   C23   A    
O9    C5    A    
C9    H1    S    
O14   V2    S    
O22   C44   S    
O2    C4    A    
C25   C27   A    
O4    V2    S    
C10   C20   A    
C46   H31   S    
C45   H28   S    
C42   C43   S    
C42   H22   S    
C8    C14   S    
C34   C36   D    
C48   H35   S    
C26   C28   A    
C49   H39   S    
C1    C40   S    
C47   C48   S    
