data_mof_unit_54624.cif
_audit_creation_date              2012-12-11T14:24:50-0500
_audit_creation_method            fapswitch 2.2
_symmetry_space_group_name_H-M    P1
_symmetry_Int_Tables_number       1
_space_group_crystal_system       triclinic
_cell_length_a                    18.90772
_cell_length_b                    11.195333
_cell_length_c                    18.58652
_cell_angle_alpha                 90.798849
_cell_angle_beta                  91.967113
_cell_angle_gamma                 89.798228
_cell_volume                      3931.64255259

loop_
_atom_site_label
_atom_site_type_symbol
_atom_type_description
_atom_site_fract_x
_atom_site_fract_y
_atom_site_fract_z
_atom_type_partial_charge
C1    C     C_R   0.731199 0.376187 0.146947 0.529871
C2    C     C_R   0.251933 0.912559 0.075092 -0.009782
C3    C     C_R   0.667545 0.614784 0.391322 -0.087155
C4    C     C_R   0.843607 0.207012 0.601656 -0.086233
C5    C     C_R   0.098735 0.122369 0.413633 -0.074093
C6    C     C_R   0.343612 0.706995 0.601661 -0.086223
C7    C     C_R   0.598730 0.622366 0.413634 -0.074088
C8    C     C_R   0.860281 0.214761 0.530239 -0.137045
C9    C     C_R   0.084827 0.097074 0.484751 -0.065857
C10   C     C_R   0.360289 0.714739 0.530245 -0.137066
C11   C     C_R   0.584824 0.597074 0.484753 -0.065860
C12   C     C_R   0.821392 0.156071 0.475579 -0.121341
C13   C     C_R   0.257453 0.399691 0.930469 0.002295
C14   C     C_R   0.140522 0.079755 0.534320 -0.114664
C15   C     C_R   0.321395 0.656063 0.475583 -0.121362
C16   C     C_R   0.640520 0.579756 0.534321 -0.114666
C17   C     C_R   0.731515 0.000579 0.441943 -0.007817
C18   C     C_R   0.268814 0.017926 0.555618 -0.006456
C19   C     C_R   0.231514 0.500580 0.441944 -0.007817
C20   C     C_R   0.768813 0.517932 0.555617 -0.006454
C21   C     C_R   0.735099 0.390823 0.348002 0.537715
C22   C     C_R   0.266094 0.382626 0.648922 0.532085
C23   C     C_R   0.235100 0.890822 0.348002 0.537717
C24   C     C_R   0.751911 0.412536 0.075078 -0.009780
C25   C     C_R   0.766094 0.882626 0.648922 0.532086
C26   C     C_R   0.533875 0.157554 0.354593 0.544285
C27   C     C_R   0.470373 0.157062 0.649246 0.523991
C28   C     C_R   0.033876 0.657553 0.354593 0.544266
C29   C     C_R   0.970374 0.657062 0.649246 0.523990
C30   C     C_R   0.728582 0.023609 0.364208 0.564095
C31   C     C_R   0.271373 0.025371 0.635985 0.567995
C32   C     C_R   0.228582 0.523610 0.364208 0.564098
C33   C     C_R   0.771373 0.525372 0.635984 0.567990
C34   C     C_3   0.497444 0.276750 0.978185 -0.119697
C35   C     C_R   0.696021 0.859596 0.964734 0.018058
C36   C     C_3   0.448378 0.220115 0.033360 -0.142958
C37   C     C_3   0.997357 0.776750 0.978198 -0.119672
C38   C     C_3   0.948329 0.720003 0.033365 -0.142980
C39   C     C_3   0.562470 0.216352 0.015156 -0.112815
C40   C     C_3   0.439230 0.108517 0.984359 -0.104981
C41   C     C_3   0.062424 0.716472 0.015166 -0.112822
C42   C     C_3   0.939261 0.608404 0.984354 -0.104995
C43   C     C_3   0.512617 0.159823 0.068753 0.051582
C44   C     C_3   0.489092 0.164504 0.930468 0.056381
C45   C     C_3   0.012608 0.659831 0.068756 0.051573
C46   C     C_R   0.302476 0.847329 0.034586 0.023630
C47   C     C_3   0.989086 0.664503 0.930470 0.056395
C48   C     C_3   0.439037 0.414340 0.419636 -0.094082
C49   C     C_3   0.569237 0.387337 0.634235 -0.081816
C50   C     C_3   0.939045 0.914310 0.419599 -0.094052
C51   C     C_3   0.069237 0.887336 0.634236 -0.081814
C52   C     C_R   0.196015 0.359631 0.964727 0.018035
C53   C     C_R   0.802470 0.347326 0.034579 0.023602
C54   C     C_R   0.697705 0.852582 0.040783 0.031461
C55   C     C_R   0.296499 0.848414 0.958298 0.013234
C56   C     C_R   0.197697 0.352608 0.040775 0.031459
C57   C     C_R   0.270663 0.374174 0.854673 0.529701
C58   C     C_R   0.796498 0.348397 0.958290 0.013213
C59   C     C_R   0.814858 0.939659 0.046279 -0.159795
C60   C     C_R   0.203116 0.997576 0.966398 -0.154909
C61   C     C_R   0.314852 0.439675 0.046274 -0.159794
C62   C     C_R   0.703049 0.497452 0.966370 -0.154883
C63   C     C_R   0.816959 0.934148 0.972799 -0.139056
C64   C     C_R   0.205150 0.990309 0.039846 -0.166611
C65   C     C_R   0.316959 0.434150 0.972796 -0.139061
C66   C     C_R   0.705092 0.490218 0.039818 -0.166563
C67   C     C_R   0.633612 0.824027 0.926233 -0.103329
C68   C     C_R   0.231202 0.876190 0.146950 0.529882
C69   C     C_R   0.357875 0.779358 0.066918 -0.078863
C70   C     C_R   0.133605 0.324078 0.926223 -0.103336
C71   C     C_R   0.857877 0.279381 0.066919 -0.078860
C72   C     C_R   0.079471 0.266823 0.961024 -0.138960
C73   C     C_R   0.898706 0.202645 0.025827 -0.133604
C74   C     C_R   0.579473 0.766793 0.961041 -0.138960
C75   C     C_R   0.398698 0.702623 0.025818 -0.133622
C76   C     C_R   0.586080 0.745788 0.034523 -0.150137
C77   C     C_R   0.388544 0.696703 0.951585 -0.128845
C78   C     C_R   0.086079 0.245796 0.034505 -0.150192
C79   C     C_R   0.770664 0.874170 0.854675 0.529709
C80   C     C_R   0.888563 0.196717 0.951593 -0.128856
C81   C     C_R   0.643831 0.789935 0.074438 -0.092702
C82   C     C_R   0.337863 0.768486 0.917854 -0.085210
C83   C     C_R   0.143823 0.289954 0.074425 -0.092765
C84   C     C_R   0.837881 0.268487 0.917853 -0.085221
C85   C     C_R   0.533481 0.154431 0.144194 0.545331
C86   C     C_R   0.467400 0.155806 0.855305 0.537561
C87   C     C_R   0.033476 0.654433 0.144197 0.545326
C88   C     C_R   0.967396 0.655805 0.855307 0.537578
C89   C     C_R   0.753877 0.907540 0.080791 -0.009453
C90   C     C_3   0.503934 0.048139 0.020750 -0.095969
C91   C     C_R   0.249088 0.929380 0.924670 -0.011105
C92   C     C_R   0.253871 0.407555 0.080786 -0.009429
C93   C     C_R   0.749067 0.429323 0.924653 -0.011105
C94   C     C_R   0.510520 0.165697 0.582460 -0.066280
C95   C     C_R   0.511027 0.163994 0.430718 -0.050241
C96   C     C_R   0.010521 0.665695 0.582461 -0.066287
C97   C     C_R   0.011029 0.663992 0.430719 -0.050258
C98   C     C_R   0.524355 0.059975 0.544851 -0.025514
C99   C     C_R   0.510577 0.056639 0.470303 -0.019046
C100  C     C_R   0.024356 0.559972 0.544853 -0.025514
C101  C     C_3   0.553330 0.104423 0.966203 -0.124166
C102  C     C_R   0.010579 0.556636 0.470304 -0.019041
C103  C     C_R   0.510698 0.273905 0.469553 0.269920
C104  C     C_R   0.512810 0.274972 0.545683 0.267424
C105  C     C_R   0.010701 0.773903 0.469554 0.269922
C106  C     C_R   0.012812 0.774970 0.545684 0.267443
C107  C     C_R   0.542661 0.953987 0.580990 -0.064125
C108  C     C_R   0.496420 0.944684 0.438079 -0.077411
C109  C     C_R   0.042661 0.453984 0.580992 -0.064123
C110  C     C_R   0.996424 0.444679 0.438081 -0.077418
C111  C     C_R   0.032864 0.344735 0.546690 -0.132296
C112  C     C_3   0.004005 0.548146 0.020743 -0.095981
C113  C     C_R   0.009475 0.341077 0.474925 -0.150349
C114  C     C_R   0.532864 0.844739 0.546687 -0.132298
C115  C     C_R   0.509473 0.841081 0.474923 -0.150343
C116  C     C_R   0.734719 0.942368 0.587121 -0.010168
C117  C     C_R   0.263705 0.970640 0.406889 -0.004623
C118  C     C_R   0.234716 0.442368 0.587122 -0.010170
C119  C     C_R   0.763703 0.470645 0.406888 -0.004622
C120  C     C_R   0.762134 0.051100 0.567271 0.033825
C121  C     C_R   0.217694 0.055732 0.435876 0.041119
C122  C     C_R   0.262129 0.551103 0.567273 0.033818
C123  C     C_3   0.053363 0.604540 0.966203 -0.124205
C124  C     C_R   0.717690 0.555733 0.435875 0.041122
C125  C     C_R   0.770414 0.071979 0.493318 0.012707
C126  C     C_R   0.209506 0.054857 0.510940 0.020337
C127  C     C_R   0.270412 0.571980 0.493319 0.012706
C128  C     C_R   0.709504 0.554858 0.510940 0.020338
C129  C     C_R   0.690170 0.906829 0.466731 -0.131966
C130  C     C_R   0.329439 0.977790 0.520451 -0.151730
C131  C     C_R   0.190167 0.406831 0.466731 -0.131964
C132  C     C_R   0.829441 0.477807 0.520448 -0.151741
C133  C     C_R   0.742694 0.965497 0.150418 0.551596
C134  C     C_R   0.757455 0.899675 0.930473 0.002295
C135  C     C_R   0.257929 0.969997 0.851183 0.541674
C136  C     C_R   0.242693 0.465501 0.150416 0.551604
C137  C     C_R   0.757924 0.469982 0.851177 0.541685
C138  C     C_R   0.695148 0.874623 0.537831 -0.154635
C139  C     C_R   0.324179 0.942956 0.447449 -0.162718
C140  C     C_R   0.195146 0.374624 0.537831 -0.154633
C141  C     C_R   0.824180 0.442970 0.447447 -0.162726
C142  C     C_R   0.791741 0.128855 0.620173 -0.075684
C143  C     C_R   0.167551 0.114786 0.391322 -0.087155
C144  C     C_R   0.291738 0.628855 0.620176 -0.075680
Cr1   Cr    Cr6+3 0.772820 0.169820 0.252640 0.977239
Cr2   Cr    Cr6+3 0.383280 0.011130 0.749340 0.981967
Cr3   Cr    Cr6+3 0.116720 0.511130 0.250660 0.989959
Cr4   Cr    Cr6+3 0.883280 0.511130 0.749340 0.981961
Cr5   Cr    Cr6+3 0.227180 0.169820 0.747360 0.973341
Cr6   Cr    Cr6+3 0.272820 0.669820 0.252640 0.977246
Cr7   Cr    Cr6+3 0.727180 0.669820 0.747360 0.973343
Cr8   Cr    Cr6+3 0.615040 0.323610 0.249150 1.027867
Cr9   Cr    Cr6+3 0.384960 0.323610 0.750850 1.015596
Cr10  Cr    Cr6+3 0.115040 0.823610 0.249150 1.027858
Cr11  Cr    Cr6+3 0.884960 0.823610 0.750850 1.015608
Cr12  Cr    Cr6+3 0.616720 0.011130 0.250660 0.989960
H1    H     H_    0.613496 0.260665 0.029870 0.135259
H2    H     H_    0.993349 0.259256 0.448625 0.081815
H3    H     H_    0.540151 0.764169 0.577314 0.095968
H4    H     H_    0.493346 0.759260 0.448622 0.081806
H5    H     H_    0.657902 0.851906 0.430600 0.163400
H6    H     H_    0.377685 0.959834 0.551277 0.157489
H7    H     H_    0.157899 0.351908 0.430600 0.163401
H8    H     H_    0.877688 0.459860 0.551274 0.157482
H9    H     H_    0.780488 0.119716 0.676628 0.110007
H10   H     H_    0.177513 0.129592 0.335039 0.115771
H11   H     H_    0.280482 0.619717 0.676630 0.110005
H12   H     H_    0.388104 0.064349 0.969960 0.136532
H13   H     H_    0.677506 0.629591 0.335038 0.115771
H14   H     H_    0.671291 0.793288 0.554020 0.144792
H15   H     H_    0.363469 0.886523 0.423959 0.107339
H16   H     H_    0.171290 0.293287 0.554020 0.144793
H17   H     H_    0.863471 0.386542 0.423955 0.107331
H18   H     H_    0.872903 0.257707 0.642614 0.135276
H19   H     H_    0.056510 0.143636 0.375146 0.097320
H20   H     H_    0.372911 0.757679 0.642621 0.135259
H21   H     H_    0.556504 0.643631 0.375147 0.097325
H22   H     H_    0.901281 0.272077 0.517562 0.118672
H23   H     H_    0.113414 0.760891 0.029886 0.135290
H24   H     H_    0.031109 0.096918 0.502895 0.155250
H25   H     H_    0.401297 0.772035 0.517571 0.118670
H26   H     H_    0.531106 0.596920 0.502898 0.155231
H27   H     H_    0.835520 0.172979 0.421199 0.152775
H28   H     H_    0.125810 0.085989 0.588877 0.142383
H29   H     H_    0.335526 0.672967 0.421202 0.152767
H30   H     H_    0.625810 0.585994 0.588878 0.142383
H31   H     H_    0.495535 0.370167 0.958924 0.108783
H32   H     H_    0.406164 0.262670 0.064553 0.113454
H33   H     H_    0.995385 0.870168 0.958946 0.108788
H34   H     H_    0.888170 0.564132 0.969949 0.136571
H35   H     H_    0.906075 0.762463 0.064549 0.113477
H36   H     H_    0.504595 0.954752 0.039798 0.148961
H37   H     H_    0.596509 0.060736 0.936702 0.116102
H38   H     H_    0.004721 0.454761 0.039789 0.149017
H39   H     H_    0.096573 0.560931 0.936708 0.116084
H40   H     H_    0.860833 0.973543 0.076219 0.135693
H41   H     H_    0.165972 0.060541 0.942572 0.165350
H42   H     H_    0.360824 0.473562 0.076215 0.135683
H43   H     H_    0.665867 0.560350 0.942535 0.165282
H44   H     H_    0.625224 0.841244 0.869552 0.130437
H45   H     H_    0.561002 0.955249 0.636867 0.128426
H46   H     H_    0.371928 0.785787 0.123555 0.137229
H47   H     H_    0.125221 0.341308 0.869542 0.130439
H48   H     H_    0.871926 0.285823 0.123556 0.137231
H49   H     H_    0.866992 0.954600 0.949534 0.143343
H50   H     H_    0.166618 0.041588 0.068992 0.147745
H51   H     H_    0.366996 0.454579 0.949535 0.143362
H52   H     H_    0.666535 0.541465 0.068952 0.147757
H53   H     H_    0.033220 0.236535 0.930439 0.117220
H54   H     H_    0.936821 0.144601 0.052102 0.090623
H55   H     H_    0.533220 0.736505 0.930458 0.117200
H56   H     H_    0.470901 0.935146 0.385411 0.133918
H57   H     H_    0.436816 0.644574 0.052084 0.090617
H58   H     H_    0.046760 0.195635 0.061415 0.101705
H59   H     H_    0.919890 0.135889 0.919936 0.098336
H60   H     H_    0.546757 0.695643 0.061438 0.101679
H61   H     H_    0.419863 0.635874 0.919921 0.098346
H62   H     H_    0.647436 0.769540 0.131158 0.124705
H63   H     H_    0.330045 0.757842 0.860231 0.125865
H64   H     H_    0.147426 0.269553 0.131145 0.124712
H65   H     H_    0.830070 0.257838 0.860229 0.125867
H66   H     H_    0.410271 0.427117 0.470470 0.153947
H67   H     H_    0.061001 0.455246 0.636870 0.128428
H68   H     H_    0.411080 0.347906 0.383866 0.116459
H69   H     H_    0.438230 0.501040 0.391448 0.130674
H70   H     H_    0.620857 0.376525 0.607941 0.138113
H71   H     H_    0.566234 0.318876 0.676424 0.110760
H72   H     H_    0.567535 0.474153 0.663486 0.133141
H73   H     H_    0.910239 0.927037 0.470416 0.153893
H74   H     H_    0.911125 0.847882 0.383792 0.116456
H75   H     H_    0.938243 0.001031 0.391434 0.130677
H76   H     H_    0.120857 0.876524 0.607943 0.138110
H77   H     H_    0.066234 0.818876 0.676425 0.110760
H78   H     H_    0.970907 0.435139 0.385412 0.133920
H79   H     H_    0.067534 0.974152 0.663486 0.133144
H80   H     H_    0.040149 0.264165 0.577318 0.095974
O1    O     O_R   0.788190 0.043000 0.172520 -0.518281
O2    O     O_R   0.454170 0.051610 0.669840 -0.547307
O3    O     O_R   0.045830 0.551610 0.330160 -0.545657
O4    O     O_R   0.954170 0.551610 0.669840 -0.547308
O5    O     O_R   0.681920 0.959720 0.327070 -0.511562
O6    O     O_R   0.318080 0.959720 0.672930 -0.511202
O7    O     O_R   0.181920 0.459720 0.327070 -0.511561
O8    O     O_R   0.818080 0.459720 0.672930 -0.511209
O9    O     O_3   0.668190 0.168190 0.250820 -0.264757
O10   O     O_3   0.331810 0.168190 0.749180 -0.263490
O11   O     O_3   0.168190 0.668190 0.250820 -0.264751
O12   O     O_R   0.211810 0.043000 0.827480 -0.524637
O13   O     O_3   0.831810 0.668190 0.749180 -0.263486
O14   O     O_R   0.766240 0.292300 0.176860 -0.515627
O15   O     O_R   0.233760 0.292300 0.823140 -0.511758
O16   O     O_R   0.266240 0.792300 0.176860 -0.515628
O17   O     O_R   0.733760 0.792300 0.823140 -0.511752
O18   O     O_R   0.670310 0.409160 0.168720 -0.534165
O19   O     O_R   0.329690 0.409160 0.831280 -0.533153
O20   O     O_R   0.170310 0.909160 0.168720 -0.534163
O21   O     O_R   0.829690 0.909160 0.831280 -0.533154
O22   O     O_R   0.556160 0.251900 0.173380 -0.505657
O23   O     O_R   0.288190 0.543000 0.172520 -0.518284
O24   O     O_R   0.443840 0.251900 0.826620 -0.511350
O25   O     O_R   0.056160 0.751900 0.173380 -0.505659
O26   O     O_R   0.943840 0.751900 0.826620 -0.511350
O27   O     O_R   0.545410 0.050140 0.168240 -0.525358
O28   O     O_R   0.454590 0.050140 0.831760 -0.522079
O29   O     O_R   0.045410 0.550140 0.168240 -0.525365
O30   O     O_R   0.954590 0.550140 0.831760 -0.522089
O31   O     O_R   0.681530 0.958350 0.176970 -0.503062
O32   O     O_R   0.318470 0.958350 0.823030 -0.504287
O33   O     O_R   0.181530 0.458350 0.176970 -0.503062
O34   O     O_R   0.711810 0.543000 0.827480 -0.524631
O35   O     O_R   0.818470 0.458350 0.823030 -0.504294
O36   O     O_R   0.788610 0.044480 0.334450 -0.549365
O37   O     O_R   0.211390 0.044480 0.665550 -0.559648
O38   O     O_R   0.288610 0.544480 0.334450 -0.549359
O39   O     O_R   0.711390 0.544480 0.665550 -0.559652
O40   O     O_R   0.766630 0.293670 0.326970 -0.534307
O41   O     O_R   0.233370 0.293670 0.673030 -0.535589
O42   O     O_R   0.266630 0.793670 0.326970 -0.534305
O43   O     O_R   0.733370 0.793670 0.673030 -0.535591
O44   O     O_R   0.670730 0.410640 0.330640 -0.491423
O45   O     O_R   0.556550 0.253260 0.323480 -0.445190
O46   O     O_R   0.329270 0.410640 0.669360 -0.494569
O47   O     O_R   0.170730 0.910640 0.330640 -0.491421
O48   O     O_R   0.829270 0.910640 0.669360 -0.494565
O49   O     O_3   0.510105 0.380809 0.433534 -0.531320
O50   O     O_3   0.512261 0.383514 0.582608 -0.544756
O51   O     O_3   0.010113 0.880809 0.433539 -0.531313
O52   O     O_3   0.012261 0.883512 0.582608 -0.544730
O53   O     O_R   0.443450 0.253260 0.676520 -0.458925
O54   O     O_R   0.056550 0.753260 0.323480 -0.445206
O55   O     O_R   0.943450 0.753260 0.676520 -0.458923
O56   O     O_R   0.545830 0.051610 0.330160 -0.545660

loop_
_geom_bond_atom_site_label_1
_geom_bond_atom_site_label_2
_ccdc_geom_bond_type
C52   C70   A    
C25   O43   A    
C78   H58   S    
C114  C115  A    
C22   O41   A    
C15   H29   S    
C26   O56   A    
C45   C87   S    
C84   H65   S    
C4    C142  A    
C95   C99   A    
C5    C143  A    
C7    H21   S    
C50   H73   S    
C51   H79   S    
C38   C45   S    
C131  C140  A    
C30   O5    A    
C46   C55   A    
C139  H15   S    
Cr3   O29   S    
Cr7   O17   S    
C97   C105  A    
C94   C104  A    
C100  C109  A    
C15   C127  A    
C17   C30   S    
C117  C139  A    
C20   C132  A    
C118  C140  A    
C19   C32   S    
C35   C134  A    
C86   O28   A    
C23   O42   A    
C43   C85   S    
C51   O52   S    
C67   H44   S    
C71   C73   A    
C120  C125  A    
C3    H13   S    
C36   H32   S    
C143  H10   S    
C37   C38   S    
C48   O49   S    
Cr1   O14   S    
C47   C123  S    
Cr3   O7    S    
C53   C58   A    
Cr9   O10   S    
C111  H80   S    
C79   O17   A    
C34   C44   S    
C111  C113  A    
C67   C74   A    
C49   H72   S    
Cr8   O9    S    
C20   C33   S    
C119  C141  A    
C18   C130  A    
C53   C71   A    
C21   O40   A    
C1    O18   A    
C56   C83   A    
C22   C118  S    
Cr4   O4    S    
Cr6   O38   S    
C44   C101  S    
Cr6   O16   S    
C115  H4    S    
C59   C63   A    
C14   C126  A    
Cr1   O9    S    
C74   H55   S    
C60   C64   A    
C21   C119  S    
Cr10  O25   S    
C77   H61   S    
C48   H66   S    
C77   C82   A    
C61   C65   A    
C98   C99   A    
C62   C93   A    
C41   C45   S    
C18   C31   S    
C54   C81   A    
C27   O2    A    
C104  O50   S    
C28   C97   S    
C32   O38   A    
Cr5   O10   S    
C50   O51   S    
C31   O6    A    
C137  O35   A    
C88   O26   A    
C90   H36   S    
C99   C108  A    
C74   C76   A    
C108  C115  A    
C62   H43   S    
C2    C68   S    
C109  C111  A    
C28   O3    A    
C12   H27   S    
C13   C57   S    
C118  C122  A    
C122  C127  A    
C42   C112  S    
C103  O49   S    
C72   C78   A    
C82   H63   S    
Cr2   O2    S    
C26   O45   A    
Cr5   O41   S    
C57   O15   A    
C109  H67   S    
C130  H6    S    
Cr9   O19   S    
C69   H46   S    
C133  O1    A    
C108  H56   S    
C95   C103  A    
C133  O31   A    
C71   H48   S    
C49   O50   S    
C89   C133  S    
C62   C66   A    
C144  H11   S    
C34   C39   S    
C79   O21   A    
C30   O36   A    
C22   O46   A    
C25   C116  S    
C48   H68   S    
C75   H57   S    
C116  C120  A    
C25   O48   A    
C5    C9    A    
Cr6   O23   S    
C42   H34   S    
C72   H53   S    
C35   C67   A    
C8    C12   A    
C112  H38   S    
Cr2   O6    S    
C129  H5    S    
C75   C77   A    
C86   O24   A    
C51   H77   S    
Cr5   O12   S    
C135  O32   A    
C6    C144  A    
C132  C141  A    
C79   C134  S    
Cr9   O46   S    
C41   H23   S    
C27   C94   S    
C23   C117  S    
C29   C96   S    
C65   H51   S    
C23   O47   A    
C18   C126  A    
C96   C100  A    
C50   H74   S    
C34   C36   S    
C37   C41   S    
C34   H31   S    
C40   C44   S    
Cr10  O11   S    
C1    C24   S    
C38   H35   S    
Cr4   O8    S    
Cr7   O39   S    
C80   C84   A    
Cr10  O20   S    
Cr4   O13   S    
C105  O51   S    
Cr1   O36   S    
C106  O52   S    
C58   C93   A    
C85   O27   A    
C107  H45   S    
C3    C7    A    
Cr11  O21   S    
C94   C98   A    
Cr12  O56   S    
Cr4   O30   S    
C55   C91   A    
C78   C83   A    
Cr9   O53   S    
Cr2   O28   S    
C136  O33   A    
C49   H71   S    
C87   O25   A    
C29   O4    A    
C97   C102  A    
C61   C92   A    
C24   C66   A    
C124  C128  A    
C68   O16   A    
C4    H18   S    
C35   C54   A    
C5    H19   S    
Cr4   O35   S    
C123  H39   S    
Cr10  O47   S    
C92   C136  S    
C11   H26   S    
C130  C139  A    
C101  H37   S    
C80   H59   S    
Cr11  O13   S    
C43   C90   S    
C63   C134  A    
Cr1   O40   S    
C112  C123  S    
C12   C125  A    
C33   O39   A    
C24   C53   A    
C64   H50   S    
C98   C107  A    
Cr5   O37   S    
C57   O19   A    
C9    C14   A    
C132  H8    S    
C107  C114  A    
C13   C52   A    
C66   H52   S    
C11   C16   A    
C76   H60   S    
C131  H7    S    
C136  O23   A    
C27   O53   A    
Cr2   O32   S    
C60   H41   S    
C87   O29   A    
Cr3   O3    S    
C102  C110  A    
C31   O37   A    
C3    C124  A    
C70   H47   S    
C61   H42   S    
C6    C10   A    
C137  O34   A    
Cr7   O34   S    
C38   C42   S    
C59   H40   S    
C105  C106  A    
Cr2   O10   S    
Cr3   O33   S    
C48   H69   S    
C69   C75   A    
Cr12  O5    S    
Cr8   O22   S    
C91   C135  S    
C63   H49   S    
C103  C104  A    
C10   H25   S    
C36   C43   S    
C40   C90   S    
Cr9   O24   S    
C110  H78   S    
Cr5   O15   S    
C37   H33   S    
C138  H14   S    
C121  C143  A    
C122  C144  A    
C4    C8    A    
C88   O30   A    
C45   C112  S    
Cr7   O13   S    
C13   C65   A    
C119  C124  A    
C2    C46   A    
C7    C11   A    
C20   C128  A    
C10   C15   A    
C59   C89   A    
Cr11  O48   S    
Cr7   O43   S    
C46   C69   A    
C117  C121  A    
Cr8   O44   S    
Cr11  O26   S    
C129  C138  A    
Cr1   O1    S    
C85   O22   A    
C29   O55   A    
Cr3   O11   S    
C140  H16   S    
C39   H1    S    
C141  H17   S    
C44   C86   S    
C2    C64   A    
C39   C101  S    
C116  C138  A    
C19   C131  A    
Cr6   O11   S    
C17   C129  A    
C73   H54   S    
C36   C40   S    
C120  C142  A    
C54   C89   A    
C21   O44   A    
C1    O14   A    
C39   C43   S    
Cr10  O54   S    
Cr6   O42   S    
C90   C101  S    
C58   C84   A    
Cr12  O27   S    
C68   O20   A    
C100  C102  A    
C50   H75   S    
C55   C82   A    
C16   C128  A    
C110  C113  A    
C9    H24   S    
Cr12  O9    S    
C32   O7    A    
C113  H2    S    
C37   C47   S    
Cr8   O45   S    
C60   C91   A    
C26   C95   S    
C96   C106  A    
Cr11  O55   S    
C51   H76   S    
C135  O12   A    
C76   C81   A    
C14   H28   S    
C47   C88   S    
C41   C123  S    
C28   O54   A    
C121  C126  A    
C16   H30   S    
C142  H9    S    
Cr8   O18   S    
C83   H64   S    
C17   C125  A    
Cr12  O31   S    
C6    H20   S    
C81   H62   S    
C19   C127  A    
C73   C80   A    
C42   C47   S    
C114  H3    S    
C40   H12   S    
C93   C137  S    
C8    H22   S    
C56   C92   A    
C33   O8    A    
C70   C72   A    
C49   H70   S    
C52   C56   A    
