data_mof_unit_32970.cif
_audit_creation_date              2012-12-11T15:23:41-0500
_audit_creation_method            fapswitch 2.2
_symmetry_space_group_name_H-M    P1
_symmetry_Int_Tables_number       1
_space_group_crystal_system       triclinic
_cell_length_a                    6.932982
_cell_length_b                    17.49885
_cell_length_c                    19.292749
_cell_angle_alpha                 109.572119
_cell_angle_beta                  90.177317
_cell_angle_gamma                 90.564332
_cell_volume                      2205.18592493

loop_
_atom_site_label
_atom_site_type_symbol
_atom_type_description
_atom_site_fract_x
_atom_site_fract_y
_atom_site_fract_z
_atom_type_partial_charge
O1    O     O_R   0.505810 0.439670 0.562310 -0.539290
O2    O     O_R   0.169070 0.404920 0.411210 -0.541137
O3    O     O_R   0.005550 0.560330 0.437690 -0.539687
C1    C     C_R   0.338403 0.381275 0.383070 0.675775
O4    O     O_R   0.175650 0.430000 0.560110 -0.542540
O5    O     O_R   0.012170 0.585580 0.587650 -0.537487
C2    C     C_R   0.344547 0.414655 0.581623 0.708242
O6    O     O_R   0.499180 0.414420 0.412350 -0.537321
O7    O     O_3   0.341430 0.551020 0.508860 -0.367985
V1    V     V_3+5 0.063930 0.490540 0.498360 1.398140
O8    O     O_R   0.682850 0.595080 0.588790 -0.542722
C3    C     C_R   0.852693 0.618400 0.616902 0.680463
O9    O     O_R   0.676280 0.570000 0.439890 -0.543265
C4    C     C_R   0.845241 0.585019 0.418186 0.711359
V2    V     V_3+5 0.564760 0.509460 0.501640 1.398382
O10   O     O_3   0.837130 0.448980 0.491140 -0.368768
C5    C     C_R   0.759845 0.887028 0.190435 0.115988
C6    C     C_R   0.913649 0.874431 0.138865 -0.097613
C7    C     C_R   0.057947 0.818328 0.138288 -0.272991
C8    C     C_R   0.048815 0.772169 0.185097 0.090616
C9    C     C_R   0.888799 0.779294 0.231713 0.012319
C10   C     C_R   0.741337 0.835317 0.233450 0.081139
C11   C     C_R   0.196527 0.717854 0.185145 -0.169121
C12   C     C_R   0.187128 0.671247 0.231442 -0.193627
C13   C     C_R   0.028387 0.677159 0.277745 0.091122
C14   C     C_R   0.877512 0.730644 0.277351 0.063924
C15   C     C_R   0.715772 0.735645 0.322746 0.094032
C16   C     C_R   0.567325 0.789079 0.322498 -0.192641
C17   C     C_R   0.579570 0.838210 0.278643 -0.185030
C18   C     C_R   0.017908 0.630482 0.324379 -0.222113
C19   C     C_R   0.856170 0.634915 0.369473 -0.087263
C20   C     C_R   0.704847 0.687152 0.367687 -0.227509
H1    H     H_    0.177948 0.810007 0.100641 0.138323
H2    H     H_    0.320564 0.711906 0.149744 0.130521
H3    H     H_    0.304175 0.630484 0.230966 0.129579
H4    H     H_    0.134596 0.589822 0.324783 0.123969
H5    H     H_    0.579797 0.691198 0.402303 0.128756
H6    H     H_    0.440861 0.792942 0.356345 0.134272
H7    H     H_    0.458660 0.877122 0.279626 0.144603
C21   C     C_3   0.812044 0.816927 0.741524 -0.141499
C22   C     C_3   0.981469 0.767420 0.696776 -0.139216
H8    H     H_    0.060141 0.781347 0.652334 0.102765
H9    H     H_    0.751800 0.872724 0.735063 0.099891
C23   C     C_3   0.867534 0.688648 0.687595 -0.007303
C24   C     C_3   0.697951 0.737319 0.731513 -0.116407
C25   C     C_3   0.789580 0.732510 0.803271 -0.139008
C26   C     C_3   0.959007 0.683003 0.758523 -0.141226
C27   C     C_3   0.073099 0.762610 0.768534 -0.116435
C28   C     C_3   0.903516 0.811281 0.812453 -0.008212
H10   H     H_    0.543428 0.726495 0.715710 0.106271
H11   H     H_    0.710903 0.718581 0.847711 0.102792
H12   H     H_    0.227623 0.773435 0.784336 0.106324
C29   C     C_3   0.483587 0.236359 0.304850 -0.131299
C30   C     C_3   0.323107 0.180375 0.257774 -0.138647
H13   H     H_    0.272756 0.122526 0.263829 0.103307
H14   H     H_    0.563552 0.225309 0.350468 0.101667
C31   C     C_3   0.414789 0.188983 0.187957 -0.010308
C32   C     C_3   0.575110 0.244162 0.234250 -0.120342
C33   C     C_3   0.448251 0.319135 0.242429 -0.137704
C34   C     C_3   0.287735 0.263181 0.195383 -0.132126
C35   C     C_3   0.196211 0.255356 0.265970 -0.120546
C36   C     C_3   0.356514 0.310586 0.312262 -0.010680
H15   H     H_    0.498874 0.376903 0.236294 0.099200
H16   H     H_    0.207780 0.274184 0.149740 0.101399
H17   H     H_    0.040720 0.260205 0.279817 0.102943
C37   C     C_R   0.568953 0.135022 0.821134 -0.225622
C38   C     C_R   0.416804 0.135307 0.869417 -0.083976
C39   C     C_R   0.252627 0.182237 0.869689 -0.222082
C40   C     C_R   0.240372 0.228839 0.823015 0.089184
C41   C     C_R   0.392160 0.227177 0.773990 0.052469
C42   C     C_R   0.556524 0.179743 0.772792 0.091356
C43   C     C_R   0.078854 0.277097 0.824428 -0.192315
C44   C     C_R   0.066491 0.322530 0.777074 -0.184716
C45   C     C_R   0.215034 0.320356 0.727194 0.091410
C46   C     C_R   0.379404 0.272926 0.725995 0.052475
C47   C     C_R   0.531186 0.271264 0.676967 0.089159
C48   C     C_R   0.692701 0.223003 0.675553 -0.192136
C49   C     C_R   0.705065 0.177569 0.722908 -0.184491
C50   C     C_R   0.202589 0.365071 0.678850 -0.225595
C51   C     C_R   0.354718 0.364785 0.630560 -0.084024
C52   C     C_R   0.518915 0.317865 0.630288 -0.222155
H18   H     H_    0.695283 0.098617 0.820083 0.121461
H19   H     H_    0.135017 0.183181 0.906874 0.126754
H20   H     H_    0.961198 0.279317 0.861876 0.133178
H21   H     H_    0.939788 0.358977 0.779131 0.134174
H22   H     H_    0.076243 0.401468 0.679902 0.121405
H23   H     H_    0.636507 0.316920 0.593096 0.126618
H24   H     H_    0.810352 0.220779 0.638102 0.133273
H25   H     H_    0.831762 0.141119 0.720849 0.134284
O11   O     O_R   0.271890 0.085690 0.087580 -0.537740
O12   O     O_R   0.595690 0.070020 0.939870 -0.542324
O13   O     O_R   0.758900 0.914390 0.912370 -0.536927
C53   C     C_R   0.426856 0.085412 0.918335 0.709090
O14   O     O_R   0.602020 0.095100 0.088770 -0.543314
O15   O     O_R   0.765280 0.939660 0.062330 -0.532382
C54   C     C_R   0.432742 0.118566 0.117013 0.677464
O16   O     O_R   0.265520 0.060430 0.937620 -0.539461
O17   O     O_3   0.429560 0.949050 0.991100 -0.365700
V3    V     V_3+5 0.707160 0.009450 0.001650 1.396487
O18   O     O_R   0.094540 0.929890 0.060190 -0.545417
C55   C     C_R   0.925819 0.918613 0.084937 0.718854
O19   O     O_R   0.088200 0.904800 0.911290 -0.542188
C56   C     C_R   0.918364 0.881525 0.883150 0.683487
V4    V     V_3+5 0.206300 0.990390 0.998440 1.397296
O20   O     O_3   0.934030 0.050940 0.008900 -0.370264
C57   C     C_3   0.625652 0.958636 0.204152 -0.770186
H26   H     H_    0.595834 0.986790 0.263752 0.187418
H27   H     H_    0.691702 0.008684 0.188959 0.204682
H28   H     H_    0.487955 0.938630 0.173594 0.210034
H29   H     H_    0.019251 0.627206 0.764984 0.099725
H30   H     H_    0.730586 0.239245 0.220383 0.102260

loop_
_geom_bond_atom_site_label_1
_geom_bond_atom_site_label_2
_ccdc_geom_bond_type
C9    C14   A    
C10   C17   A    
C44   C45   A    
C7    C8    A    
C4    C19   S    
C1    O6    A    
C48   C49   A    
C25   C28   S    
C14   C15   A    
C21   C28   S    
O14   V3    S    
C16   C17   A    
C40   C41   A    
O5    C3    A    
C18   C19   A    
O15   V3    S    
C37   H18   S    
C57   H26   S    
V2    O10   S    
C1    C36   S    
O18   V4    S    
C6    C7    A    
C22   H8    S    
O13   C56   A    
C30   H13   S    
O8    V2    S    
C21   H9    S    
C26   C27   S    
C48   H24   S    
C39   C40   A    
C31   C54   S    
C11   C12   A    
C41   C42   A    
O1    V2    S    
O7    V1    S    
C23   C26   S    
O14   C54   A    
C37   C38   A    
C33   C34   S    
O9    C4    A    
O19   C56   A    
V4    O20   S    
C49   H25   S    
C21   C24   S    
V3    O20   S    
C12   H3    S    
C45   C46   A    
C32   H30   S    
C12   C13   A    
C7    H1    S    
O4    C2    A    
C43   C44   A    
C31   C34   S    
C32   C33   S    
C24   C25   S    
C25   H11   S    
C38   C39   A    
C34   C35   S    
C6    C55   S    
C40   C43   A    
O2    C1    A    
C46   C47   A    
C28   C56   S    
O12   C53   A    
C29   C36   S    
C37   C42   A    
C8    C11   A    
C16   H6    S    
C29   C32   S    
C11   H2    S    
C44   H21   S    
C17   H7    S    
C5    C6    A    
C52   H23   S    
C20   H5    S    
C47   C48   A    
O19   V4    S    
O11   V4    S    
C43   H20   S    
O3    C4    A    
C21   C22   S    
O17   V3    S    
O6    V2    S    
C45   C50   A    
O9    V2    S    
C22   C23   S    
O2    V1    S    
C53   O16   A    
C41   C46   A    
C23   C24   S    
C29   H14   S    
C13   C18   A    
C25   C26   S    
C27   C28   S    
C33   C36   S    
C15   C20   A    
O1    C2    A    
C39   H19   S    
C19   C20   A    
C51   C52   A    
C47   C52   A    
O5    V1    S    
O8    C3    A    
C29   C30   S    
C30   C35   S    
C26   H29   S    
C33   H15   S    
C5    C10   A    
C18   H4    S    
C34   H16   S    
C13   C14   A    
O4    V1    S    
C3    C23   S    
O3    V1    S    
V1    O10   S    
C5    C57   S    
C31   C32   S    
C57   H27   S    
C24   H10   S    
O17   V4    S    
O18   C55   A    
C22   C27   S    
C50   H22   S    
O7    V2    S    
C35   C36   S    
O16   V4    S    
C50   C51   A    
C35   H17   S    
C27   H12   S    
C8    C9    A    
O11   C54   A    
C15   C16   A    
C38   C53   S    
O12   V3    S    
C9    C10   A    
C57   H28   S    
C42   C49   A    
O15   C55   A    
O13   V3    S    
C2    C51   S    
C30   C31   S    
