data_mof_unit_53138.cif
_audit_creation_date              2012-12-10T17:56:47-0500
_audit_creation_method            fapswitch 2.2
_symmetry_space_group_name_H-M    P1
_symmetry_Int_Tables_number       1
_space_group_crystal_system       triclinic
_cell_length_a                    10.842513
_cell_length_b                    9.567738
_cell_length_c                    10.986922
_cell_angle_alpha                 90.182551
_cell_angle_beta                  92.381201
_cell_angle_gamma                 89.975842
_cell_volume                      1138.77487368

loop_
_atom_site_label
_atom_site_type_symbol
_atom_type_description
_atom_site_fract_x
_atom_site_fract_y
_atom_site_fract_z
_atom_type_partial_charge
C1    C     C_R   0.262229 0.500136 0.500720 0.806724
C2    C     C_R   0.737759 0.500095 0.498978 0.803934
C3    C     C_R   0.936013 0.627844 0.498630 -0.160563
C4    C     C_R   0.063755 0.627854 0.498395 -0.156581
C5    C     C_R   0.409068 0.072003 0.437901 0.055814
C6    C     C_R   0.590869 0.072647 0.562207 0.058731
C7    C     C_R   0.410312 0.924175 0.437284 -0.048984
C8    C     C_R   0.589762 0.924716 0.562741 -0.049901
C9    C     C_R   0.506687 0.499685 0.262446 0.826348
C10   C     C_R   0.497147 0.500303 0.737717 0.838226
C11   C     C_R   0.568387 0.755902 0.110985 0.037166
C12   C     C_R   0.423511 0.749533 0.894401 0.036678
C13   C     C_R   0.528885 0.880135 0.055764 -0.209743
C14   C     C_R   0.448968 0.876346 0.953409 -0.198133
C15   C     C_R   0.479350 0.625037 0.940225 -0.011124
C16   C     C_R   0.525594 0.626340 0.062277 -0.003229
C17   C     C_R   0.518949 0.498987 0.128709 -0.221357
C18   C     C_R   0.495939 0.500235 0.871925 -0.220920
C19   C     C_R   0.508679 0.372778 0.060857 0.211068
C20   C     C_R   0.525341 0.376241 0.936184 0.223247
C21   C     C_R   0.063798 0.374322 0.503657 -0.158637
C22   C     C_R   0.936354 0.374221 0.497317 -0.158761
C23   C     C_R   0.871653 0.500757 0.497818 -0.024547
C24   C     C_R   0.128309 0.500835 0.501372 -0.023407
Cu1   Cu    Cu3+1 0.500000 0.640660 0.500000 0.968897
Cu2   Cu    Cu3+1 0.500000 0.359340 0.500000 0.971252
H1    H     H_    0.557588 0.979463 0.094125 0.157382
H2    H     H_    0.408383 0.972174 0.918710 0.142876
H3    H     H_    0.111211 0.275128 0.510089 0.170322
H4    H     H_    0.889113 0.274861 0.492455 0.168253
H5    H     H_    0.888024 0.727136 0.498855 0.165665
H6    H     H_    0.111617 0.727127 0.496691 0.163768
H7    H     H_    0.338460 0.866648 0.387381 0.128830
H8    H     H_    0.661601 0.867628 0.612776 0.127005
N1    N     N_R   0.500000 0.852070 0.500000 -0.166326
N2    N     N_R   0.500000 0.147940 0.500000 -0.207403
O1    O     O_R   0.319640 0.618740 0.499990 -0.583748
O2    O     O_R   0.680360 0.618740 0.500010 -0.584495
O3    O     O_R   0.319620 0.381170 0.499990 -0.585120
O4    O     O_R   0.680380 0.381170 0.500010 -0.587456
O5    O     O_R   0.500000 0.618810 0.319650 -0.579256
O6    O     O_R   0.500000 0.618810 0.680350 -0.583383
O7    O     O_R   0.499970 0.381240 0.319640 -0.584524
O8    O     O_R   0.500030 0.381240 0.680360 -0.557875
N3    N     N_2   0.471519 0.242687 0.109826 -0.443589
H9    H     H_    0.514159 0.202584 0.187390 0.270822
C25   C     C_3   0.344239 0.205205 0.081952 -0.648432
H10   H     H_    0.325101 0.099808 0.118499 0.229123
H11   H     H_    0.324896 0.202089 0.982047 0.208203
H12   H     H_    0.281990 0.284006 0.121114 0.252947
N4    N     N_2   0.565358 0.252524 0.876793 -0.390974
H13   H     H_    0.496359 0.180289 0.860395 0.253369
C26   C     C_3   0.679566 0.192561 0.926820 -0.615256
H14   H     H_    0.698641 0.092208 0.880355 0.222594
H15   H     H_    0.674816 0.169519 0.025178 0.210025
H16   H     H_    0.757123 0.266193 0.914242 0.242207
C27   C     C_1   0.668332 0.764317 0.201807 0.254702
N5    N     N_1   0.748991 0.772043 0.273809 -0.299106
C28   C     C_1   0.323331 0.747660 0.803658 0.251463
N6    N     N_1   0.242183 0.747184 0.731909 -0.297373
C29   C     C_1   0.306528 0.137821 0.374659 0.263140
N7    N     N_1   0.221747 0.187604 0.324259 -0.330182
C30   C     C_1   0.692326 0.139978 0.626283 0.286205
N8    N     N_1   0.775784 0.192078 0.677305 -0.316601

loop_
_geom_bond_atom_site_label_1
_geom_bond_atom_site_label_2
_ccdc_geom_bond_type
C6    C30   S    
Cu1   O6    S    
C15   C18   A    
C19   N3    S    
C26   H14   S    
Cu1   O2    S    
C10   O6    A    
C11   C13   A    
C11   C16   A    
C2    O2    A    
C9    O5    A    
C19   C20   A    
C12   C15   A    
C1    O1    A    
Cu1   O1    S    
C26   H15   S    
Cu1   Cu2   S    
C21   C24   A    
C5    C29   S    
C28   N6    T    
C25   H11   S    
C8    H8    S    
C13   C14   A    
C3    H5    S    
C7    H7    S    
Cu2   O4    S    
C27   N5    T    
C4    H6    S    
C11   C27   S    
Cu1   N1    S    
C9    C17   S    
C17   C19   A    
C10   C18   S    
Cu2   O7    S    
C25   H12   S    
C18   C20   A    
N3    C25   S    
C29   N7    T    
C4    C24   A    
C21   H3    S    
Cu2   O3    S    
C9    O7    A    
C16   C17   A    
C1    O3    A    
Cu2   O8    S    
C15   C16   A    
C5    N2    A    
C2    O4    A    
C12   C14   A    
C7    N1    A    
N4    H13   S    
C1    C24   S    
Cu1   O5    S    
C26   H16   S    
Cu2   N2    S    
C2    C23   S    
C5    C7    A    
C20   N4    S    
C13   H1    S    
C6    C8    A    
C22   H4    S    
C14   H2    S    
C3    C23   A    
C21   C22   A    
C12   C28   S    
C10   O8    A    
C22   C23   A    
C3    C4    A    
C25   H10   S    
C6    N2    A    
C30   N8    T    
N4    C26   S    
C8    N1    A    
N3    H9    S    
