data_mof_unit_55364.cif
_audit_creation_date              2013-03-05T15:43:16-0500
_audit_creation_method            fapswitch 2.2
_symmetry_space_group_name_H-M    P1
_symmetry_Int_Tables_number       1
_space_group_crystal_system       triclinic
_cell_length_a                    12.749299
_cell_length_b                    12.766306
_cell_length_c                    27.121363
_cell_angle_alpha                 89.983902
_cell_angle_beta                  90.052047
_cell_angle_gamma                 119.94439
_cell_volume                      3825.04546676

loop_
_atom_site_label
_atom_site_type_symbol
_atom_site_description
_atom_site_fract_x
_atom_site_fract_y
_atom_site_fract_z
_atom_type_partial_charge
O1    O     O_R   0.460870 0.120930 0.805240 -0.458937
O2    O     O_R   0.660060 0.539130 0.694760 -0.465694
O3    O     O_R   0.879070 0.339940 0.805240 -0.459725
O4    O     O_R   0.460870 0.120930 0.694760 -0.468453
O5    O     O_R   0.660060 0.539130 0.805240 -0.459331
O6    O     O_R   0.879070 0.339940 0.694760 -0.467223
O7    O     O_R   0.120930 0.460870 0.305240 -0.405797
O8    O     O_R   0.539130 0.660060 0.194760 -0.405884
O9    O     O_R   0.339940 0.879070 0.305240 -0.409617
O10   O     O_R   0.120930 0.460870 0.194760 -0.408477
O11   O     O_R   0.539130 0.660060 0.305240 -0.405706
O12   O     O_R   0.339940 0.879070 0.194760 -0.407828
O13   O     O_R   0.498910 0.350470 0.801870 -0.432842
O14   O     O_R   0.851560 0.501090 0.698130 -0.419971
O15   O     O_R   0.649530 0.148440 0.801870 -0.434286
O16   O     O_R   0.498910 0.350470 0.698130 -0.426182
O17   O     O_R   0.851560 0.501090 0.801870 -0.433350
O18   O     O_R   0.649530 0.148440 0.698130 -0.421805
O19   O     O_R   0.350470 0.498910 0.301870 -0.456745
O20   O     O_R   0.501090 0.851560 0.198130 -0.463078
O21   O     O_R   0.148440 0.649530 0.301870 -0.456975
O22   O     O_R   0.350470 0.498910 0.198130 -0.459683
O23   O     O_R   0.501090 0.851560 0.301870 -0.456641
O24   O     O_R   0.148440 0.649530 0.198130 -0.458635
C1    C     C_R   0.561804 0.454616 0.823035 0.625978
C2    C     C_R   0.891054 0.437177 0.676611 0.622232
C3    C     C_R   0.545325 0.106797 0.823008 0.626942
C4    C     C_R   0.562326 0.453891 0.676694 0.620983
C5    C     C_R   0.892928 0.438223 0.823046 0.625667
C6    C     C_R   0.546407 0.109218 0.676518 0.621442
C7    C     C_R   0.454883 0.558019 0.322262 0.609505
C8    C     C_R   0.441471 0.895980 0.177564 0.628539
C9    C     C_R   0.102528 0.544994 0.322083 0.606389
C10   C     C_R   0.454742 0.558114 0.177724 0.628946
C11   C     C_R   0.442291 0.897068 0.322211 0.607764
C12   C     C_R   0.103353 0.545407 0.177693 0.623992
C13   C     C_R   0.964427 0.494751 0.977216 -0.082948
C14   C     C_R   0.536409 0.043028 0.521905 -0.083639
C15   C     C_R   0.505760 0.471836 0.977044 -0.084160
C16   C     C_R   0.961843 0.492440 0.522317 -0.080093
C17   C     C_R   0.531239 0.035588 0.977190 -0.083459
C18   C     C_R   0.507663 0.465599 0.522119 -0.087920
C19   C     C_R   0.528667 0.020442 0.470709 -0.082054
C20   C     C_R   0.984654 0.509907 0.028499 -0.089079
C21   C     C_R   0.492857 0.473912 0.471011 -0.083432
C22   C     C_R   0.525542 0.014791 0.028421 -0.085669
C23   C     C_R   0.983683 0.506935 0.471085 -0.083923
C24   C     C_R   0.490747 0.477733 0.028272 -0.087490
C25   C     C_R   0.081920 0.713520 0.965258 0.166508
C26   C     C_R   0.645853 0.933318 0.533091 0.156847
C27   C     C_R   0.286700 0.370861 0.965063 0.167192
C28   C     C_R   0.075397 0.711257 0.533433 0.153737
C29   C     C_R   0.633191 0.918244 0.965300 0.169215
C30   C     C_R   0.288696 0.351134 0.532892 0.166204
C31   C     C_R   0.635868 0.908189 0.482344 0.160599
C32   C     C_R   0.105442 0.728638 0.016266 0.145814
C33   C     C_R   0.273135 0.363976 0.482372 0.157282
C34   C     C_R   0.626081 0.895905 0.016434 0.140319
C35   C     C_R   0.098924 0.725796 0.482591 0.170361
C36   C     C_R   0.271873 0.381645 0.015889 0.144853
C37   C     C_R   0.996853 0.576993 0.893709 0.383592
C38   C     C_R   0.590051 0.014196 0.605283 0.357607
C39   C     C_R   0.423009 0.419937 0.893626 0.383551
C40   C     C_R   0.988013 0.575425 0.605484 0.360127
C41   C     C_R   0.579950 0.002214 0.893636 0.380910
C42   C     C_R   0.424224 0.412067 0.605221 0.366734
C43   C     C_R   0.555448 0.919775 0.400211 0.296271
C44   C     C_R   0.089369 0.636714 0.098579 0.312377
C45   C     C_R   0.365062 0.445310 0.400321 0.298005
C46   C     C_R   0.541333 0.904584 0.097845 0.298069
C47   C     C_R   0.077855 0.634363 0.399931 0.305686
C48   C     C_R   0.363738 0.454721 0.098399 0.314254
C49   C     C_R   0.048024 0.533076 0.128670 0.050519
C50   C     C_R   0.486322 0.954541 0.370814 0.041507
C51   C     C_R   0.467363 0.516285 0.128572 0.058782
C52   C     C_R   0.044939 0.530894 0.370685 0.044108
C53   C     C_R   0.482943 0.949552 0.128302 0.052538
C54   C     C_R   0.468811 0.515068 0.371044 0.045900
C55   C     C_R   0.536660 0.078123 0.624074 0.055577
C56   C     C_R   0.927680 0.459967 0.875144 0.070121
C57   C     C_R   0.541297 0.464019 0.624273 0.058411
C58   C     C_R   0.532632 0.072116 0.875117 0.071279
C59   C     C_R   0.923908 0.458481 0.624356 0.066038
C60   C     C_R   0.540126 0.467741 0.875083 0.070801
C61   C     C_R   0.015222 0.596165 0.945120 0.003042
C62   C     C_R   0.591291 0.996069 0.553812 -0.023153
C63   C     C_R   0.404070 0.420374 0.944983 0.002544
C64   C     C_R   0.008987 0.594344 0.554115 -0.022376
C65   C     C_R   0.581615 0.984394 0.945093 0.003736
C66   C     C_R   0.405716 0.409367 0.553739 -0.014782
C67   C     C_R   0.574627 0.949324 0.450782 -0.025320
C68   C     C_R   0.059491 0.626507 0.048096 -0.009233
C69   C     C_R   0.375578 0.427027 0.450980 -0.024664
C70   C     C_R   0.566360 0.938974 0.047936 -0.011175
C71   C     C_R   0.053537 0.623721 0.450939 -0.022164
C72   C     C_R   0.374065 0.436453 0.047808 -0.007968
Cr1   Cr    Cr6+3 0.487630 0.241180 0.750000 1.184609
Cr2   Cr    Cr6+3 0.753550 0.512370 0.750000 1.187195
Cr3   Cr    Cr6+3 0.758820 0.246450 0.750000 1.185243
Cr4   Cr    Cr6+3 0.241180 0.487630 0.250000 1.192045
Cr5   Cr    Cr6+3 0.512370 0.753550 0.250000 1.189052
Cr6   Cr    Cr6+3 0.246450 0.758820 0.250000 1.193564
O25   O     O_3   0.666667 0.333333 0.750000 -0.354662
O26   O     O_3   0.333333 0.666667 0.250000 -0.352518
C73   C     C_R   0.877992 0.360384 0.907318 0.298029
C74   C     C_R   0.486202 0.127319 0.591995 0.280056
C75   C     C_R   0.640004 0.518400 0.907217 0.298896
C76   C     C_R   0.876713 0.358700 0.592453 0.277150
C77   C     C_R   0.483502 0.122538 0.907338 0.299355
C78   C     C_R   0.641292 0.513632 0.592371 0.279370
C79   C     C_R   0.449743 0.032580 0.390048 0.328624
C80   C     C_R   0.965492 0.419456 0.109840 0.328203
C81   C     C_R   0.583756 0.553545 0.390559 0.333325
C82   C     C_R   0.454270 0.034146 0.109751 0.330453
C83   C     C_R   0.969967 0.416049 0.390369 0.332590
C84   C     C_R   0.581334 0.548587 0.109637 0.334967
C85   C     C_R   0.894963 0.376990 0.957954 0.023821
C86   C     C_R   0.485674 0.110259 0.541331 0.025638
C87   C     C_R   0.623613 0.519823 0.957805 0.022094
C88   C     C_R   0.894148 0.374838 0.541810 0.014734
C89   C     C_R   0.483107 0.105426 0.957951 0.022881
C90   C     C_R   0.625450 0.515554 0.541717 0.016865
C91   C     C_R   0.470821 0.066097 0.439709 0.015491
C92   C     C_R   0.933708 0.407035 0.059908 0.014155
C93   C     C_R   0.596451 0.532846 0.440233 0.011717
C94   C     C_R   0.473331 0.065632 0.059813 0.012049
C95   C     C_R   0.937684 0.403511 0.440167 0.012958
C96   C     C_R   0.593813 0.529806 0.059677 0.009929
C97   C     C_R   0.859918 0.291789 0.040093 -0.095520
C98   C     C_R   0.426584 0.137400 0.459629 -0.097198
C99   C     C_R   0.709248 0.571514 0.039875 -0.098567
C100  C     C_R   0.867061 0.288141 0.460238 -0.094912
C101  C     C_R   0.432050 0.139747 0.040037 -0.096205
C102  C     C_R   0.712144 0.577491 0.460309 -0.096036
C103  C     C_R   0.431918 0.157048 0.509990 -0.092985
C104  C     C_R   0.842576 0.276873 0.989572 -0.104178
C105  C     C_R   0.726367 0.570167 0.510595 -0.092206
C106  C     C_R   0.435240 0.157837 0.989561 -0.105872
C107  C     C_R   0.847040 0.274149 0.510569 -0.104419
C108  C     C_R   0.724029 0.568374 0.989394 -0.103895
H1    H     H_    0.820081 0.212041 0.063300 0.169580
H2    H     H_    0.382138 0.173243 0.436718 0.172984
H3    H     H_    0.789150 0.611467 0.063083 0.172521
H4    H     H_    0.830805 0.207888 0.437393 0.171389
H5    H     H_    0.391968 0.179522 0.063234 0.175264
H6    H     H_    0.792455 0.622373 0.437512 0.177668
H7    H     H_    0.389696 0.205315 0.524518 0.169273
H8    H     H_    0.790103 0.186166 0.975268 0.159546
H9    H     H_    0.817013 0.611171 0.525225 0.172777
H10   H     H_    0.397506 0.210948 0.975285 0.159697
H11   H     H_    0.798124 0.183769 0.525171 0.169017
H12   H     H_    0.814817 0.606310 0.975108 0.160655
F1    F     F_    0.165995 0.746590 0.118178 -0.629908
F2    F     F_    0.598168 0.851778 0.379551 -0.623858
F3    F     F_    0.253583 0.419621 0.118235 -0.630864
F4    F     F_    0.136772 0.745111 0.378538 -0.615897
F5    F     F_    0.562457 0.818009 0.116130 -0.638991
F6    F     F_    0.254261 0.399628 0.379288 -0.621993
F7    F     F_    0.639319 0.970723 0.638081 -0.622859
F8    F     F_    0.046537 0.670176 0.861104 -0.583166
F9    F     F_    0.330516 0.367771 0.637537 -0.622370
F10   F     F_    0.621933 0.951234 0.860926 -0.586181
F11   F     F_    0.027363 0.668201 0.638051 -0.619917
F12   F     F_    0.329547 0.375699 0.861035 -0.582819
N1    N     N_2   0.178856 0.848339 0.034145 -0.491477
H13   H     H_    0.259432 0.867280 0.050217 0.301995
C109  C     C_3   0.117268 0.907727 0.054631 -0.234476
H14   H     H_    0.138321 0.925779 0.094499 0.237800
H15   H     H_    0.017490 0.852262 0.049959 0.127796
H16   H     H_    0.149488 0.995212 0.035470 0.112009
N2    N     N_2   0.685915 0.837590 0.464740 -0.463849
H17   H     H_    0.627900 0.761020 0.445391 0.306374
C110  C     C_3   0.807980 0.905656 0.445980 -0.229783
H18   H     H_    0.837858 0.842541 0.432744 0.165544
H19   H     H_    0.870041 0.962439 0.475794 0.126919
H20   H     H_    0.812673 0.964240 0.414800 0.205960
N3    N     N_2   0.152755 0.341409 0.033326 -0.492036
H21   H     H_    0.139086 0.406246 0.049630 0.298648
C111  C     C_3   0.087833 0.220976 0.054062 -0.233989
H22   H     H_    0.063163 0.224959 0.092980 0.240496
H23   H     H_    0.142421 0.175155 0.052817 0.133159
H24   H     H_    0.003462 0.166953 0.032703 0.112333
N4    N     N_2   0.174814 0.845317 0.464956 -0.455709
H25   H     H_    0.248271 0.861742 0.443738 0.298564
C112  C     C_3   0.118086 0.917126 0.455467 -0.225930
H26   H     H_    0.113870 0.929740 0.415138 0.214933
H27   H     H_    0.172695 0.006665 0.473130 0.133809
H28   H     H_    0.025051 0.874227 0.471000 0.129518
N5    N     N_2   0.677294 0.826865 0.034722 -0.499617
H29   H     H_    0.615441 0.745016 0.049555 0.309148
C113  C     C_3   0.789559 0.893126 0.061867 -0.235738
H30   H     H_    0.818891 0.829592 0.075237 0.173081
H31   H     H_    0.778904 0.940596 0.094085 0.216382
H32   H     H_    0.861297 0.960538 0.037670 0.099410
N6    N     N_2   0.152577 0.315464 0.464798 -0.469062
H33   H     H_    0.135237 0.374080 0.445208 0.306303
C114  C     C_3   0.096640 0.193151 0.446308 -0.233550
H34   H     H_    0.006179 0.166870 0.430936 0.162581
H35   H     H_    0.084705 0.130508 0.476884 0.127627
H36   H     H_    0.152680 0.185178 0.416820 0.205114
N7    N     N_2   0.714540 0.896227 0.562129 -0.470005
H37   H     H_    0.776898 0.960271 0.585761 0.319029
C115  C     C_3   0.646188 0.775690 0.582168 -0.229765
H38   H     H_    0.708897 0.752584 0.601260 0.196714
H39   H     H_    0.598901 0.710084 0.552066 0.144736
H40   H     H_    0.577329 0.769033 0.608898 0.198620
N8    N     N_2   0.127811 0.817330 0.934147 -0.412604
H41   H     H_    0.212847 0.886768 0.943374 0.270436
C116  C     C_3   0.043005 0.859000 0.924449 -0.234940
H42   H     H_    0.024832 0.894996 0.958598 0.090337
H43   H     H_    0.956214 0.784331 0.909994 0.229203
H44   H     H_    0.081646 0.931963 0.896392 0.163143
N9    N     N_2   0.185744 0.269421 0.561052 -0.479574
H45   H     H_    0.195338 0.210748 0.584251 0.317081
C117  C     C_3   0.106990 0.312730 0.578199 -0.211333
H46   H     H_    0.120495 0.332761 0.618259 0.214654
H47   H     H_    0.011966 0.240762 0.572097 0.180875
H48   H     H_    0.123853 0.395862 0.558296 0.142859
N10   N     N_2   0.689272 0.870464 0.934055 -0.415270
H49   H     H_    0.675336 0.786498 0.944051 0.269925
C118  C     C_3   0.814262 0.954594 0.921820 -0.229073
H50   H     H_    0.873046 0.972308 0.954439 0.084631
H51   H     H_    0.825083 0.041594 0.908339 0.228823
H52   H     H_    0.844287 0.915386 0.892263 0.170026
N11   N     N_2   0.122174 0.817300 0.562936 -0.466042
H53   H     H_    0.060516 0.823618 0.585455 0.320374
C119  C     C_3   0.238591 0.853869 0.585041 -0.230362
H54   H     H_    0.266496 0.935905 0.607656 0.188032
H55   H     H_    0.306501 0.873188 0.555796 0.139473
H56   H     H_    0.234869 0.781898 0.609178 0.194062
N12   N     N_2   0.182625 0.311731 0.934047 -0.411935
H57   H     H_    0.112991 0.327516 0.942773 0.271846
C120  C     C_3   0.141204 0.185116 0.925372 -0.236381
H58   H     H_    0.106278 0.132566 0.959961 0.085359
H59   H     H_    0.215909 0.172780 0.911044 0.228105
H60   H     H_    0.067482 0.149288 0.897556 0.162080
F13   F     F_    0.921910 0.320335 0.139381 -0.610269
F14   F     F_    0.388110 0.070739 0.361128 -0.597238
F15   F     F_    0.680656 0.604263 0.139174 -0.603535
F16   F     F_    0.932666 0.316332 0.361605 -0.596928
F17   F     F_    0.400469 0.079379 0.139469 -0.604119
F18   F     F_    0.683518 0.615832 0.361786 -0.593005
F19   F     F_    0.436137 0.191386 0.610194 -0.638603
F20   F     F_    0.808725 0.246510 0.889458 -0.651108
F21   F     F_    0.755166 0.561875 0.610725 -0.631805
F22   F     F_    0.439241 0.192287 0.889517 -0.649218
F23   F     F_    0.812078 0.244780 0.610685 -0.637235
F24   F     F_    0.753985 0.562882 0.889375 -0.649622

loop_
_geom_bond_atom_site_label_1
_geom_bond_atom_site_label_2
_geom_bond_distance
_ccdc_geom_bond_type
C93   C102  1.398718 A    
C29   N10   1.427646 S    
C30   N9    1.424345 S    
Cr3   O25   1.977781 S    
N2    H17   1.027524 S    
C11   C50   1.476177 S    
C100  H4    1.083639 S    
N1    H13   1.027166 S    
C16   C23   1.411216 A    
O7    C9    1.291930 A    
N7    H37   1.030421 S    
C76   C88   1.390323 A    
C17   C65   1.420496 A    
C98   C103  1.384233 A    
C15   C63   1.420037 A    
C74   F19   1.357203 S    
C115  H38   1.108571 S    
C21   C69   1.412220 A    
C57   C78   1.403788 A    
C60   C75   1.405515 A    
C102  C105  1.384937 A    
C41   C58   1.396143 A    
C109  H15   1.111845 S    
O23   Cr5   1.935533 S    
C110  H18   1.109057 S    
C106  H10   1.079928 S    
C100  C107  1.383967 A    
C41   C65   1.415787 A    
C38   C62   1.416498 A    
C84   F15   1.360268 S    
C2    C59   1.464598 S    
C33   N6    1.421870 S    
C43   F2    1.355352 S    
C87   C108  1.401184 A    
C13   C61   1.420099 A    
C46   C70   1.409754 A    
N11   H53   1.030368 S    
C80   C92   1.399370 A    
C118  H52   1.109851 S    
C45   C69   1.410978 A    
C117  H47   1.108029 S    
C47   C52   1.413046 A    
C82   C94   1.399206 A    
C47   C71   1.409627 A    
O16   Cr1   1.935291 S    
C112  H27   1.107270 S    
O21   C9    1.282370 A    
C37   C56   1.395551 A    
Cr2   O25   1.980805 S    
N11   C119  1.444692 S    
Cr4   O26   1.980820 S    
C116  H44   1.109751 S    
C83   C95   1.397952 A    
C59   C76   1.402817 A    
C114  H35   1.108490 S    
C17   C89   1.410344 A    
N5    C113  1.447727 S    
C83   F16   1.360444 S    
O17   Cr2   1.933264 S    
C31   C67   1.423370 A    
C99   C108  1.385505 A    
C116  H43   1.110481 S    
C8    C53   1.473803 S    
C95   C100  1.397445 A    
C25   N8    1.427167 S    
C94   C101  1.398666 A    
C21   C93   1.420169 A    
O9    Cr6   2.047745 S    
N3    C111  1.447460 S    
C41   F10   1.358681 S    
C1    C60   1.464312 S    
C17   C22   1.409650 A    
O18   C6    1.290110 A    
O1    C3    1.271652 A    
O8    Cr5   2.047899 S    
C108  H12   1.079590 S    
C73   F20   1.358635 S    
O16   C4    1.292130 A    
C20   C68   1.410786 A    
C84   C96   1.399101 A    
C10   C51   1.474686 S    
C111  H24   1.107587 S    
C39   C63   1.414360 A    
O11   Cr5   2.046953 S    
C44   C49   1.413640 A    
C110  H19   1.109927 S    
O19   C7    1.281970 A    
C101  C106  1.385519 A    
N1    C109  1.447548 S    
C48   F3    1.354824 S    
C33   C69   1.425044 A    
O4    Cr1   2.048202 S    
O12   C8    1.289095 A    
C46   C53   1.412136 A    
N7    C115  1.443740 S    
C74   C86   1.390763 A    
C73   C85   1.389795 A    
C45   C54   1.413761 A    
C114  H34   1.108796 S    
C35   C71   1.420144 A    
C52   C83   1.396300 A    
C48   C51   1.412300 A    
C102  H6    1.083620 S    
C31   N2    1.422085 S    
O14   Cr2   1.934976 S    
C109  H16   1.108260 S    
N9    C117  1.444059 S    
C39   F12   1.358915 S    
O22   C10   1.281745 A    
C115  H40   1.109116 S    
C79   F14   1.360435 S    
O22   Cr4   1.935046 S    
O7    Cr4   2.047604 S    
C27   N12   1.427051 S    
N8    H41   1.031517 S    
C77   C89   1.389519 A    
C58   C77   1.405052 A    
C25   C61   1.411996 A    
C38   C55   1.394485 A    
C28   C64   1.413514 A    
C42   C66   1.413420 A    
C44   F1    1.354968 S    
C117  H48   1.111776 S    
O1    Cr1   2.048022 S    
N10   H49   1.031460 S    
C88   C107  1.399981 A    
C81   F18   1.360425 S    
C112  H28   1.112026 S    
O20   Cr5   1.934834 S    
C36   N3    1.419954 S    
N9    H45   1.031012 S    
C79   C91   1.397960 A    
C56   C73   1.405467 A    
C20   C92   1.421656 A    
C19   C67   1.411276 A    
C113  H30   1.109785 S    
C55   C74   1.402598 A    
C18   C66   1.417862 A    
C18   C21   1.409834 A    
C48   C72   1.409088 A    
C89   C106  1.401436 A    
C32   N1    1.420591 S    
C114  H36   1.110901 S    
C35   N4    1.421159 S    
N4    H25   1.028122 S    
C113  H31   1.109908 S    
C40   C59   1.393201 A    
O12   Cr6   2.048700 S    
C118  H50   1.106875 S    
C28   C35   1.403860 A    
N10   C118  1.447452 S    
C97   C104  1.385710 A    
C115  H39   1.107640 S    
C75   F24   1.358553 S    
C9    C52   1.476038 S    
O15   C3    1.293217 A    
C119  H54   1.107968 S    
C22   C70   1.410623 A    
C29   C34   1.409623 A    
C82   F17   1.360249 S    
C34   N5    1.422265 S    
C43   C67   1.410988 A    
C116  H42   1.108856 S    
C13   C85   1.409887 A    
N12   C120  1.447342 S    
C43   C50   1.413637 A    
O8    C10   1.290890 A    
O14   C2    1.292609 A    
O10   Cr4   2.045707 S    
C120  H59   1.110586 S    
O2    Cr2   2.045713 S    
Cr1   O25   1.978237 S    
C37   C61   1.414686 A    
O5    C1    1.271914 A    
O21   Cr6   1.936158 S    
C36   C72   1.422925 A    
C78   F21   1.356860 S    
C105  H9    1.078135 S    
C14   C62   1.419573 A    
C77   F22   1.358596 S    
N3    H21   1.027319 S    
Cr5   O26   1.978119 S    
O23   C11   1.280451 A    
C91   C98   1.397109 A    
C29   C65   1.413985 A    
C37   F8    1.358865 S    
C54   C81   1.396107 A    
C101  H5    1.083778 S    
O18   Cr3   1.934694 S    
C6    C55   1.465215 S    
C27   C63   1.411495 A    
C53   C82   1.395191 A    
C96   C99   1.398872 A    
C19   C91   1.420635 A    
C109  H14   1.110035 S    
C99   H3    1.083696 S    
C18   C90   1.409609 A    
C49   C80   1.395600 A    
N8    C116  1.447351 S    
O20   C8    1.280555 A    
C26   N7    1.422600 S    
C50   C79   1.395238 A    
C24   C96   1.421359 A    
C24   C72   1.410714 A    
C16   C88   1.408983 A    
C4    C57   1.464164 S    
C22   C94   1.421928 A    
C3    C58   1.465649 S    
C90   C105  1.400012 A    
O15   Cr3   1.936021 S    
O13   C1    1.294396 A    
C110  H20   1.110438 S    
O19   Cr4   1.933262 S    
C30   C66   1.410531 A    
C27   C36   1.407610 A    
C111  H22   1.110058 S    
N2    C110  1.444650 S    
C25   C32   1.408053 A    
C39   C60   1.395120 A    
C103  H7    1.075350 S    
C26   C31   1.404477 A    
C75   C87   1.389498 A    
Cr6   O26   1.977884 S    
O24   C12   1.281253 A    
C46   F5    1.355219 S    
O6    Cr3   2.048392 S    
C16   C64   1.420044 A    
C13   C20   1.410017 A    
N4    C112  1.446077 S    
C34   C70   1.425266 A    
C113  H32   1.105804 S    
C14   C19   1.411510 A    
C118  H51   1.110507 S    
C119  H55   1.107932 S    
C76   F23   1.357415 S    
O17   C5    1.293801 A    
C78   C90   1.390399 A    
C42   C57   1.394720 A    
O3    C5    1.271857 A    
C112  H26   1.110665 S    
O6    C2    1.271638 A    
C5    C56   1.464961 S    
C23   C95   1.420247 A    
C15   C87   1.409792 A    
C47   F4    1.356440 S    
C81   C93   1.397548 A    
C107  H11   1.076517 S    
C44   C68   1.409352 A    
C45   F6    1.355483 S    
C92   C97   1.398645 A    
O24   Cr6   1.935080 S    
C117  H46   1.109662 S    
O13   Cr1   1.935669 S    
N5    H29   1.026284 S    
C98   H2    1.083821 S    
C120  H60   1.109704 S    
O2    C4    1.273723 A    
C12   C49   1.475694 S    
C26   C62   1.413778 A    
O11   C7    1.291317 A    
N6    H33   1.027536 S    
C14   C86   1.409890 A    
O3    Cr3   2.046842 S    
C28   N11   1.422096 S    
C32   C68   1.423435 A    
C119  H56   1.109601 S    
C97   H1    1.083802 S    
O5    Cr2   2.047437 S    
C42   F9    1.357358 S    
C80   F13   1.360226 S    
C104  H8    1.079526 S    
N12   H57   1.031399 S    
O9    C11   1.291153 A    
C23   C71   1.410460 A    
C38   F7    1.356665 S    
O10   C12   1.292350 A    
C51   C84   1.395762 A    
C111  H23   1.110926 S    
C85   C104  1.401162 A    
C7    C54   1.476128 S    
C40   C64   1.416636 A    
O4    C6    1.272867 A    
C86   C103  1.398692 A    
C120  H58   1.109319 S    
C15   C24   1.409805 A    
N6    C114  1.444440 S    
C30   C33   1.405519 A    
C40   F11   1.356914 S    
