data_mof_unit_62028.cif
_audit_creation_date              2012-12-10T18:27:42-0500
_audit_creation_method            fapswitch 2.2
_symmetry_space_group_name_H-M    P1
_symmetry_Int_Tables_number       1
_space_group_crystal_system       triclinic
_cell_length_a                    19.332771
_cell_length_b                    19.184126
_cell_length_c                    19.419979
_cell_angle_alpha                 111.460516
_cell_angle_beta                  111.784269
_cell_angle_gamma                 104.216657
_cell_volume                      5585.64062275

loop_
_atom_site_label
_atom_site_type_symbol
_atom_type_description
_atom_site_fract_x
_atom_site_fract_y
_atom_site_fract_z
_atom_type_partial_charge
C1    C     C_R   0.891762 0.391986 0.999905 0.801681
C2    C     C_R   0.920296 0.812771 0.054866 0.156712
C3    C     C_R   0.739334 0.569253 0.757515 -0.219375
C4    C     C_R   0.682503 0.493537 0.681956 -0.127097
C5    C     C_R   0.684785 0.418172 0.674412 -0.077322
C6    C     C_R   0.749226 0.421405 0.741935 0.459742
C7    C     C_R   0.809971 0.499111 0.816492 -0.180569
C8    C     C_R   0.801163 0.573046 0.826587 0.009896
C9    C     C_R   0.541763 0.300112 0.584931 -0.159502
C10   C     C_R   0.484596 0.218941 0.517416 -0.214525
C11   C     C_R   0.506145 0.171555 0.462104 0.170619
C12   C     C_R   0.880819 0.500687 0.881736 0.835598
C13   C     C_R   0.585666 0.206527 0.474131 0.168405
C14   C     C_R   0.643280 0.287261 0.543039 -0.175623
C15   C     C_R   0.621311 0.335301 0.597693 0.090133
C16   C     C_1   0.830000 0.331248 0.999106 -0.161041
C17   C     C_1   0.778320 0.280183 0.998520 0.055816
C18   C     C_1   0.718374 0.220241 0.998427 0.049533
C19   C     C_1   0.667736 0.169063 0.998810 -0.148463
C20   C     C_R   0.997843 0.501637 0.281439 -0.193210
C21   C     C_R   0.074011 0.523181 0.285128 -0.134094
C22   C     C_R   0.093550 0.460928 0.243675 -0.050607
C23   C     C_R   0.108474 0.607908 0.000217 0.821036
C24   C     C_R   0.036569 0.376206 0.199285 0.112828
C25   C     C_R   0.961104 0.354058 0.198174 0.499051
C26   C     C_R   0.941331 0.417853 0.237887 -0.253567
C27   C     C_R   0.240097 0.486022 0.311132 -0.191211
C28   C     C_R   0.314443 0.497881 0.310834 -0.087402
C29   C     C_R   0.322523 0.507100 0.244784 0.091221
C30   C     C_R   0.256579 0.506867 0.182196 -0.159838
C31   C     C_R   0.183577 0.497023 0.184141 -0.049751
C32   C     C_R   0.174178 0.484585 0.247683 0.060231
C33   C     C_R   0.440796 0.578842 0.232152 0.477242
C34   C     C_R   0.117590 0.498539 0.118313 0.806087
C35   C     C_R   0.507485 0.579054 0.218410 -0.356912
C36   C     C_R   0.524802 0.509102 0.200074 0.508785
C37   C     C_R   0.478676 0.442280 0.202680 -0.185868
C38   C     C_R   0.414969 0.443153 0.220054 -0.306838
C39   C     C_R   0.395583 0.511053 0.234874 0.024831
C40   C     C_1   0.170313 0.667949 0.000362 -0.130604
C41   C     C_1   0.221990 0.718038 0.999955 0.029877
C42   C     C_1   0.281854 0.777856 0.999805 0.019623
C43   C     C_1   0.332374 0.829647 0.999941 -0.136661
C44   C     C_R   0.501685 0.380966 0.382241 0.863119
C45   C     C_R   0.878662 0.740760 0.053730 0.434056
C46   C     C_R   0.618243 0.495476 0.615049 0.827998
C47   C     C_R   0.497450 0.619158 0.616560 0.814104
C48   C     C_R   0.381154 0.498900 0.379320 0.815885
C49   C     C_R   0.497321 0.880174 0.879512 0.784671
C50   C     C_R   0.607723 0.108062 0.999583 0.825166
C51   C     C_R   0.501551 0.118441 0.120369 0.849915
C52   C     C_R   0.392298 0.891526 0.000017 0.806813
C53   C     C_R   0.751324 0.533001 0.403465 -0.169911
C54   C     C_R   0.678195 0.458601 0.346852 -0.083646
C55   C     C_R   0.654360 0.403366 0.374194 0.138141
C56   C     C_R   0.839862 0.662444 0.978496 -0.278535
C57   C     C_R   0.705054 0.423317 0.458711 -0.128990
C58   C     C_R   0.779069 0.497171 0.515009 0.210484
C59   C     C_R   0.801834 0.552232 0.487465 -0.140471
C60   C     C_R   0.576437 0.258508 0.249657 0.122530
C61   C     C_R   0.501914 0.185489 0.187120 -0.149193
C62   C     C_R   0.427373 0.177844 0.186807 -0.049622
C63   C     C_R   0.428227 0.241683 0.252371 0.421019
C64   C     C_R   0.502918 0.314464 0.315762 -0.222494
C65   C     C_R   0.576885 0.324101 0.313238 -0.104973
C66   C     C_R   0.297454 0.101168 0.041922 0.578112
C67   C     C_R   0.849847 0.654425 0.908468 0.049160
C68   C     C_R   0.220582 0.031100 0.978934 -0.248836
C69   C     C_R   0.191005 0.967983 0.994831 -0.176514
C70   C     C_R   0.238655 0.973264 0.072656 0.228487
C71   C     C_R   0.318067 0.038935 0.132265 -0.304903
C72   C     C_R   0.347380 0.103738 0.118062 0.028026
C73   C     C_R   0.580838 0.832018 0.556653 0.390313
C74   C     C_R   0.578897 0.815402 0.620912 0.114992
C75   C     C_R   0.502116 0.772879 0.610886 -0.050062
C76   C     C_R   0.428198 0.747498 0.537100 -0.298294
C77   C     C_R   0.429722 0.767226 0.474984 0.152633
C78   C     C_R   0.893247 0.726584 0.911206 -0.232330
C79   C     C_R   0.506271 0.811715 0.485751 0.129399
C80   C     C_R   0.496277 0.820770 0.743958 -0.196119
C81   C     C_R   0.496484 0.812550 0.812622 -0.056934
C82   C     C_R   0.496728 0.740652 0.816531 0.076485
C83   C     C_R   0.493449 0.676665 0.749453 -0.238309
C84   C     C_R   0.495930 0.685935 0.682119 -0.070044
C85   C     C_R   0.498188 0.758980 0.679604 0.083296
C86   C     C_R   0.574435 0.753094 0.960175 0.505896
C87   C     C_R   0.574174 0.745909 0.029799 0.122357
C88   C     C_R   0.498929 0.711785 0.025611 -0.214966
C89   C     C_R   0.926634 0.805512 0.982838 0.122626
C90   C     C_R   0.423924 0.686620 0.953636 -0.164040
C91   C     C_R   0.423597 0.696102 0.885614 -0.244518
C92   C     C_R   0.498450 0.729806 0.888609 -0.029219
Cu1   Cu    Cu3+1 0.999510 0.561800 0.061330 0.964003
Cu2   Cu    Cu3+1 0.000490 0.438200 0.938670 1.034252
Cu3   Cu    Cu3+1 0.555790 0.555750 0.499960 0.972781
Cu4   Cu    Cu3+1 0.444210 0.444200 0.499990 0.953998
Cu5   Cu    Cu3+1 0.438200 0.001560 0.939770 1.003778
Cu6   Cu    Cu3+1 0.561800 0.998350 0.060150 1.075276
H1    H     H_    0.705798 0.312244 0.554865 0.184027
H2    H     H_    0.882062 0.403164 0.234547 0.163607
H3    H     H_    0.982388 0.550059 0.312183 0.162190
H4    H     H_    0.117446 0.588409 0.319428 0.174540
H5    H     H_    0.232824 0.476739 0.360337 0.161503
H6    H     H_    0.261623 0.513346 0.130844 0.137235
H7    H     H_    0.545574 0.633826 0.222559 0.156611
H8    H     H_    0.491520 0.388495 0.189980 0.170910
H9    H     H_    0.379428 0.389877 0.220122 0.179407
H10   H     H_    0.858966 0.609425 0.530792 0.156236
H11   H     H_    0.769291 0.575253 0.381889 0.160200
H12   H     H_    0.640768 0.443236 0.281392 0.180544
H13   H     H_    0.687409 0.381193 0.480050 0.125811
H14   H     H_    0.800444 0.607767 0.973685 0.155813
H15   H     H_    0.183055 0.026433 0.918488 0.163443
H16   H     H_    0.130455 0.915874 0.947355 0.191699
H17   H     H_    0.355099 0.042130 0.191900 0.197978
H18   H     H_    0.897514 0.721660 0.855685 0.194163
H19   H     H_    0.369089 0.714481 0.529195 0.180652
H20   H     H_    0.497136 0.876704 0.741848 0.159488
H21   H     H_    0.491408 0.620295 0.751053 0.142986
H22   H     H_    0.498626 0.705606 0.078691 0.152592
H23   H     H_    0.365975 0.660653 0.951049 0.156398
H24   H     H_    0.365057 0.677618 0.830743 0.159737
H25   H     H_    0.732886 0.625643 0.764034 0.164602
H26   H     H_    0.524820 0.334653 0.628799 0.150732
H27   H     H_    0.423825 0.192260 0.509079 0.167334
O1    O     O_R   0.918180 0.470790 0.051800 -0.596389
O2    O     O_R   0.453580 0.362680 0.410500 -0.567536
O3    O     O_R   0.637300 0.547080 0.590140 -0.569817
O4    O     O_R   0.543070 0.452880 0.590170 -0.602977
O5    O     O_R   0.546420 0.637270 0.589450 -0.574342
O6    O     O_R   0.452190 0.543070 0.589480 -0.593925
O7    O     O_R   0.456930 0.547080 0.409790 -0.579575
O8    O     O_R   0.362710 0.452870 0.409810 -0.581086
O9    O     O_R   0.446190 0.911170 0.857320 -0.595564
O10   O     O_R   0.550560 0.908460 0.958980 -0.551630
O11   O     O_R   0.529210 0.082710 0.949130 -0.579698
O12   O     O_R   0.919010 0.366410 0.948200 -0.553367
O13   O     O_R   0.633590 0.080000 0.050790 -0.560662
O14   O     O_R   0.449440 0.091450 0.040930 -0.565311
O15   O     O_R   0.553810 0.088740 0.142590 -0.544906
O16   O     O_R   0.366410 0.919910 0.949130 -0.585592
O17   O     O_R   0.470790 0.917200 0.050790 -0.563079
O18   O     O_R   0.909400 0.552190 0.961620 -0.610304
O19   O     O_R   0.910240 0.447810 0.858030 -0.520223
O20   O     O_R   0.080990 0.633590 0.051800 -0.553369
O21   O     O_R   0.081820 0.529210 0.948200 -0.586827
O22   O     O_R   0.089760 0.552190 0.141970 -0.569290
O23   O     O_R   0.090600 0.447810 0.038380 -0.584932
O24   O     O_R   0.547810 0.456880 0.410470 -0.589064
I1    I     I_    0.971114 0.931113 0.165974 -0.153881
I2    I     I_    0.417965 0.046609 0.366032 -0.295103
I3    I     I_    0.623112 0.141204 0.391803 -0.245442
I4    I     I_    0.063384 0.279718 0.134061 -0.258132
O25   O     O_3   0.905979 0.269960 0.151925 -0.564303
C93   C     C_3   0.871734 0.248966 0.198330 -0.210579
H28   H     H_    0.819035 0.264967 0.190552 0.174825
H29   H     H_    0.918878 0.278800 0.267722 0.159385
H30   H     H_    0.846580 0.180412 0.170820 0.216923
O26   O     O_3   0.868968 0.749427 0.123201 -0.546402
C94   C     C_3   0.897919 0.700158 0.154145 -0.210742
H31   H     H_    0.906327 0.721482 0.219288 0.187460
H32   H     H_    0.959250 0.706971 0.160407 0.154032
H33   H     H_    0.851633 0.633517 0.112705 0.140081
O27   O     O_3   0.422092 0.646411 0.249047 -0.551679
C95   C     C_3   0.408715 0.665634 0.182977 -0.271101
H34   H     H_    0.372735 0.608839 0.117599 0.119961
H35   H     H_    0.468692 0.705767 0.194399 0.175868
H36   H     H_    0.371893 0.701759 0.184512 0.219991
O28   O     O_3   0.588940 0.504809 0.184782 -0.593875
C96   C     C_3   0.600118 0.543751 0.137989 -0.301560
H37   H     H_    0.638212 0.612237 0.181677 0.185135
H38   H     H_    0.540024 0.529098 0.084308 0.156637
H39   H     H_    0.635047 0.519930 0.108874 0.194106
I5    I     I_    0.858095 0.524430 0.640297 -0.392260
I6    I     I_    0.688809 0.272882 0.246364 -0.384228
O29   O     O_3   0.353907 0.238845 0.247301 -0.597264
C97   C     C_3   0.329624 0.193642 0.284446 -0.193799
H40   H     H_    0.308750 0.228575 0.325580 0.196247
H41   H     H_    0.379716 0.183553 0.325493 0.147287
H42   H     H_    0.275404 0.132756 0.233132 0.194624
O30   O     O_3   0.326876 0.164680 0.027479 -0.578563
C98   C     C_3   0.280429 0.210842 0.031574 -0.297653
H43   H     H_    0.279468 0.232909 0.092674 0.198031
H44   H     H_    0.216069 0.173996 0.975295 0.171999
H45   H     H_    0.310261 0.266980 0.029790 0.193933
I7    I     I_    0.187845 0.888288 0.105140 -0.307037
I8    I     I_    0.512504 0.854867 0.400628 -0.167149
O31   O     O_3   0.656125 0.873457 0.566246 -0.530585
C99   C     C_3   0.678415 0.813297 0.524573 -0.200768
H46   H     H_    0.738904 0.846183 0.532102 0.197098
H47   H     H_    0.632226 0.773395 0.454358 0.160718
H48   H     H_    0.686171 0.773556 0.553920 0.152355
I9    I     I_    0.692634 0.856945 0.733528 -0.251630
I10   I     I_    0.314089 0.730008 0.368251 -0.298647
O32   O     O_3   0.648680 0.790979 0.965805 -0.540202
C100  C     C_3   0.675845 0.730121 0.937214 -0.239214
H49   H     H_    0.630070 0.679540 0.869595 0.124990
H50   H     H_    0.689671 0.702918 0.979439 0.177403
H51   H     H_    0.734033 0.760436 0.939434 0.206484
I11   I     I_    0.685883 0.789042 0.143853 -0.297156
I12   I     I_    0.978576 0.910858 0.974285 -0.265804
O33   O     O_3   0.753073 0.347917 0.734265 -0.547942
C101  C     C_3   0.713383 0.320195 0.773700 -0.252660
H52   H     H_    0.646419 0.305266 0.740658 0.152177
H53   H     H_    0.744010 0.366724 0.843300 0.112785
H54   H     H_    0.717665 0.262109 0.768709 0.208130

loop_
_geom_bond_atom_site_label_1
_geom_bond_atom_site_label_2
_ccdc_geom_bond_type
C2    I1    S    
C66   C68   A    
C49   O9    A    
C44   O2    A    
Cu2   O21   S    
C95   H34   S    
C93   H29   S    
C41   C42   S    
C57   H13   S    
C89   I12   S    
Cu3   Cu4   S    
C45   O26   S    
C101  H52   S    
C46   O4    A    
Cu5   Cu6   S    
C53   C59   A    
C7    C8    A    
C4    C46   S    
C53   C54   A    
C44   C64   S    
C101  H53   S    
C36   O28   S    
C37   C38   A    
C22   C32   S    
Cu6   O13   S    
C87   I11   S    
C46   O3    A    
C28   C29   A    
C6    O33   S    
O26   C94   S    
C5    C6    A    
C80   C81   A    
C43   C52   S    
C96   H37   S    
C49   C81   S    
C23   C40   S    
C9    H26   S    
C82   C92   S    
C54   H12   S    
C18   C19   T    
O28   C96   S    
C83   H21   S    
C38   H9    S    
C99   H47   S    
C98   H43   S    
Cu1   O1    S    
C34   O23   A    
Cu3   O3    S    
C75   C85   S    
C66   C72   A    
C35   C36   A    
C45   C56   A    
C16   C17   T    
C97   H41   S    
C91   H24   S    
C51   C61   S    
Cu3   O5    S    
Cu1   O20   S    
C70   C71   A    
Cu3   O24   S    
C88   H22   S    
C10   H27   S    
C9    C10   A    
C61   C62   A    
Cu1   O18   S    
C68   H15   S    
C59   H10   S    
C51   O15   A    
C49   O10   A    
C74   I9    S    
C95   H35   S    
C21   C22   A    
Cu6   O17   S    
C93   H30   S    
O27   C95   S    
C58   I5    S    
C67   C78   A    
Cu5   O9    S    
C100  H51   S    
C55   C65   S    
C3    H25   S    
C47   O6    A    
C81   C82   A    
C48   O7    A    
C77   C79   A    
C78   C89   A    
Cu2   O23   S    
C7    C12   S    
C101  H54   S    
C80   H20   S    
C69   H16   S    
O33   C101  S    
C47   O5    A    
C71   H17   S    
C99   H48   S    
C94   H33   S    
C48   O8    A    
C14   H1    S    
C33   O27   S    
C24   C25   A    
C100  H50   S    
C3    C8    A    
C74   C75   A    
C91   C92   A    
C40   C41   T    
C70   I7    S    
C86   C87   A    
C68   C69   A    
C20   H3    S    
C25   C26   A    
O30   C98   S    
Cu6   O10   S    
C52   O17   A    
C12   O19   A    
Cu4   O2    S    
Cu6   O15   S    
C60   C61   A    
C98   H45   S    
C94   H32   S    
C2    C89   A    
C75   C76   A    
C80   C85   A    
C35   H7    S    
C86   O32   S    
C23   O20   A    
C34   O22   A    
C83   C84   A    
C30   C31   A    
C97   H42   S    
C29   C39   S    
C62   C63   A    
C17   C18   S    
C73   C79   A    
C31   C34   S    
C62   C72   S    
C1    C16   S    
C33   C39   A    
C47   C84   S    
C76   C77   A    
Cu5   O16   S    
O25   C93   S    
Cu4   O8    S    
C79   I8    S    
C8    C67   S    
Cu4   O6    S    
C21   H4    S    
C11   I2    S    
O29   C97   S    
C66   O30   S    
C88   C90   A    
C60   C65   A    
C97   H40   S    
C95   H36   S    
C10   C11   A    
C55   C57   A    
C1    O1    A    
C23   O21   A    
C90   H23   S    
C22   C24   A    
C42   C43   T    
C90   C91   A    
C3    C4    A    
C73   C74   A    
C93   H28   S    
C73   O31   S    
C1    O12   A    
C24   I4    S    
C53   H11   S    
C99   H46   S    
C60   I6    S    
C54   C55   A    
C28   C48   S    
C25   O25   S    
C31   C32   A    
C78   H18   S    
C84   C85   A    
C44   O24   A    
C13   I3    S    
C100  H49   S    
Cu3   O7    S    
C50   O13   A    
C6    C7    A    
O32   C100  S    
C56   C67   A    
Cu1   Cu2   S    
C52   O16   A    
C12   O18   A    
Cu2   O19   S    
C64   C65   A    
C63   O29   S    
C58   C59   A    
C37   H8    S    
C77   I10   S    
C86   C92   A    
C94   H31   S    
C11   C13   A    
C19   C50   S    
C57   C58   A    
C38   C39   A    
C20   C26   A    
C27   H5    S    
C33   C35   A    
Cu5   O14   S    
Cu1   O22   S    
C9    C15   A    
C69   C70   A    
C76   H19   S    
C98   H44   S    
C5    C15   S    
C2    C45   A    
C27   C32   A    
C29   C30   A    
C63   C64   A    
C4    C5    A    
C71   C72   A    
C20   C21   A    
C87   C88   A    
C36   C37   A    
C82   C83   A    
C30   H6    S    
C27   C28   A    
Cu2   O12   S    
C14   C15   A    
O31   C99   S    
C50   O11   A    
C96   H38   S    
Cu5   O11   S    
C13   C14   A    
C56   H14   S    
C26   H2    S    
Cu4   O4    S    
C96   H39   S    
C51   O14   A    
