data_mof_unit_11112.cif
_audit_creation_date              2013-03-05T15:50:03-0500
_audit_creation_method            fapswitch 2.2
_symmetry_space_group_name_H-M    P1
_symmetry_Int_Tables_number       1
_space_group_crystal_system       triclinic
_cell_length_a                    8.336161
_cell_length_b                    12.816419
_cell_length_c                    17.330804
_cell_angle_alpha                 94.314441
_cell_angle_beta                  95.438186
_cell_angle_gamma                 97.699295
_cell_volume                      1819.39706293

loop_
_atom_site_label
_atom_site_type_symbol
_atom_site_description
_atom_site_fract_x
_atom_site_fract_y
_atom_site_fract_z
_atom_type_partial_charge
P1    P     P_3+3 0.990420 0.746550 0.559720 0.473832
O1    O     O_2   0.163080 0.763400 0.536930 -0.366711
O2    O     O_3   0.893330 0.628980 0.538660 -0.398126
O3    O     O_3   0.379830 0.697590 0.399610 -0.392738
O4    O     O_2   0.296619 0.880861 0.441237 -0.310034
O5    O     O_3   0.021653 0.771790 0.661095 -0.567615
O6    O     O_3   0.393584 0.865429 0.300120 -0.448916
H1    H     H_    0.231185 0.735609 0.253338 0.133926
C1    C     C_3   0.381634 0.785816 0.163834 -0.117244
H2    H     H_    0.297552 0.723153 0.126382 0.118214
P2    P     P_3+3 0.330880 0.415450 0.326700 0.475261
P3    P     P_3+3 0.911888 0.618764 0.258362 0.529240
O7    O     O_2   0.161570 0.447940 0.314920 -0.374797
O8    O     O_3   0.953630 0.643360 0.361440 -0.350573
O9    O     O_2   0.030880 0.548149 0.226498 -0.364608
O10   O     O_3   0.314570 0.282770 0.298722 -0.597475
O11   O     O_3   0.955005 0.730886 0.208017 -0.590368
C2    C     C_3   0.933438 0.826209 0.248517 1.144308
C3    C     C_3   0.974548 0.910822 0.192044 -0.730618
H3    H     H_    0.106580 0.936853 0.198798 0.237132
H4    H     H_    0.935862 0.878437 0.131095 0.258039
C4    C     C_3   0.741619 0.310122 0.303138 0.344465
H5    H     H_    0.633601 0.334875 0.327768 0.110881
H6    H     H_    0.843010 0.376980 0.310107 0.106831
C5    C     C_3   0.697509 0.275816 0.216891 -0.784149
H7    H     H_    0.595819 0.209207 0.208963 0.290051
H8    H     H_    0.659366 0.341840 0.185571 0.198344
H9    H     H_    0.804342 0.249802 0.191303 0.261122
Ba1   Ba    Ba6+2 0.158660 0.552610 0.463110 1.605713
C6    C     C_3   0.059341 0.682095 0.695896 0.205927
H10   H     H_    0.171334 0.658750 0.674696 0.081767
H11   H     H_    0.958393 0.615276 0.682935 0.124107
C7    C     C_3   0.089024 0.709885 0.783901 -0.085872
H12   H     H_    0.180058 0.782400 0.797580 0.160748
H13   H     H_    0.139880 0.644957 0.811987 0.063749
C8    C     C_3   0.222919 0.225649 0.347652 0.240370
H14   H     H_    0.112093 0.260909 0.360180 0.104865
H15   H     H_    0.300275 0.217838 0.402730 0.119597
C9    C     C_3   0.170008 0.119837 0.302421 -0.092387
H16   H     H_    0.099477 0.130743 0.246308 0.141272
H17   H     H_    0.277780 0.081055 0.289883 0.176565
P4    P     P_3+3 0.819870 0.253440 0.440220 0.491760
O12   O     O_2   0.647210 0.236530 0.463040 -0.374264
O13   O     O_3   0.916960 0.371010 0.461280 -0.417754
O14   O     O_3   0.430470 0.302400 0.600330 -0.357791
O15   O     O_3   0.789002 0.223831 0.339299 -0.506767
P5    P     P_3+3 0.880570 0.362731 0.740044 0.536438
O16   O     O_3   0.388290 0.554800 0.590630 -0.401253
O17   O     O_3   0.856660 0.356630 0.638500 -0.403263
O18   O     O_2   0.746750 0.422848 0.769937 -0.301986
O19   O     O_3   0.830307 0.235661 0.768452 -0.498908
Ba2   Ba    Ba6+2 0.651510 0.447380 0.536830 1.609650
P6    P     P_3+3 0.427268 0.834353 0.397711 0.587013
C10   C     C_3   0.356717 0.770720 0.249726 0.372341
H18   H     H_    0.431120 0.709582 0.266557 0.069054
H19   H     H_    0.507089 0.772781 0.153163 0.136112
O20   O     O_3   0.422000 0.445190 0.409310 -0.390284
C11   C     C_3   0.566990 0.771394 0.648799 0.436411
H20   H     H_    0.700668 0.772308 0.655431 0.116412
H21   H     H_    0.515787 0.734351 0.590059 0.089641
C12   C     C_3   0.529840 0.883889 0.653526 -0.948129
H22   H     H_    0.561614 0.921072 0.713635 0.270760
H23   H     H_    0.597899 0.930531 0.612896 0.220349
H24   H     H_    0.398355 0.883276 0.638008 0.259994
P7    P     P_3+3 0.472707 0.583642 0.687820 0.479144
O21   O     O_2   0.648720 0.552000 0.685060 -0.347937
O22   O     O_3   0.499162 0.720660 0.709834 -0.546448
H25   H     H_    0.915885 0.982256 0.200773 0.249356
C13   C     C_3   0.887315 0.163102 0.716923 0.360860
H26   H     H_    0.806908 0.151060 0.661244 0.118108
H27   H     H_    0.015009 0.189713 0.705753 0.055122
C14   C     C_3   0.882339 0.058425 0.752741 -0.711112
H28   H     H_    0.900643 0.995503 0.708526 0.224136
H29   H     H_    0.977943 0.064385 0.802115 0.305338
H30   H     H_    0.764096 0.037306 0.775428 0.235031
P8    P     P_3+3 0.378731 0.164464 0.600302 0.474641
C15   C     C_3   0.366795 0.138514 0.746398 0.713803
O23   O     O_2   0.474971 0.115627 0.538699 -0.381014
O24   O     O_3   0.468989 0.126404 0.687240 -0.573759
H31   H     H_    0.318200 0.215288 0.745492 0.038654
C16   C     C_3   0.465474 0.138125 0.825792 -0.114100
H32   H     H_    0.563117 0.207377 0.835300 0.164035
H33   H     H_    0.523629 0.064980 0.826903 0.121080
C17   C     C_R   0.065132 0.184847 0.537336 -0.512276
C18   C     C_R   0.727851 0.819519 0.479758 -0.451060
C19   C     C_R   0.692573 0.997802 0.451862 -0.081559
C20   C     C_R   0.631956 0.889454 0.447583 0.284473
C21   C     C_R   0.882547 0.853715 0.518322 0.225949
C22   C     C_R   0.940864 0.965918 0.529005 -0.058343
C23   C     C_R   0.845951 0.039252 0.493200 -0.025452
C24   C     C_R   0.912487 0.150320 0.496181 0.331016
C25   C     C_R   0.159464 0.114740 0.570923 0.260298
C26   C     C_R   0.095913 0.006549 0.568796 -0.083247
H34   H     H_    0.619896 0.048238 0.421254 0.192125
H35   H     H_    0.172775 0.953779 0.593430 0.160311
H36   H     H_    0.117882 0.266796 0.537615 0.163517
H37   H     H_    0.680552 0.736148 0.474338 0.175643
H38   H     H_    0.526284 0.557527 0.856821 0.226168
C27   C     C_R   0.602010 0.530081 0.277116 -0.492578
C28   C     C_R   0.441934 0.485567 0.255531 0.318249
C29   C     C_R   0.378819 0.476133 0.177056 -0.261336
C30   C     C_R   0.476818 0.511263 0.119949 -0.169817
C31   C     C_R   0.642856 0.553369 0.141160 0.186115
C32   C     C_R   0.703967 0.560373 0.221291 0.170330
C33   C     C_R   0.405439 0.517533 0.835924 -0.221174
C34   C     C_R   0.352815 0.510180 0.756274 0.275886
C35   C     C_R   0.086846 0.423633 0.781801 0.104239
C36   C     C_R   0.138087 0.432052 0.862582 0.294918
C37   C     C_R   0.300281 0.477218 0.889005 -0.120277
C38   C     C_1   0.358017 0.487901 0.970985 0.214459
C39   C     C_1   0.408513 0.497256 0.039249 0.188902
C40   C     C_R   0.196303 0.459371 0.729618 -0.561203
H39   H     H_    0.255213 0.437891 0.160092 0.213199
H40   H     H_    0.650708 0.536122 0.337720 0.184503
H41   H     H_    0.155782 0.453729 0.668011 0.181190
N1    N     N_R   0.937675 0.726651 0.815763 0.285684
O25   O     O_R   0.871867 0.811019 0.802798 -0.344048
O26   O     O_R   0.873196 0.660553 0.861399 -0.299264
N2    N     N_R   0.070925 0.055387 0.348048 0.224302
O27   O     O_R   0.139099 0.028270 0.412489 -0.402512
O28   O     O_R   0.914359 0.048174 0.336627 -0.388013
N3    N     N_R   0.354876 0.890090 0.139902 0.284123
O29   O     O_R   0.468000 0.971348 0.160567 -0.288053
O30   O     O_R   0.244548 0.896510 0.081964 -0.323598
O31   O     O_3   0.236872 0.055497 0.737363 -0.805797
H42   H     H_    0.283769 0.988395 0.737228 0.331314
N4    N     N_R   0.360489 0.142416 0.888364 0.271551
O32   O     O_R   0.337006 0.063115 0.930930 -0.275311
O33   O     O_R   0.292951 0.226813 0.903302 -0.369875
O34   O     O_3   0.046172 0.846112 0.315517 -0.700793
H43   H     H_    0.986906 0.844284 0.362700 0.358336
N5    N     N_R   0.746823 0.586397 0.082197 0.264557
O35   O     O_R   0.898436 0.568994 0.087436 -0.291907
O36   O     O_R   0.687265 0.622346 0.018172 -0.357024
N6    N     N_R   0.027341 0.396370 0.917385 0.257810
O37   O     O_R   0.074518 0.342091 0.973867 -0.328917
O38   O     O_R   0.883982 0.426572 0.915704 -0.293206
N7    N     N_R   0.765202 0.825854 0.268260 0.160862
O39   O     O_R   0.691655 0.907860 0.258020 -0.353212
O40   O     O_R   0.708340 0.759987 0.315698 -0.524746

loop_
_geom_bond_atom_site_label_1
_geom_bond_atom_site_label_2
_geom_bond_distance
_ccdc_geom_bond_type
C29   C30   1.404046 A    
O3    P6    1.747922 S    
C12   H24   1.102403 S    
C29   H39   1.083501 S    
C35   C40   1.402498 A    
C3    H3    1.098971 S    
P8    O24   1.751646 S    
C27   H40   1.082822 S    
C16   H32   1.111959 S    
C15   O31   1.401281 S    
N6    O37   1.303684 A    
P5    O17   1.746854 S    
C34   C40   1.397346 A    
N1    O25   1.301068 A    
C5    H9    1.110461 S    
H38   C33   1.083179 S    
O14   P8    1.762614 S    
O7    Ba1   2.810384 S    
C8    H14   1.113555 S    
C3    H4    1.107086 S    
P8    O23   1.539998 D    
P3    C32   1.829218 S    
P4    O15   1.748732 S    
C6    H10   1.104275 S    
O12   Ba2   2.895644 S    
C15   H31   1.113765 S    
C11   H21   1.111105 S    
C36   C37   1.416315 A    
C2    N7    1.474252 S    
P1    O1    1.520390 D    
C17   H36   1.082392 S    
C13   H27   1.112941 S    
C38   C39   1.209119 T    
C28   C29   1.401318 A    
C19   H34   1.077916 S    
C30   C31   1.419760 A    
N5    O35   1.308505 A    
P7    O22   1.748568 S    
C4    C5    1.521967 S    
P3    O11   1.750749 S    
C35   C36   1.416212 A    
C17   C24   1.397620 A    
O16   P7    1.755266 S    
C31   N5    1.452308 S    
O3    Ba1   2.799522 S    
O13   Ba2   2.916460 S    
C11   C12   1.512623 S    
C18   C20   1.391421 A    
C27   C32   1.390360 A    
C26   H35   1.076066 S    
C16   N4    1.459018 S    
C1    N3    1.467489 S    
C30   C39   1.447897 S    
C13   H26   1.109743 S    
P4    O13   1.610366 S    
C14   H30   1.103375 S    
C16   H33   1.112175 S    
O11   C2    1.404025 S    
P5    O18   1.544763 D    
C15   O24   1.406424 S    
Ba1   O16   2.779153 S    
P1    O5    1.750541 S    
C36   N6    1.442896 S    
C14   H29   1.103535 S    
C19   C23   1.420342 A    
H1    C10   1.091764 S    
C9    H16   1.115810 S    
C19   C20   1.406599 A    
C2    C3    1.541119 S    
P5    O19   1.745608 S    
O14   Ba2   2.798863 S    
C5    H7    1.110241 S    
C8    C9    1.504118 S    
P2    C28   1.829269 S    
P1    O2    1.610368 S    
C13   C14   1.517293 S    
N4    O33   1.304874 A    
P2    O10   1.716606 S    
C27   C28   1.383972 A    
P3    O9    1.541789 D    
C15   C16   1.535438 S    
N2    O27   1.296939 A    
O17   Ba2   2.766281 S    
P1    Ba1   3.420758 S    
C7    H12   1.113383 S    
C3    H25   1.101539 S    
P6    C20   1.860913 S    
C1    H19   1.111155 S    
P2    Ba1   3.381497 S    
N2    O28   1.291173 A    
N7    O40   1.297793 A    
P8    C25   1.862541 S    
O5    C6    1.396109 S    
P3    O8    1.783210 S    
P5    C35   1.846442 S    
O1    Ba1   2.894991 S    
Ba1   O13   2.863206 S    
O31   H42   0.991173 S    
C4    H6    1.110954 S    
C2    O34   1.407442 S    
P4    O12   1.520604 D    
O6    P6    1.771832 S    
O8    Ba1   2.765670 S    
N3    O30   1.310934 A    
N4    O32   1.304749 A    
P7    C34   1.852958 S    
Ba2   O21   2.810571 S    
Ba2   O20   2.778541 S    
C1    H2    1.114490 S    
C18   C21   1.393873 A    
O4    P6    1.540291 D    
N6    O38   1.303037 A    
C33   C37   1.408796 A    
C10   H18   1.101847 S    
C7    N1    1.459363 S    
C6    C7    1.528867 S    
C4    O15   1.395093 S    
C12   H23   1.105990 S    
Ba1   O20   2.930618 S    
C14   H28   1.105878 S    
O2    Ba2   2.863799 S    
C5    H8    1.104653 S    
C17   C25   1.394915 A    
C33   C34   1.400503 A    
C8    H15   1.118947 S    
O34   H43   0.994816 S    
C11   H20   1.107775 S    
C37   C38   1.446534 S    
O10   C8    1.380255 S    
C6    H11   1.110914 S    
P2    O7    1.524061 D    
O2    Ba1   2.915614 S    
C23   C24   1.452095 A    
P1    C21   1.888578 S    
C9    N2    1.424462 S    
C25   C26   1.412978 A    
C7    H13   1.107008 S    
N1    O26   1.300564 A    
C22   C26   1.419150 A    
C12   H22   1.105291 S    
C18   H37   1.082132 S    
N7    O39   1.300828 A    
C11   O22   1.407032 S    
O16   Ba2   2.929774 S    
C21   C22   1.447112 A    
C9    H17   1.114360 S    
N5    O36   1.312944 A    
P7    O21   1.577805 D    
C31   C32   1.425150 A    
N3    O29   1.311049 A    
C4    H5    1.105759 S    
C1    C10   1.545181 S    
O19   C13   1.400729 S    
O6    C10   1.421367 S    
C22   C23   1.445133 A    
P2    O20   1.551195 S    
C40   H41   1.082956 S    
P4    C24   1.899409 S    
P4    Ba2   3.421312 S    
Ba1   Ba2   4.591280 S    
