data_mof_unit_61394.cif
_audit_creation_date              2013-03-05T16:32:49-0500
_audit_creation_method            fapswitch 2.2
_symmetry_space_group_name_H-M    P1
_symmetry_Int_Tables_number       1
_space_group_crystal_system       triclinic
_cell_length_a                    32.150758
_cell_length_b                    32.150658
_cell_length_c                    35.514971
_cell_angle_alpha                 89.965577
_cell_angle_beta                  89.96493
_cell_angle_gamma                 90.000587
_cell_volume                      36710.6764236

loop_
_atom_site_label
_atom_site_type_symbol
_atom_site_description
_atom_site_fract_x
_atom_site_fract_y
_atom_site_fract_z
_atom_type_partial_charge
O1    O     O_R   0.939070 0.534350 0.999910 -0.605190
O2    O     O_R   0.534350 0.060930 0.999910 -0.605216
O3    O     O_R   0.060930 0.465650 0.999910 -0.605317
O4    O     O_R   0.465650 0.939070 0.999910 -0.605380
O5    O     O_R   0.939070 0.465650 0.000090 -0.605081
O6    O     O_R   0.534350 0.939070 0.000090 -0.605319
O7    O     O_R   0.060930 0.534350 0.000090 -0.605427
O8    O     O_R   0.465650 0.060930 0.000090 -0.605280
O9    O     O_R   0.439070 0.034350 0.499910 -0.603611
O10   O     O_R   0.034350 0.560930 0.499910 -0.607075
O11   O     O_R   0.560930 0.965650 0.499910 -0.606814
O12   O     O_R   0.965650 0.439070 0.499910 -0.603547
O13   O     O_R   0.439070 0.965650 0.500090 -0.606936
O14   O     O_R   0.034350 0.439070 0.500090 -0.606865
O15   O     O_R   0.560930 0.034350 0.500090 -0.603609
O16   O     O_R   0.965650 0.560930 0.500090 -0.603591
C1    C     C_R   0.919425 0.500000 0.000000 0.902180
C2    C     C_R   0.500000 0.080575 1.000000 0.902362
C3    C     C_R   0.080576 0.500000 1.000000 0.904521
C4    C     C_R   0.500000 0.919424 0.000000 0.904528
C5    C     C_R   0.419425 0.000000 0.500011 0.903213
C6    C     C_R   1.000000 0.580575 0.499989 0.903352
C7    C     C_R   0.580575 0.000001 0.499990 0.903301
C8    C     C_R   0.999999 0.419425 0.500010 0.903346
O17   O     O_R   0.000060 0.534350 0.944480 -0.586871
O18   O     O_R   0.534350 0.999940 0.944480 -0.586811
O19   O     O_R   0.999940 0.465650 0.944480 -0.577765
O20   O     O_R   0.465650 0.000060 0.944480 -0.577877
O21   O     O_R   0.000060 0.465650 0.055520 -0.586789
O22   O     O_R   0.534350 0.000060 0.055520 -0.577828
O23   O     O_R   0.999940 0.534350 0.055520 -0.577861
O24   O     O_R   0.465650 0.999940 0.055520 -0.586847
O25   O     O_R   0.500060 0.034350 0.444480 -0.577897
O26   O     O_R   0.034350 0.499940 0.444480 -0.586791
O27   O     O_R   0.499940 0.965650 0.444480 -0.586601
O28   O     O_R   0.965650 0.500060 0.444480 -0.577863
O29   O     O_R   0.500060 0.965650 0.555520 -0.586704
O30   O     O_R   0.034350 0.500060 0.555520 -0.586678
O31   O     O_R   0.499940 0.034350 0.555520 -0.577858
O32   O     O_R   0.965650 0.499940 0.555520 -0.577908
C9    C     C_R   0.999851 0.500027 0.926500 1.021837
C10   C     C_R   0.500027 0.000149 0.926501 1.021940
C11   C     C_R   0.999852 0.499973 0.073500 1.021850
C12   C     C_R   0.499973 0.000150 0.073499 1.021924
C13   C     C_R   0.500145 0.999996 0.426499 1.021687
C14   C     C_R   0.000027 0.500148 0.426500 1.021869
C15   C     C_R   0.499850 0.999973 0.573500 1.021776
C16   C     C_R   0.000004 0.499856 0.573500 1.021793
Zn1   Zn    Zn3+2 1.000000 0.545900 0.000000 1.103781
Zn2   Zn    Zn3+2 0.545900 0.000000 0.000000 1.103928
Zn3   Zn    Zn3+2 0.000000 0.454100 0.000000 1.104024
Zn4   Zn    Zn3+2 0.454100 0.000000 0.000000 1.103841
Zn5   Zn    Zn3+2 0.500000 0.045900 0.500000 1.112753
Zn6   Zn    Zn3+2 0.045900 0.500000 0.500000 1.094905
Zn7   Zn    Zn3+2 0.500000 0.954100 0.500000 1.095124
Zn8   Zn    Zn3+2 0.954100 0.500000 0.500000 1.112832
C17   C     C_R   0.972130 0.469969 0.672949 0.185758
C18   C     C_R   0.469903 0.027743 0.672928 0.185683
C19   C     C_R   0.029673 0.519918 0.674528 0.187402
C20   C     C_R   0.519846 0.970196 0.674548 0.187578
C21   C     C_R   0.972287 0.530114 0.327073 0.185575
C22   C     C_R   0.480119 0.970312 0.325467 0.187551
C23   C     C_R   0.029789 0.480118 0.325456 0.187490
C24   C     C_R   0.530014 0.027900 0.327051 0.185767
C25   C     C_R   0.470192 0.980211 0.174574 0.187539
C26   C     C_R   0.969889 0.527714 0.172928 0.185600
C27   C     C_R   0.527682 0.030222 0.172874 0.185516
C28   C     C_R   0.019886 0.470214 0.174543 0.187540
C29   C     C_R   0.472296 0.030134 0.827077 0.185481
C30   C     C_R   0.969802 0.472307 0.827121 0.185671
C31   C     C_R   0.529773 0.980110 0.825455 0.187592
C32   C     C_R   0.019785 0.529821 0.825427 0.187443
C33   C     C_R   0.971930 0.471741 0.633296 0.298617
C34   C     C_R   0.471693 0.027976 0.633276 0.298712
C35   C     C_R   0.029597 0.521641 0.634877 0.295015
C36   C     C_R   0.521585 0.970303 0.634897 0.295018
C37   C     C_R   0.972051 0.528327 0.366725 0.298676
C38   C     C_R   0.478393 0.970383 0.365118 0.295078
C39   C     C_R   0.029678 0.478382 0.365107 0.294892
C40   C     C_R   0.528240 0.028096 0.366704 0.298708
C41   C     C_R   0.470318 0.978431 0.134926 0.294778
C42   C     C_R   0.971676 0.527950 0.133276 0.298761
C43   C     C_R   0.527932 0.028390 0.133225 0.298794
C44   C     C_R   0.021621 0.470324 0.134892 0.294828
C45   C     C_R   0.472062 0.028344 0.866729 0.298818
C46   C     C_R   0.971631 0.472055 0.866770 0.298724
C47   C     C_R   0.529665 0.978372 0.865106 0.294753
C48   C     C_R   0.021563 0.529694 0.865075 0.294856
C49   C     C_R   0.000068 0.498280 0.614676 -0.213477
C50   C     C_R   0.498243 0.999857 0.614676 -0.213520
C51   C     C_R   0.000145 0.501752 0.385326 -0.213423
C52   C     C_R   0.501726 0.999932 0.385323 -0.213564
C53   C     C_R   0.499852 0.001786 0.114670 -0.213378
C54   C     C_R   0.998250 0.499856 0.114674 -0.213434
C55   C     C_R   0.500144 0.001755 0.885327 -0.213383
C56   C     C_R   0.998219 0.500148 0.885329 -0.213417
C57   C     C_R   0.000733 0.494336 0.693133 -0.213397
C58   C     C_R   0.494263 0.999127 0.693133 -0.213348
C59   C     C_R   0.000883 0.505726 0.306870 -0.213441
C60   C     C_R   0.505675 0.999277 0.306864 -0.213317
C61   C     C_R   0.499085 0.005848 0.193117 -0.213473
C62   C     C_R   0.994278 0.499120 0.193131 -0.213395
C63   C     C_R   0.500878 0.005732 0.806871 -0.213466
C64   C     C_R   0.994162 0.500917 0.806881 -0.213405
C65   C     C_1   0.997949 0.496032 0.733240 0.224304
C66   C     C_1   0.495968 0.001904 0.733237 0.224453
C67   C     C_1   0.998107 0.504023 0.266765 0.224391
C68   C     C_1   0.503977 0.002063 0.266758 0.224398
C69   C     C_1   0.501856 0.004178 0.233224 0.224413
C70   C     C_1   0.995981 0.501896 0.233235 0.224302
C71   C     C_1   0.498097 0.004031 0.766767 0.224362
C72   C     C_1   0.995834 0.498151 0.766774 0.224385
C73   C     C_R   0.728277 0.503172 0.034477 0.434841
C74   C     C_R   0.508736 0.271666 0.033739 0.434705
C75   C     C_R   0.271670 0.496242 0.034494 0.434959
C76   C     C_R   0.497904 0.728272 0.034548 0.435034
C77   C     C_R   0.728334 0.496836 0.965460 0.434663
C78   C     C_R   0.502084 0.728329 0.965391 0.435021
C79   C     C_R   0.271728 0.503777 0.965569 0.435141
C80   C     C_R   0.491225 0.271721 0.966329 0.434731
C81   C     C_R   0.228270 0.001268 0.534598 0.434982
C82   C     C_R   0.005826 0.771665 0.534231 0.434663
C83   C     C_R   0.771665 0.002812 0.534546 0.434804
C84   C     C_R   0.999522 0.228270 0.534616 0.435090
C85   C     C_R   0.228336 0.998799 0.465377 0.434649
C86   C     C_R   0.000399 0.228335 0.465361 0.434798
C87   C     C_R   0.771731 0.997258 0.465474 0.435163
C88   C     C_R   0.994103 0.771728 0.465798 0.434918
C89   C     C_R   0.706443 0.500004 0.999966 -0.297967
C90   C     C_R   0.499980 0.293556 0.000037 -0.297850
C91   C     C_R   0.293561 0.500010 0.000035 -0.298104
C92   C     C_R   0.499994 0.706439 0.999966 -0.298155
C93   C     C_R   0.206440 0.000026 0.499982 -0.298067
C94   C     C_R   0.999968 0.793559 0.500019 -0.298025
C95   C     C_R   0.793560 0.000025 0.500016 -0.298076
C96   C     C_R   0.999968 0.206440 0.499983 -0.298100
C97   C     C_R   0.771755 0.496819 0.965467 0.436651
C98   C     C_R   0.491228 0.228300 0.966322 0.436470
C99   C     C_R   0.228308 0.503782 0.965563 0.436934
C100  C     C_R   0.502095 0.771750 0.965397 0.436995
C101  C     C_R   0.771697 0.503182 0.034483 0.436745
C102  C     C_R   0.497896 0.771692 0.034554 0.437024
C103  C     C_R   0.228250 0.496231 0.034487 0.436839
C104  C     C_R   0.508748 0.228245 0.033731 0.436441
C105  C     C_R   0.271756 0.998797 0.465387 0.436843
C106  C     C_R   0.994094 0.728307 0.465789 0.436713
C107  C     C_R   0.728311 0.997291 0.465461 0.437074
C108  C     C_R   0.000400 0.271755 0.465371 0.437076
C109  C     C_R   0.271690 0.001291 0.534608 0.436855
C110  C     C_R   0.999497 0.271691 0.534626 0.436986
C111  C     C_R   0.728244 0.002814 0.534536 0.437421
C112  C     C_R   0.005832 0.728244 0.534221 0.436413
C113  C     C_R   0.793585 0.500000 0.999978 -0.297534
C114  C     C_R   0.499992 0.206415 0.000023 -0.297827
C115  C     C_R   0.206420 0.500005 0.000022 -0.299482
C116  C     C_R   0.499997 0.793580 0.999979 -0.299412
C117  C     C_R   0.293582 0.000041 0.500003 -0.298390
C118  C     C_R   0.999968 0.706417 0.499999 -0.298637
C119  C     C_R   0.706418 0.000050 0.499993 -0.298181
C120  C     C_R   0.999952 0.293582 0.500004 -0.298372
C121  C     C_1   0.661895 0.500002 0.999962 0.008235
C122  C     C_1   0.499989 0.338105 0.000039 0.008304
C123  C     C_1   0.338108 0.500005 0.000038 0.008389
C124  C     C_1   0.499996 0.661892 0.999963 0.008358
C125  C     C_1   0.161893 0.000014 0.499972 0.008213
C126  C     C_1   0.999981 0.838106 0.500028 0.008209
C127  C     C_1   0.838107 0.000013 0.500027 0.008431
C128  C     C_1   0.999983 0.161893 0.499973 0.008350
C129  C     C_1   0.838126 0.499999 0.999985 0.011201
C130  C     C_1   0.499998 0.161873 0.000015 0.010681
C131  C     C_1   0.161877 0.500002 0.000014 0.013303
C132  C     C_1   0.499998 0.838123 0.999986 0.013491
C133  C     C_1   0.338124 0.000019 0.500013 0.012387
C134  C     C_1   0.999985 0.661875 0.499988 0.011907
C135  C     C_1   0.661876 0.000024 0.499985 0.012955
C136  C     C_1   0.999977 0.338124 0.500013 0.012621
C137  C     C_1   0.875336 0.499999 0.999993 -0.121943
C138  C     C_1   0.500000 0.124663 0.000008 -0.122033
C139  C     C_1   0.124666 0.500001 0.000007 -0.115812
C140  C     C_1   0.499999 0.875334 0.999993 -0.115767
C141  C     C_1   0.375335 0.000005 0.500015 -0.118950
C142  C     C_1   0.999996 0.624665 0.499985 -0.119020
C143  C     C_1   0.624665 0.000007 0.499984 -0.118731
C144  C     C_1   0.999993 0.375335 0.500015 -0.118772
C145  C     C_1   0.624680 0.500001 0.999968 -0.143036
C146  C     C_1   0.499995 0.375320 0.000031 -0.143021
C147  C     C_1   0.375322 0.500002 0.000032 -0.142847
C148  C     C_1   0.499998 0.624677 0.999969 -0.142864
C149  C     C_1   0.124678 0.000006 0.499972 -0.143024
C150  C     C_1   0.999991 0.875321 0.500027 -0.143009
C151  C     C_1   0.875322 0.000006 0.500028 -0.142857
C152  C     C_1   0.999992 0.124678 0.499973 -0.142881
O33   O     O_R   0.500090 0.438950 0.968600 -0.606563
O34   O     O_R   0.438950 0.499910 0.968600 -0.606684
O35   O     O_R   0.499910 0.561050 0.968600 -0.606759
O36   O     O_R   0.561050 0.500090 0.968600 -0.606774
O37   O     O_R   0.500090 0.561050 0.031400 -0.606681
O38   O     O_R   0.438950 0.500090 0.031400 -0.606739
O39   O     O_R   0.499910 0.438950 0.031400 -0.606646
O40   O     O_R   0.561050 0.499910 0.031400 -0.606719
O41   O     O_R   0.000090 0.938950 0.468600 -0.606717
O42   O     O_R   0.938950 0.999910 0.468600 -0.606720
O43   O     O_R   0.999910 0.061050 0.468600 -0.606688
O44   O     O_R   0.061050 0.000090 0.468600 -0.606743
O45   O     O_R   0.000090 0.061050 0.531400 -0.606740
O46   O     O_R   0.938950 0.000090 0.531400 -0.606683
O47   O     O_R   0.999910 0.938950 0.531400 -0.606660
O48   O     O_R   0.061050 0.999910 0.531400 -0.606775
C153  C     C_R   0.500000 0.419420 0.000010 0.897174
C154  C     C_R   0.419420 0.500000 0.000010 0.897383
C155  C     C_R   0.500000 0.580579 0.999990 0.897460
C156  C     C_R   0.580580 0.500000 0.999990 0.897348
C157  C     C_R   0.999999 0.919420 0.500010 0.897300
C158  C     C_R   0.919420 1.000000 0.500010 0.897439
C159  C     C_R   1.000000 0.080580 0.499990 0.897479
C160  C     C_R   0.080580 1.000000 0.499990 0.897385
Zn9   Zn    Zn3+2 0.500000 0.500000 0.958130 1.053968
Zn10  Zn    Zn3+2 0.500000 0.500000 0.041870 1.053964
Zn11  Zn    Zn3+2 0.000000 1.000000 0.458130 1.054007
Zn12  Zn    Zn3+2 0.000000 0.000000 0.541870 1.054013
N1    N     N_R   0.942661 0.444487 0.692757 0.223137
O49   O     O_R   0.902942 0.449897 0.687736 -0.290519
O50   O     O_R   0.955502 0.416259 0.716298 -0.288664
N2    N     N_R   0.444415 0.057198 0.692714 0.223176
O51   O     O_R   0.449820 0.096921 0.687665 -0.290212
O52   O     O_R   0.416190 0.044342 0.716266 -0.288702
N3    N     N_R   0.057772 0.545369 0.695922 0.225640
O53   O     O_R   0.057875 0.585550 0.691508 -0.280600
O54   O     O_R   0.082325 0.528564 0.720749 -0.300197
N4    N     N_R   0.545288 0.942080 0.695963 0.225617
O55   O     O_R   0.585468 0.941963 0.691545 -0.281310
O56   O     O_R   0.528478 0.917532 0.720819 -0.300460
N5    N     N_R   0.942856 0.555627 0.307285 0.223290
O57   O     O_R   0.903128 0.550264 0.312337 -0.289758
O58   O     O_R   0.955738 0.583837 0.283730 -0.288809
N6    N     N_R   0.454694 0.942192 0.304070 0.225610
O59   O     O_R   0.414513 0.942050 0.308485 -0.281064
O60   O     O_R   0.471521 0.917657 0.279239 -0.300257
N7    N     N_R   0.057883 0.454650 0.304043 0.225621
O61   O     O_R   0.057963 0.414469 0.308461 -0.280854
O62   O     O_R   0.082450 0.471437 0.279189 -0.300642
N8    N     N_R   0.555470 0.057393 0.307245 0.223052
O63   O     O_R   0.550020 0.097107 0.312265 -0.290663
O64   O     O_R   0.583713 0.044580 0.283707 -0.288689
N9    N     N_R   0.442097 0.954758 0.196029 0.225676
O65   O     O_R   0.442022 0.914573 0.191682 -0.280697
O66   O     O_R   0.417526 0.971562 0.220850 -0.300545
N10   N     N_R   0.944376 0.557146 0.192717 0.223224
O67   O     O_R   0.949742 0.596874 0.187667 -0.290455
O68   O     O_R   0.916165 0.544263 0.216271 -0.288459
N11   N     N_R   0.557100 0.055764 0.192620 0.223302
O69   O     O_R   0.596831 0.050411 0.187583 -0.290028
O70   O     O_R   0.544203 0.083990 0.216121 -0.288796
N12   N     N_R   0.045356 0.442121 0.195956 0.225660
O71   O     O_R   0.085537 0.442043 0.191537 -0.280891
O72   O     O_R   0.028571 0.417554 0.220810 -0.300059
N13   N     N_R   0.442875 0.055662 0.807292 0.223308
O73   O     O_R   0.403145 0.050318 0.812347 -0.290015
O74   O     O_R   0.455770 0.083867 0.783737 -0.288664
N14   N     N_R   0.944275 0.442877 0.807373 0.223201
O75   O     O_R   0.949651 0.403149 0.812404 -0.290423
O76   O     O_R   0.916044 0.455762 0.783872 -0.288812
N15   N     N_R   0.557854 0.954628 0.804040 0.225643
O77   O     O_R   0.557915 0.914447 0.808459 -0.280926
O78   O     O_R   0.582424 0.971403 0.779182 -0.300357
N16   N     N_R   0.045226 0.557929 0.803975 0.225699
O79   O     O_R   0.085411 0.558021 0.808321 -0.280430
O80   O     O_R   0.028411 0.582497 0.779157 -0.300396
O81   O     O_3   0.945968 0.446955 0.611790 -0.707976
H1    H     H_    0.934305 0.424323 0.627433 0.386035
O82   O     O_3   0.446915 0.053955 0.611751 -0.707992
H2    H     H_    0.424266 0.065591 0.627379 0.385997
O83   O     O_3   0.057466 0.546031 0.614987 -0.704013
H3    H     H_    0.081352 0.553296 0.631244 0.387151
O84   O     O_3   0.545973 0.942444 0.615027 -0.703705
H4    H     H_    0.553213 0.918537 0.631294 0.386916
O85   O     O_3   0.946094 0.553129 0.388249 -0.708150
H5    H     H_    0.934484 0.575791 0.372621 0.386110
O86   O     O_3   0.454028 0.942490 0.385004 -0.703843
H6    H     H_    0.446790 0.918597 0.368746 0.387020
O87   O     O_3   0.057514 0.453969 0.384980 -0.703875
H7    H     H_    0.081412 0.446703 0.368713 0.386976
O88   O     O_3   0.553001 0.054081 0.388211 -0.707814
H8    H     H_    0.575621 0.065768 0.372569 0.385941
O89   O     O_3   0.442493 0.953991 0.115094 -0.703891
H9    H     H_    0.418588 0.946743 0.131367 0.387146
O90   O     O_3   0.946873 0.553908 0.111752 -0.708124
H10   H     H_    0.924214 0.565522 0.127381 0.386026
O91   O     O_3   0.553888 0.053179 0.111659 -0.708295
H11   H     H_    0.565481 0.075865 0.127244 0.386056
O92   O     O_3   0.046035 0.442489 0.115018 -0.703948
H12   H     H_    0.053304 0.418592 0.131286 0.387233
O93   O     O_3   0.446118 0.053158 0.888256 -0.708286
H13   H     H_    0.434518 0.075827 0.872630 0.386104
O94   O     O_3   0.946854 0.446086 0.888333 -0.708142
H14   H     H_    0.924178 0.434478 0.872745 0.385935
O95   O     O_3   0.557491 0.953947 0.884977 -0.703943
H15   H     H_    0.581385 0.946669 0.868708 0.387152
O96   O     O_3   0.045990 0.557527 0.884910 -0.703873
H16   H     H_    0.053230 0.581437 0.868638 0.387223
O97   O     O_3   0.791169 0.506387 0.069167 -0.647781
H17   H     H_    0.821734 0.506200 0.066331 0.349374
O98   O     O_3   0.517558 0.208716 0.067602 -0.647627
H18   H     H_    0.516878 0.178155 0.064821 0.349964
O99   O     O_3   0.208720 0.492431 0.069120 -0.641951
H19   H     H_    0.178160 0.492693 0.066280 0.353319
O100  O     O_3   0.495782 0.791163 0.069309 -0.641958
H20   H     H_    0.495902 0.821728 0.066470 0.353108
O101  O     O_3   0.791286 0.493612 0.930789 -0.648100
H21   H     H_    0.821846 0.493790 0.933635 0.349320
O102  O     O_3   0.504210 0.791279 0.930647 -0.642005
H22   H     H_    0.504092 0.821839 0.933495 0.353115
O103  O     O_3   0.208838 0.507580 0.930924 -0.641668
H23   H     H_    0.178273 0.507313 0.933754 0.353342
O104  O     O_3   0.482423 0.208827 0.932445 -0.647548
H24   H     H_    0.483117 0.178262 0.935215 0.349983
O105  O     O_3   0.291158 0.002560 0.569397 -0.648099
H25   H     H_    0.321723 0.002593 0.566557 0.348971
O106  O     O_3   0.011732 0.708712 0.568606 -0.641734
H26   H     H_    0.011263 0.678152 0.565786 0.353761
O107  O     O_3   0.708711 0.005595 0.569242 -0.642632
H27   H     H_    0.678151 0.005364 0.566398 0.352631
O108  O     O_3   0.999027 0.291159 0.569432 -0.648050
H28   H     H_    0.998919 0.321724 0.566593 0.348916
O109  O     O_3   0.291290 0.997546 0.430607 -0.642280
H29   H     H_    0.321849 0.997637 0.433457 0.353130
O110  O     O_3   0.000852 0.291289 0.430574 -0.642111
H30   H     H_    0.000823 0.321848 0.433426 0.353083
O111  O     O_3   0.708843 0.994533 0.430743 -0.648241
H31   H     H_    0.678278 0.994927 0.433562 0.348656
O112  O     O_3   0.988187 0.708838 0.431396 -0.647785
H32   H     H_    0.988590 0.678273 0.434212 0.349453
O113  O     O_3   0.708750 0.506353 0.069158 -0.649635
H33   H     H_    0.678190 0.506069 0.066319 0.350746
O114  O     O_3   0.517531 0.291137 0.067618 -0.649916
H34   H     H_    0.516775 0.321701 0.064858 0.350459
O115  O     O_3   0.291139 0.492459 0.069134 -0.648963
H35   H     H_    0.321703 0.492798 0.066307 0.350591
O116  O     O_3   0.495805 0.708746 0.069299 -0.648722
H36   H     H_    0.495992 0.678186 0.066454 0.350702
O117  O     O_3   0.708866 0.493656 0.930775 -0.650083
H37   H     H_    0.678301 0.493957 0.933605 0.350619
O118  O     O_3   0.504181 0.708859 0.930635 -0.648779
H38   H     H_    0.503981 0.678295 0.933473 0.350688
O119  O     O_3   0.291255 0.507564 0.930934 -0.648517
H39   H     H_    0.321815 0.507248 0.933770 0.350719
O120  O     O_3   0.482423 0.291246 0.932456 -0.649847
H40   H     H_    0.483126 0.321806 0.935234 0.350475
O121  O     O_3   0.208738 0.002501 0.569379 -0.649836
H41   H     H_    0.178179 0.002362 0.566527 0.350737
O122  O     O_3   0.011715 0.791130 0.568626 -0.648860
H42   H     H_    0.011204 0.821695 0.565824 0.350570
O123  O     O_3   0.791129 0.005609 0.569261 -0.648904
H43   H     H_    0.821693 0.005404 0.566428 0.350691
O124  O     O_3   0.999089 0.208739 0.569413 -0.649753
H44   H     H_    0.999164 0.178180 0.566560 0.350758
O125  O     O_3   0.208872 0.997561 0.430587 -0.648997
H45   H     H_    0.178307 0.997685 0.433424 0.350658
O126  O     O_3   0.000836 0.208870 0.430555 -0.648745
H46   H     H_    0.000772 0.178306 0.433394 0.350719
O127  O     O_3   0.791263 0.994453 0.430768 -0.649748
H47   H     H_    0.821822 0.994619 0.433619 0.350757
O128  O     O_3   0.988211 0.791259 0.431412 -0.649821
H48   H     H_    0.988696 0.821818 0.434232 0.350622

loop_
_geom_bond_atom_site_label_1
_geom_bond_atom_site_label_2
_geom_bond_distance
_ccdc_geom_bond_type
O45   Zn12  1.997491 S    
O125  H45   0.987774 S    
C42   C54   1.407944 A    
C8    C144  1.417522 S    
O40   Zn10  1.997493 S    
O92   H12   0.989110 S    
O115  H35   0.987775 S    
C26   N10   1.436050 S    
O113  H33   0.987774 S    
C101  O97   1.385993 S    
C130  C138  1.196326 T    
O43   C159  1.279821 A    
C20   C58   1.406195 A    
O18   Zn2   2.006678 S    
C23   N7    1.436869 S    
C75   O115  1.385935 S    
O82   H2    0.988927 S    
C43   C53   1.407950 A    
O25   C13   1.276148 A    
C68   C69   1.194830 T    
C114  C130  1.432032 S    
C79   O119  1.385937 S    
O12   C8    1.272221 A    
C108  C120  1.416508 A    
O24   Zn4   2.006672 S    
N12   O72   1.301076 A    
C118  C134  1.432052 S    
O84   H4    0.989111 S    
N8    O64   1.300994 A    
O3    C3    1.272243 A    
C57   C65   1.428217 S    
O46   C158  1.279824 A    
C86   C96   1.416527 A    
N9    O65   1.301242 A    
C74   C90   1.416545 A    
O38   Zn10  1.997943 S    
O39   Zn10  1.997933 S    
C78   C100  1.396001 A    
N10   O68   1.300995 A    
O123  H43   0.987771 S    
O44   Zn11  1.997941 S    
C10   C55   1.463155 S    
C47   O95   1.383911 S    
N11   O69   1.301175 A    
C74   O114  1.385949 S    
O41   Zn11  1.997495 S    
O17   C9    1.275287 A    
C17   N1    1.436041 S    
C14   C51   1.463177 S    
O97   H17   0.987796 S    
C20   C36   1.409285 A    
C46   O94   1.384426 S    
O16   C6    1.272218 A    
O39   C153  1.279814 A    
C40   C52   1.407979 A    
O37   C155  1.279774 A    
C149  C160  1.417806 S    
C26   C42   1.409399 A    
C105  C117  1.416509 A    
O98   H18   0.987805 S    
C17   C57   1.405241 A    
C32   N16   1.436874 S    
C97   C113  1.416502 A    
C48   O96   1.383914 S    
O42   C158  1.279761 A    
N4    O56   1.301076 A    
C42   O90   1.384430 S    
C100  C116  1.416507 A    
C76   C102  1.395988 A    
C65   C72   1.194830 T    
O26   Zn6   2.006678 S    
O7    C3    1.272244 A    
C67   C70   1.194842 T    
C80   C98   1.396004 A    
O37   Zn10  1.997491 S    
O27   C13   1.275294 A    
C3    C139  1.417553 S    
O6    C4    1.272245 A    
O31   C15   1.276125 A    
C1    C137  1.417492 S    
C136  C144  1.196345 T    
C37   C51   1.407947 A    
C87   C95   1.416554 A    
C124  C148  1.196461 T    
C73   O113  1.385938 S    
C39   O87   1.383912 S    
C127  C151  1.196471 T    
C128  C152  1.196471 T    
C34   C50   1.407963 A    
O9    C5    1.272217 A    
O11   C7    1.272261 A    
C81   C109  1.396009 A    
C112  O106  1.385987 S    
C104  C114  1.416494 A    
O114  H34   0.987778 S    
O36   C156  1.279810 A    
O5    C1    1.272227 A    
C40   O88   1.384427 S    
O107  H27   0.987781 S    
C146  C153  1.417831 S    
N13   O74   1.300995 A    
O126  H46   0.987772 S    
O5    Zn3   1.993838 S    
C102  C116  1.416499 A    
C82   C112  1.395995 A    
C27   C43   1.409396 A    
O121  H41   0.987771 S    
C21   N5    1.436050 S    
O122  H42   0.987776 S    
C18   C58   1.405240 A    
C25   C61   1.406204 A    
C134  C142  1.196342 T    
O36   Zn9   1.997941 S    
C43   O91   1.384428 S    
O33   Zn9   1.997495 S    
N1    O49   1.301174 A    
O23   C11   1.276114 A    
C103  O99   1.385971 S    
C151  C158  1.417800 S    
C110  O108  1.385979 S    
C100  O102  1.385969 S    
C11   C54   1.463175 S    
N6    O59   1.301243 A    
N13   O73   1.301174 A    
O14   C8    1.272257 A    
C13   C52   1.463237 S    
C82   C94   1.416523 A    
C23   C59   1.406197 A    
O2    Zn2   1.993829 S    
C109  O105  1.385981 S    
C21   C37   1.409397 A    
C47   C55   1.407682 A    
C79   C91   1.416543 A    
O28   C14   1.276117 A    
C106  O112  1.385999 S    
O26   C14   1.275296 A    
O29   C15   1.275308 A    
C77   C89   1.416547 A    
N5    O57   1.301176 A    
O8    Zn4   1.993826 S    
C39   C51   1.407692 A    
C90   C122  1.432260 S    
O85   H5    0.988936 S    
C35   O83   1.383920 S    
C131  C139  1.196362 T    
O109  H29   0.987786 S    
O40   C156  1.279784 A    
C129  C137  1.196333 T    
O19   Zn3   2.006235 S    
O34   Zn9   1.997496 S    
C66   C71   1.194840 T    
C29   C63   1.405254 A    
C60   C68   1.428218 S    
C64   C72   1.428216 S    
C38   C52   1.407721 A    
C116  C132  1.432068 S    
C36   O84   1.383908 S    
C83   C95   1.416523 A    
C111  C119  1.416507 A    
O16   Zn8   1.993826 S    
C7    C143  1.417530 S    
O93   H13   0.988938 S    
C88   C94   1.416559 A    
O34   C154  1.279773 A    
C103  C115  1.416507 A    
C76   C92   1.416540 A    
C99   C115  1.416497 A    
O128  H48   0.987776 S    
C45   O93   1.384429 S    
O91   H11   0.988940 S    
C89   C121  1.432262 S    
N7    O62   1.301077 A    
O6    Zn2   1.993824 S    
N16   O80   1.301076 A    
C80   O120  1.385949 S    
C104  O98   1.386008 S    
N3    O54   1.301077 A    
C15   C50   1.463216 S    
C41   O89   1.383912 S    
O35   Zn9   1.997930 S    
C29   C45   1.409399 A    
O18   C10   1.275293 A    
C29   N13   1.436051 S    
O21   Zn3   2.006670 S    
O124  H44   0.987769 S    
C31   C63   1.406205 A    
C22   C38   1.409266 A    
N14   O75   1.301176 A    
C106  C118  1.416487 A    
O44   C160  1.279819 A    
O1    C1    1.272228 A    
C6    C142  1.417516 S    
C85   C105  1.395993 A    
O13   C5    1.272254 A    
C45   C55   1.407941 A    
C88   C106  1.396011 A    
C73   C101  1.396002 A    
C82   O122  1.385947 S    
O38   C154  1.279805 A    
C150  C157  1.417805 S    
C78   C92   1.416535 A    
C35   C49   1.407710 A    
C133  C141  1.196349 T    
O29   Zn7   2.006670 S    
C2    C138  1.417481 S    
C36   C50   1.407707 A    
O88   H8    0.988922 S    
C95   C127  1.432230 S    
C98   C114  1.416485 A    
C48   C56   1.407688 A    
N7    O61   1.301245 A    
O118  H38   0.987776 S    
N2    O51   1.301177 A    
C111  O107  1.385978 S    
C98   O104  1.386010 S    
N15   O77   1.301243 A    
O10   C6    1.272250 A    
C27   C61   1.405251 A    
O47   Zn12  1.997933 S    
C110  C120  1.416491 A    
C20   N4    1.436871 S    
O15   Zn5   1.993838 S    
C28   C62   1.406199 A    
C38   O86   1.383917 S    
C30   C64   1.405245 A    
C87   O127  1.385944 S    
C24   N8    1.436041 S    
C61   C69   1.428214 S    
C63   C71   1.428228 S    
O111  H31   0.987794 S    
C81   O121  1.385931 S    
C121  C145  1.196487 T    
C99   O103  1.385978 S    
O32   Zn8   2.006672 S    
C125  C149  1.196474 T    
O86   H6    0.989107 S    
C94   C126  1.432238 S    
C18   C34   1.409399 A    
C19   N3    1.436862 S    
C152  C159  1.417799 S    
C132  C140  1.196358 T    
C30   N14   1.436051 S    
O22   Zn2   2.006228 S    
C107  C119  1.416490 A    
O104  H24   0.987804 S    
O81   H1    0.988927 S    
O21   C11   1.275297 A    
C24   C40   1.409410 A    
O22   C12   1.276113 A    
O23   Zn1   2.006230 S    
C112  C118  1.416502 A    
C31   N15   1.436873 S    
C83   C111  1.395993 A    
C84   C96   1.416558 A    
O100  H20   0.987787 S    
C28   C44   1.409284 A    
C84   C110  1.396008 A    
O120  H40   0.987777 S    
C86   C108  1.395991 A    
C23   C39   1.409283 A    
C32   C64   1.406201 A    
O46   Zn12  1.997943 S    
O101  H21   0.987799 S    
O8    C2    1.272224 A    
O108  H28   0.987797 S    
C74   C104  1.396017 A    
O96   H16   0.989108 S    
C92   C124  1.432212 S    
O89   H9    0.989106 S    
O28   Zn8   2.006229 S    
C93   C125  1.432236 S    
C25   C41   1.409274 A    
O116  H36   0.987771 S    
O30   Zn6   2.006228 S    
C91   C123  1.432220 S    
N8    O63   1.301173 A    
C44   C54   1.407691 A    
O41   C157  1.279760 A    
C46   C56   1.407957 A    
C31   C47   1.409284 A    
N9    O66   1.301076 A    
C62   C70   1.428231 S    
O9    Zn5   1.993835 S    
O94   H14   0.988940 S    
O11   Zn7   1.993827 S    
N10   O67   1.301175 A    
C25   N9    1.436877 S    
C18   N2    1.436049 S    
C34   O82   1.384428 S    
C59   C67   1.428231 S    
C102  O100  1.385971 S    
C79   C99   1.395989 A    
N12   O71   1.301243 A    
C33   C49   1.407956 A    
O110  H30   0.987784 S    
C77   O117  1.385930 S    
O103  H23   0.987789 S    
O31   Zn5   2.006230 S    
N6    O60   1.301073 A    
C76   O116  1.385933 S    
N4    O55   1.301246 A    
O17   Zn1   2.006671 S    
C97   O101  1.385986 S    
O106  H26   0.987790 S    
C9    C56   1.463173 S    
C28   N12   1.436869 S    
C24   C60   1.405230 A    
O45   C159  1.279764 A    
O99   H19   0.987791 S    
C113  C129  1.432040 S    
C33   O81   1.384430 S    
C109  C117  1.416494 A    
C117  C133  1.432060 S    
O13   Zn7   1.993838 S    
O48   Zn12  1.997493 S    
O102  H22   0.987787 S    
O2    C2    1.272228 A    
O95   H15   0.989106 S    
C26   C62   1.405251 A    
O112  H32   0.987801 S    
C101  C113  1.416490 A    
C88   O128  1.385942 S    
C86   O126  1.385933 S    
C4    C140  1.417548 S    
C75   C91   1.416531 A    
O117  H37   0.987777 S    
C5    C141  1.417524 S    
C78   O118  1.385931 S    
C73   C89   1.416555 A    
O4    Zn4   1.993836 S    
C80   C90   1.416552 A    
C148  C155  1.417783 S    
N11   O70   1.300993 A    
C17   C33   1.409412 A    
O47   C157  1.279823 A    
C123  C147  1.196465 T    
C37   O85   1.384430 S    
O32   C16   1.276147 A    
C12   C53   1.463149 S    
N3    O53   1.301242 A    
C83   O123  1.385945 S    
C58   C66   1.428229 S    
O15   C7    1.272219 A    
O48   C160  1.279762 A    
C119  C135  1.432066 S    
C120  C136  1.432058 S    
C21   C59   1.405253 A    
C32   C48   1.409275 A    
C85   O125  1.385933 S    
O25   Zn5   2.006671 S    
C75   C103  1.396005 A    
C22   N6    1.436864 S    
O3    Zn3   1.993827 S    
O27   Zn7   2.006235 S    
C84   O124  1.385931 S    
O7    Zn1   1.993838 S    
N14   O76   1.301000 A    
C122  C146  1.196493 T    
C96   C128  1.432232 S    
O87   H7    0.989108 S    
C126  C150  1.196477 T    
O42   Zn11  1.997496 S    
C108  O110  1.385969 S    
O35   C155  1.279800 A    
C41   C53   1.407679 A    
O19   C9    1.276119 A    
O33   C153  1.279782 A    
C147  C154  1.417787 S    
O83   H3    0.989110 S    
O24   C12   1.275288 A    
C145  C156  1.417832 S    
C105  O109  1.385971 S    
N5    O58   1.300997 A    
O12   Zn8   1.993836 S    
O14   Zn6   1.993824 S    
C16   C49   1.463193 S    
O90   H10   0.988931 S    
C19   C57   1.406184 A    
C22   C60   1.406180 A    
C30   C46   1.409397 A    
C19   C35   1.409261 A    
C107  O111  1.385987 S    
C85   C93   1.416529 A    
C135  C143  1.196352 T    
O30   C16   1.275279 A    
C77   C97   1.396018 A    
N2    O52   1.300996 A    
O4    C4    1.272246 A    
O127  H47   0.987770 S    
O43   Zn11  1.997930 S    
N1    O50   1.301000 A    
N15   O78   1.301076 A    
O20   Zn4   2.006229 S    
C44   O92   1.383911 S    
O20   C10   1.276109 A    
O105  H25   0.987794 S    
O10   Zn6   1.993829 S    
N16   O79   1.301246 A    
C115  C131  1.432069 S    
C81   C93   1.416558 A    
O119  H39   0.987773 S    
O1    Zn1   1.993835 S    
C87   C107  1.396006 A    
C27   N11   1.436057 S    
