data_mof_unit_8806.cif
_audit_creation_date              2012-12-11T15:28:34-0500
_audit_creation_method            fapswitch 2.2
_symmetry_space_group_name_H-M    P1
_symmetry_Int_Tables_number       1
_space_group_crystal_system       triclinic
_cell_length_a                    6.951646
_cell_length_b                    19.574832
_cell_length_c                    23.300167
_cell_angle_alpha                 95.80584
_cell_angle_beta                  91.543083
_cell_angle_gamma                 88.287045
_cell_volume                      3152.03913533

loop_
_atom_site_label
_atom_site_type_symbol
_atom_type_description
_atom_site_fract_x
_atom_site_fract_y
_atom_site_fract_z
_atom_type_partial_charge
O1    O     O_R   0.617180 0.809390 0.808140 -0.510644
O2    O     O_R   0.382820 0.190610 0.191860 -0.492958
O3    O     O_R   0.293300 0.672410 0.795490 -0.538887
O4    O     O_R   0.706700 0.327590 0.204510 -0.539015
O5    O     O_R   0.117220 0.690610 0.691850 -0.531037
O6    O     O_R   0.882780 0.309390 0.308150 -0.532249
C1    C     C_R   0.465628 0.647783 0.805459 0.715930
C2    C     C_R   0.534366 0.352210 0.194534 0.717538
O7    O     O_R   0.287840 0.807750 0.814460 -0.518854
O8    O     O_R   0.712160 0.192250 0.185540 -0.520328
O9    O     O_R   0.111720 0.826910 0.710960 -0.521179
O10   O     O_R   0.888280 0.173090 0.289040 -0.526506
C3    C     C_R   0.456585 0.830555 0.833320 0.801685
C4    C     C_R   0.543350 0.169575 0.166594 0.782000
O11   O     O_R   0.622680 0.673080 0.789040 -0.534885
O12   O     O_R   0.377320 0.326920 0.210960 -0.533096
O13   O     O_3   0.448820 0.756130 0.716020 -0.367683
O14   O     O_3   0.551180 0.243870 0.283980 -0.369847
V1    V     V_3+5 0.176220 0.748860 0.756300 1.516201
V2    V     V_3+5 0.823780 0.251140 0.243700 1.528456
O15   O     O_R   0.781670 0.827580 0.704500 -0.520775
O16   O     O_R   0.218330 0.172420 0.295500 -0.516751
C5    C     C_R   0.946443 0.852784 0.694731 0.805537
C6    C     C_R   0.053574 0.147177 0.305247 0.797155
O17   O     O_R   0.787130 0.692240 0.685530 -0.534022
O18   O     O_R   0.212870 0.307760 0.314470 -0.535850
C7    C     C_R   0.956050 0.669209 0.666777 0.691229
C8    C     C_R   0.043950 0.330793 0.333222 0.680806
V3    V     V_3+5 0.675510 0.751130 0.743690 1.516802
V4    V     V_3+5 0.324490 0.248870 0.256310 1.544794
O19   O     O_3   0.952780 0.743870 0.783980 -0.358396
O20   O     O_3   0.047220 0.256130 0.216020 -0.349479
C9    C     C_1   0.966473 0.617143 0.614733 -0.194648
C10   C     C_1   0.033525 0.382860 0.385265 -0.197502
C11   C     C_1   0.978059 0.573633 0.571921 0.020889
C12   C     C_1   0.021938 0.426370 0.428076 0.021221
C13   C     C_1   0.993375 0.521851 0.521316 0.025045
C14   C     C_1   0.006621 0.478152 0.478681 0.026278
C15   C     C_R   0.937769 0.916653 0.665079 -0.185605
C16   C     C_R   0.062316 0.083238 0.334857 -0.190663
C17   C     C_R   0.775113 0.026126 0.653910 -0.182517
C18   C     C_R   0.225217 0.973876 0.346322 -0.182618
C19   C     C_R   0.829212 0.974411 0.688685 0.456155
C20   C     C_R   0.172252 0.025623 0.311505 0.450336
C21   C     C_R   0.008976 0.916626 0.608903 -0.282461
C22   C     C_R   0.989585 0.083084 0.390871 -0.279029
C23   C     C_R   0.970129 0.972643 0.575214 0.100067
C24   C     C_R   0.028471 0.027155 0.424694 0.098421
C25   C     C_R   0.835629 0.023603 0.596901 0.005129
C26   C     C_R   0.163448 0.976269 0.403156 0.006859
C27   C     C_R   0.045571 0.976879 0.518803 0.020861
C28   C     C_R   0.952906 0.022946 0.481128 0.020026
C29   C     C_R   0.787855 0.062127 0.501548 0.141514
C30   C     C_R   0.210783 0.937754 0.498481 0.141479
C31   C     C_R   0.747559 0.067771 0.560227 -0.150642
C32   C     C_R   0.251345 0.932116 0.439857 -0.148716
H1    H     H_    0.630198 0.101759 0.576059 0.151776
H2    H     H_    0.368962 0.898189 0.424113 0.153066
H3    H     H_    0.917604 0.129460 0.409256 0.144101
H4    H     H_    0.080154 0.870160 0.590360 0.144294
H5    H     H_    0.677747 0.067194 0.670710 0.187242
H6    H     H_    0.323504 0.932969 0.329760 0.185054
C33   C     C_R   0.487667 0.585053 0.835415 -0.121586
C34   C     C_R   0.512239 0.414822 0.164428 -0.120097
C35   C     C_R   0.583058 0.464329 0.832034 0.448647
C36   C     C_R   0.415545 0.535380 0.167406 0.430076
C37   C     C_R   0.557671 0.524757 0.805070 -0.238207
C38   C     C_R   0.441721 0.475156 0.194597 -0.258340
C39   C     C_R   0.457314 0.586460 0.894720 -0.085426
C40   C     C_R   0.542699 0.413215 0.105108 -0.073735
C41   C     C_R   0.506996 0.528953 0.925008 0.077921
C42   C     C_R   0.493315 0.470611 0.074653 0.068716
C43   C     C_R   0.548026 0.465574 0.891940 -0.078670
C44   C     C_R   0.451916 0.534041 0.107597 -0.076826
C45   C     C_R   0.505549 0.531324 0.986719 -0.084823
C46   C     C_R   0.495508 0.468140 0.012925 -0.088073
C47   C     C_R   0.485248 0.405596 0.975943 0.411047
C48   C     C_R   0.516572 0.593827 0.023667 0.408376
C49   C     C_R   0.535821 0.404753 0.918336 -0.095278
C50   C     C_R   0.465793 0.594823 0.081264 -0.097648
H7    H     H_    0.542204 0.355622 0.892678 0.243862
H8    H     H_    0.460973 0.643928 0.107015 0.243856
H9    H     H_    0.605271 0.367059 0.083340 0.177456
H10   H     H_    0.394977 0.632599 0.916611 0.172295
H11   H     H_    0.412984 0.475500 0.240084 0.148653
H12   H     H_    0.586531 0.524670 0.759627 0.136742
C51   C     C_1   0.467289 0.882679 0.885333 -0.121921
C52   C     C_1   0.532516 0.117553 0.114511 -0.146242
C53   C     C_1   0.478695 0.926303 0.928079 0.072579
C54   C     C_1   0.521065 0.073981 0.071731 0.075335
C55   C     C_1   0.493511 0.978246 0.978604 0.078074
C56   C     C_1   0.506251 0.022073 0.021182 0.081484
S1    S     S_3+6 0.366336 0.331206 0.993361 0.034771
O21   O     O_2   0.230628 0.348669 0.042193 -0.337500
O22   O     O_2   0.252368 0.301773 0.941374 -0.256920
O23   O     O_3   0.530381 0.271446 0.011013 -0.501855
H13   H     H_    0.454348 0.234394 0.024456 0.359960
S2    S     S_3+6 0.637677 0.667691 0.006201 0.029862
O24   O     O_2   0.492195 0.721976 0.991464 -0.341176
O25   O     O_2   0.755376 0.695873 0.057838 -0.257071
O26   O     O_3   0.786777 0.648108 0.950858 -0.506912
H14   H     H_    0.825257 0.692967 0.939284 0.361071
S3    S     S_3+6 0.263510 0.018644 0.240850 0.024407
O27   O     O_2   0.273172 0.944272 0.217178 -0.285779
O28   O     O_2   0.138383 0.058118 0.201387 -0.338170
O29   O     O_3   0.486779 0.049848 0.244751 -0.519012
H15   H     H_    0.553867 0.025999 0.211155 0.363250
S4    S     S_3+6 0.744443 0.981677 0.760082 0.032825
O30   O     O_2   0.729631 0.056153 0.783141 -0.274565
O31   O     O_2   0.548117 0.951445 0.759135 -0.348190
O32   O     O_3   0.894440 0.939802 0.803259 -0.508889
H16   H     H_    0.834607 0.945772 0.841604 0.355094
C57   C     C_3   0.633103 0.089843 0.462589 -0.770272
H17   H     H_    0.643925 0.146335 0.462883 0.206442
H18   H     H_    0.637958 0.064177 0.417963 0.230160
H19   H     H_    0.488345 0.079100 0.478187 0.215015
C58   C     C_3   0.365539 0.910142 0.537510 -0.768957
H20   H     H_    0.360430 0.935811 0.582130 0.229428
H21   H     H_    0.354986 0.853641 0.537226 0.207900
H22   H     H_    0.510309 0.920967 0.521967 0.214977
S5    S     S_3+6 0.661840 0.388917 0.789501 0.078642
O33   O     O_2   0.826311 0.355212 0.820162 -0.250670
O34   O     O_2   0.499226 0.339699 0.780674 -0.287025
O35   O     O_3   0.736312 0.407434 0.724842 -0.480035
H23   H     H_    0.617745 0.409599 0.700460 0.341469
S6    S     S_3+6 0.334254 0.610658 0.209611 0.078752
O36   O     O_2   0.499027 0.658535 0.220955 -0.256778
O37   O     O_2   0.175733 0.646048 0.177714 -0.278529
O38   O     O_3   0.252111 0.591629 0.273206 -0.475193
H24   H     H_    0.131469 0.566903 0.263371 0.340124

loop_
_geom_bond_atom_site_label_1
_geom_bond_atom_site_label_2
_ccdc_geom_bond_type
C36   C38   A    
C21   H4    S    
S1    O21   D    
C22   H3    S    
O13   V3    S    
O32   H16   S    
C17   H5    S    
C42   C46   A    
V1    O19   S    
C23   C25   A    
C7    C9    S    
C16   C22   A    
O9    V1    S    
S6    O36   D    
C34   C38   A    
C11   C13   S    
C57   H17   S    
O3    C1    A    
C58   H21   S    
C9    C11   T    
C48   C50   A    
O29   H15   S    
O12   V4    S    
C36   C44   A    
C35   C43   A    
S4    O30   D    
O9    C5    A    
C39   C41   A    
O7    C3    A    
S5    O35   S    
C6    C16   S    
O5    C7    A    
O7    V1    S    
O6    C8    A    
C33   C39   A    
O8    V2    S    
C35   C37   A    
C48   S2    S    
O3    V1    S    
O14   V4    S    
C34   C40   A    
C32   H2    S    
C53   C55   S    
C18   H6    S    
C10   C12   T    
O4    C2    A    
C15   C21   A    
C57   H19   S    
C21   C23   A    
C8    C10   S    
C2    O12   A    
C44   C50   A    
C38   H11   S    
C17   C19   A    
O10   V2    S    
C18   C20   A    
C17   C25   A    
C20   S3    S    
C29   C57   S    
O11   V3    S    
C22   C24   A    
C29   C31   A    
O17   V3    S    
C33   C37   A    
C27   C28   A    
V4    O20   S    
O26   H14   S    
C46   C47   A    
C42   C44   A    
O8    C4    A    
C58   H22   S    
C55   C56   T    
C49   H7    S    
C15   C19   A    
C1    O11   A    
S6    O38   S    
C25   C31   A    
O15   V3    S    
C26   C32   A    
C36   S6    S    
C45   C46   A    
C13   C14   T    
C54   C56   S    
C16   C20   A    
O23   H13   S    
C3    C51   S    
O1    V3    S    
C43   C49   A    
C47   C49   A    
S3    O28   D    
C40   H9    S    
C1    C33   S    
S5    O33   D    
C18   C26   A    
C50   H8    S    
C2    C34   S    
O18   V4    S    
S1    O23   S    
C35   S5    S    
O15   C5    A    
O16   C6    A    
O1    C3    A    
C12   C14   S    
C28   C29   A    
C47   S1    S    
C41   C43   A    
O38   H24   S    
V2    O20   S    
C37   H12   S    
S6    O37   D    
O16   V4    S    
O18   C8    A    
C52   C54   T    
C23   C27   A    
C30   C32   A    
O5    V1    S    
O17   C7    A    
S2    O26   S    
O6    V2    S    
O10   C6    A    
S2    O25   D    
S4    O32   S    
O2    V4    S    
C27   C30   A    
C31   H1    S    
C4    C52   S    
V3    O19   S    
C39   H10   S    
C58   H20   S    
C41   C45   A    
C5    C15   S    
C24   C26   A    
O13   V1    S    
S4    O31   D    
S3    O29   S    
O14   V2    S    
C19   S4    S    
O2    C4    A    
C45   C48   A    
S5    O34   D    
O4    V2    S    
C24   C28   A    
S1    O22   D    
S2    O24   D    
C30   C58   S    
S3    O27   D    
C51   C53   T    
C40   C42   A    
O35   H23   S    
C57   H18   S    
