data_mof_unit_46430.cif
_audit_creation_date              2012-12-10T20:49:10-0500
_audit_creation_method            fapswitch 2.2
_symmetry_space_group_name_H-M    P1
_symmetry_Int_Tables_number       1
_space_group_crystal_system       triclinic
_cell_length_a                    9.134066
_cell_length_b                    8.121015
_cell_length_c                    10.600566
_cell_angle_alpha                 89.275311
_cell_angle_beta                  89.781994
_cell_angle_gamma                 90.028937
_cell_volume                      786.258878592

loop_
_atom_site_label
_atom_site_type_symbol
_atom_type_description
_atom_site_fract_x
_atom_site_fract_y
_atom_site_fract_z
_atom_type_partial_charge
C1    C     C_R   0.217711 0.499984 0.499158 0.950501
C2    C     C_R   0.782297 0.500027 0.500282 0.916290
C3    C     C_R   0.496244 0.500606 0.257178 0.913016
C4    C     C_R   0.497430 0.499642 0.742861 1.000094
C5    C     C_3   0.382396 0.598604 0.040598 0.037092
C6    C     C_3   0.599907 0.405097 0.960155 -0.002278
C7    C     C_3   0.510479 0.654554 0.957451 0.146993
C8    C     C_3   0.469949 0.346236 0.041858 0.093393
C9    C     C_3   0.360005 0.442672 0.958974 0.336180
C10   C     C_3   0.618893 0.559460 0.040567 0.363785
C11   C     C_3   0.491702 0.500308 0.876793 -0.294915
C12   C     C_3   0.490914 0.501326 0.123180 -0.318047
C13   C     C_1   0.064781 0.499970 0.499151 -0.090804
C14   C     C_1   0.935230 0.500047 0.499671 -0.117983
N1    N     N_1   0.500000 0.073640 0.500000 -0.028080
N2    N     N_1   0.500000 0.926360 0.500000 -0.028062
O1    O     O_R   0.285350 0.636850 0.500000 -0.629067
O2    O     O_R   0.714650 0.363150 0.500000 -0.626197
O3    O     O_R   0.714650 0.636850 0.500000 -0.590627
O4    O     O_R   0.285350 0.363150 0.500000 -0.605015
O5    O     O_R   0.499970 0.636850 0.313950 -0.579759
O6    O     O_R   0.500030 0.363150 0.686050 -0.586968
O7    O     O_R   0.500030 0.636850 0.686050 -0.649636
O8    O     O_R   0.499970 0.363150 0.313950 -0.647197
Zn1   Zn    Zn3+2 0.500000 0.682780 0.500000 1.026740
Zn2   Zn    Zn3+2 0.500000 0.317220 0.500000 1.018539
S1    S     S_3+6 0.194843 0.369670 0.888291 -0.003124
O9    O     O_2   0.137807 0.497977 0.797870 -0.320724
O10   O     O_2   0.225553 0.214581 0.817439 -0.293202
O11   O     O_3   0.067268 0.331083 0.999026 -0.550542
H1    H     H_    0.109390 0.369876 0.079093 0.351508
S2    S     S_3+6 0.777028 0.660176 0.096657 -0.003598
O12   O     O_2   0.849033 0.738111 0.983487 -0.344672
O13   O     O_2   0.735057 0.793135 0.187213 -0.283365
O14   O     O_3   0.889117 0.525263 0.168709 -0.579272
H2    H     H_    0.824647 0.458514 0.224548 0.332425
N3    N     N_2   0.278296 0.708947 0.098157 -0.328612
H3    H     H_    0.249897 0.675980 0.189229 0.232156
C15   C     C_3   0.152605 0.749176 0.023522 -0.523314
H4    H     H_    0.093474 0.853827 0.066663 0.255139
H5    H     H_    0.081901 0.640490 0.021484 0.333371
H6    H     H_    0.181377 0.780925 0.924995 0.242421
N4    N     N_2   0.717403 0.309985 0.904492 -0.291610
H7    H     H_    0.797001 0.382521 0.862627 0.290142
C16   C     C_3   0.774591 0.174360 0.978559 -0.514652
H8    H     H_    0.871705 0.121675 0.930458 0.278810
H9    H     H_    0.692671 0.074711 0.985696 0.248618
H10   H     H_    0.805906 0.215685 0.074170 0.242809
N5    N     N_2   0.548421 0.816707 0.907300 -0.275716
H11   H     H_    0.638536 0.814700 0.848592 0.266885
C17   C     C_3   0.433412 0.920687 0.858594 -0.601401
H12   H     H_    0.482201 0.031962 0.813206 0.251843
H13   H     H_    0.363885 0.962383 0.936678 0.278946
H14   H     H_    0.366282 0.856185 0.787833 0.246950
N6    N     N_2   0.455568 0.180823 0.094557 -0.279056
H15   H     H_    0.544279 0.146354 0.148454 0.263939
C18   C     C_3   0.317923 0.138571 0.154843 -0.669109
H16   H     H_    0.331704 0.025355 0.213498 0.242111
H17   H     H_    0.234579 0.111616 0.082808 0.270330
H18   H     H_    0.278580 0.238828 0.216418 0.225578

loop_
_geom_bond_atom_site_label_1
_geom_bond_atom_site_label_2
_ccdc_geom_bond_type
C6    C10   S    
C7    C10   S    
C17   H13   S    
N6    H15   S    
C5    C9    S    
N3    H3    S    
N2    Zn1   S    
C5    N3    S    
S1    O10   D    
C9    C11   S    
C1    O1    A    
O14   H2    S    
O2    Zn2   S    
C1    O4    A    
C8    C12   S    
C17   H14   S    
O1    Zn1   S    
S2    O12   D    
O7    Zn1   S    
C4    O6    A    
C18   H16   S    
C15   H5    S    
C13   C14   T    
S1    O11   S    
C7    C11   S    
N4    C16   S    
C6    C11   S    
C7    N5    S    
C3    O8    A    
O4    Zn2   S    
O3    Zn1   S    
C10   C12   S    
C8    N6    S    
O8    Zn2   S    
C15   H6    S    
C6    N4    S    
N6    C18   S    
N4    H7    S    
O11   H1    S    
C2    C14   S    
C3    O5    A    
C18   H17   S    
C2    O2    A    
C17   H12   S    
S2    O14   S    
C10   S2    S    
C15   H4    S    
C1    C13   S    
C9    S1    S    
C5    C12   S    
N3    C15   S    
N5    H11   S    
O6    Zn2   S    
C16   H9    S    
S1    O9    D    
C5    C7    S    
C4    O7    A    
O5    Zn1   S    
N1    Zn2   S    
C18   H18   S    
C6    C8    S    
C3    C12   S    
C16   H10   S    
N5    C17   S    
C2    O3    A    
C16   H8    S    
N1    N2    T    
C8    C9    S    
C4    C11   S    
S2    O13   D    
