data_mof_unit_25185.cif
_audit_creation_date              2012-12-11T17:05:31-0500
_audit_creation_method            fapswitch 2.2
_symmetry_space_group_name_H-M    P1
_symmetry_Int_Tables_number       1
_space_group_crystal_system       triclinic
_cell_length_a                    6.952533
_cell_length_b                    14.511657
_cell_length_c                    16.045923
_cell_angle_alpha                 90.293896
_cell_angle_beta                  90.174801
_cell_angle_gamma                 89.936352
_cell_volume                      1618.88788278

loop_
_atom_site_label
_atom_site_type_symbol
_atom_type_description
_atom_site_fract_x
_atom_site_fract_y
_atom_site_fract_z
_atom_type_partial_charge
O1    O     O_R   0.494380 0.415640 0.412830 -0.534173
O2    O     O_R   0.823960 0.405540 0.586560 -0.545498
O3    O     O_R   0.994270 0.584360 0.587170 -0.543731
C1    C     C_R   0.655373 0.383345 0.615148 0.681069
O4    O     O_R   0.824090 0.404620 0.413450 -0.543844
O5    O     O_R   0.994400 0.583430 0.412820 -0.533688
C2    C     C_R   0.655232 0.382192 0.384689 0.739193
O6    O     O_R   0.494250 0.416570 0.587180 -0.540987
O7    O     O_3   0.660800 0.558670 0.500000 -0.364721
V1    V     V_3+5 0.935650 0.489120 0.500000 1.406529
O8    O     O_R   0.324110 0.594460 0.413440 -0.528433
C3    C     C_R   0.154764 0.614597 0.383057 0.714951
O9    O     O_R   0.323980 0.595380 0.586550 -0.545237
C4    C     C_R   0.155297 0.617569 0.615477 0.666432
V2    V     V_3+5 0.435660 0.510880 0.500000 1.428176
O10   O     O_3   0.160640 0.441330 0.500000 -0.375182
C5    C     C_3   0.044260 0.645666 0.763255 -0.329257
H1    H     H_    0.895644 0.623619 0.746689 0.136407
H2    H     H_    0.123781 0.583128 0.783760 0.121892
C6    C     C_3   0.035103 0.716264 0.836253 -0.326085
H3    H     H_    0.117150 0.688856 0.890403 0.123678
H4    H     H_    0.883880 0.724420 0.857304 0.142921
H5    H     H_    0.880066 0.751512 0.638281 0.147331
C7    C     C_3   0.026454 0.773433 0.658401 -0.361638
C8    C     C_3   0.347546 0.721242 0.712951 -0.335968
C9    C     C_3   0.144317 0.687869 0.685844 0.099936
H6    H     H_    0.422854 0.752994 0.659132 0.156161
H7    H     H_    0.435832 0.661550 0.733777 0.139721
C10   C     C_3   0.121103 0.810523 0.809955 0.112477
C11   C     C_3   0.014836 0.846343 0.730229 0.081143
C12   C     C_3   0.333973 0.792427 0.784641 -0.385330
H8    H     H_    0.417540 0.766770 0.839112 0.156231
H9    H     H_    0.401301 0.858146 0.764483 0.151954
H10   H     H_    0.094996 0.805237 0.603203 0.156238
H11   H     H_    0.090002 0.909932 0.709301 0.110433
C13   C     C_R   0.294150 0.791928 0.220582 0.096417
C14   C     C_R   0.123884 0.807616 0.176194 -0.112720
C15   C     C_R   0.969017 0.747617 0.191694 -0.235077
H12   H     H_    0.839352 0.752695 0.154260 0.135659
C16   C     C_R   0.978280 0.681599 0.256190 -0.050795
C17   C     C_R   0.143182 0.676692 0.309403 -0.162153
C18   C     C_R   0.302088 0.730156 0.286108 0.098060
C19   C     C_3   0.440207 0.789366 0.334182 -0.202951
C20   C     C_3   0.431366 0.857089 0.261619 -0.452437
H13   H     H_    0.583526 0.756956 0.342857 0.140580
H14   H     H_    0.569274 0.861661 0.227018 0.170518
H15   H     H_    0.363746 0.924865 0.276166 0.166952
C21   C     C_R   0.491734 0.251408 0.687396 0.106767
C22   C     C_R   0.647463 0.312122 0.680908 -0.108714
C23   C     C_R   0.799711 0.301149 0.738086 -0.179484
H16   H     H_    0.922586 0.346514 0.735622 0.127393
C24   C     C_R   0.788192 0.236205 0.802910 -0.178290
H17   H     H_    0.903562 0.232755 0.848114 0.127447
C25   C     C_R   0.623514 0.180797 0.812767 -0.109737
C26   C     C_R   0.479938 0.187432 0.751726 0.103352
C27   C     C_3   0.269467 0.202813 0.761768 -0.416659
C28   C     C_3   0.282215 0.272183 0.691399 -0.395852
H18   H     H_    0.234743 0.234802 0.822974 0.168856
H19   H     H_    0.184063 0.140592 0.745240 0.175441
H20   H     H_    0.254116 0.344330 0.711616 0.162597
H21   H     H_    0.204778 0.249931 0.634035 0.176472
C29   C     C_R   0.491971 0.250525 0.309729 0.095838
C30   C     C_R   0.647274 0.311402 0.317679 -0.110517
C31   C     C_R   0.799127 0.301320 0.260389 -0.157502
H22   H     H_    0.921641 0.346893 0.263830 0.132812
C32   C     C_R   0.787749 0.237056 0.194288 -0.180534
H23   H     H_    0.902824 0.234306 0.149189 0.127742
C33   C     C_R   0.623548 0.181417 0.183135 -0.108104
C34   C     C_R   0.480330 0.187230 0.244151 0.105433
C35   C     C_3   0.269693 0.202394 0.234093 -0.413073
C36   C     C_3   0.282322 0.270999 0.305755 -0.395667
H24   H     H_    0.184862 0.139849 0.249342 0.173115
H25   H     H_    0.234387 0.234989 0.173419 0.170749
H26   H     H_    0.205349 0.247989 0.362575 0.173855
H27   H     H_    0.253662 0.343317 0.286814 0.171974
O11   O     O_R   0.771490 0.080820 0.910070 -0.534381
O12   O     O_R   0.441590 0.092730 0.083780 -0.540911
O13   O     O_R   0.271350 0.913900 0.084390 -0.536060
C37   C     C_R   0.610685 0.115037 0.112647 0.690708
O14   O     O_R   0.441780 0.091820 0.910670 -0.542378
O15   O     O_R   0.271540 0.912980 0.910040 -0.546851
C38   C     C_R   0.610658 0.114094 0.882160 0.709063
O16   O     O_R   0.771300 0.081740 0.084420 -0.541378
O17   O     O_3   0.604960 0.938700 0.997240 -0.367152
V3    V     V_3+5 0.330090 0.008230 0.997220 1.396002
O18   O     O_R   0.941820 0.901930 0.910640 -0.519647
C39   C     C_R   0.110610 0.880149 0.881274 0.687456
O19   O     O_R   0.941630 0.902840 0.083750 -0.545673
C40   C     C_R   0.111061 0.880248 0.111926 0.701797
V4    V     V_3+5 0.830090 0.986410 0.997190 1.417107
O20   O     O_3   0.105080 0.055990 0.997200 -0.373748
C41   C     C_1   0.816049 0.620395 0.265005 0.293070
N1    N     N_1   0.685688 0.571485 0.271627 -0.374459
C42   C     C_1   0.358537 0.827601 0.411458 0.332536
N2    N     N_1   0.294864 0.858085 0.472144 -0.408836
N3    N     N_3   0.814682 0.871491 0.747828 -0.670084
H28   H     H_    0.734241 0.811734 0.757095 0.233954
H29   H     H_    0.757461 0.904172 0.695338 0.222997

loop_
_geom_bond_atom_site_label_1
_geom_bond_atom_site_label_2
_ccdc_geom_bond_type
C8    C12   S    
C21   C26   A    
C32   C33   A    
C26   C27   S    
C17   C18   A    
C13   C18   A    
C1    O6    A    
C5    C6    S    
V3    O20   S    
C21   C28   S    
C8    H7    S    
C3    C17   S    
C11   H11   S    
C5    C9    S    
C13   C14   A    
C15   C16   A    
C14   C15   A    
C7    C9    S    
O5    C3    A    
C15   H12   S    
V2    O10   S    
C19   C42   S    
C27   C28   S    
C11   N3    S    
O8    V2    S    
C24   C25   A    
C33   C34   A    
C37   O16   A    
N3    H29   S    
C23   C24   A    
H5    C7    S    
C12   H9    S    
C35   C36   S    
O1    V2    S    
C10   C11   S    
O7    V1    S    
C20   H15   S    
C33   C37   S    
C32   H23   S    
O12   V3    S    
O9    C4    A    
C42   N2    T    
O17   V4    S    
C35   H25   S    
C20   H14   S    
C23   H16   S    
C6    C10   S    
O12   C37   A    
O13   C40   A    
O17   V3    S    
O14   C38   A    
O18   V4    S    
O11   C38   A    
O4    C2    A    
O18   C39   A    
C28   H20   S    
C8    C9    S    
C4    C9    S    
C29   C34   A    
C31   C32   A    
O2    C1    A    
C19   C20   S    
O14   V3    S    
C12   H8    S    
N3    H28   S    
C6    H3    S    
C29   C30   A    
C5    H1    S    
C16   C41   S    
C19   H13   S    
C2    C30   S    
O15   C39   A    
O3    C4    A    
O13   V3    S    
C21   C22   A    
O19   V4    S    
O6    V2    S    
O9    V2    S    
C13   C20   S    
C18   C19   S    
O2    V1    S    
C25   C38   S    
C24   H17   S    
O16   V4    S    
C25   C26   A    
C16   C17   A    
O1    C2    A    
C6    H4    S    
O5    V1    S    
C36   H26   S    
O8    C3    A    
C28   H21   S    
C8    H6    S    
C27   H19   S    
C14   C40   S    
C1    C22   S    
C31   H22   S    
O7    V2    S    
O4    V1    S    
C10   C12   S    
O3    V1    S    
V1    O10   S    
C36   H27   S    
V4    O20   S    
C41   N1    T    
C5    H2    S    
C27   H18   S    
C29   C36   S    
C34   C35   S    
C7    C11   S    
C10   C39   S    
C30   C31   A    
O19   C40   A    
C22   C23   A    
C7    H10   S    
C35   H24   S    
O15   V3    S    
O11   V4    S    
