data_mof_unit_24101.cif
_audit_creation_date              2013-03-05T15:42:22-0500
_audit_creation_method            fapswitch 2.2
_symmetry_space_group_name_H-M    P1
_symmetry_Int_Tables_number       1
_space_group_crystal_system       triclinic
_cell_length_a                    8.349937
_cell_length_b                    15.111434
_cell_length_c                    17.424371
_cell_angle_alpha                 99.103188
_cell_angle_beta                  96.869795
_cell_angle_gamma                 99.789233
_cell_volume                      2114.90780352

loop_
_atom_site_label
_atom_site_type_symbol
_atom_site_description
_atom_site_fract_x
_atom_site_fract_y
_atom_site_fract_z
_atom_type_partial_charge
P1    P     P_3+3 0.993190 0.413330 0.319190 0.572336
O1    O     O_2   0.823140 0.439340 0.307240 -0.328371
O2    O     O_3   0.097070 0.445850 0.405300 -0.418602
O3    O     O_3   0.627590 0.606740 0.357340 -0.383452
O4    O     O_2   0.645220 0.520722 0.214870 -0.331814
O5    O     O_3   0.942391 0.293988 0.296896 -0.477662
O6    O     O_3   0.676120 0.701410 0.235239 -0.533493
H1    H     H_    0.716259 0.775433 0.349224 0.147218
C1    C     C_3   0.702916 0.864931 0.265562 -1.022406
H2    H     H_    0.838640 0.882763 0.272613 0.292087
H3    H     H_    0.652362 0.862662 0.203320 0.264838
P2    P     P_3+3 0.695930 0.711340 0.564320 0.431223
P3    P     P_3+3 0.119961 0.774093 0.405762 0.433661
O7    O     O_2   0.865800 0.723280 0.540790 -0.384663
O8    O     O_3   0.060870 0.655550 0.397490 -0.403824
O9    O     O_2   0.009622 0.819966 0.458401 -0.376821
O10   O     O_3   0.732491 0.727005 0.667486 -0.565799
O11   O     O_3   0.065285 0.804522 0.314787 -0.541544
C2    C     C_3   0.094592 0.738043 0.254947 0.320570
H4    H     H_    0.017857 0.670364 0.255395 0.118920
H5    H     H_    0.226300 0.733629 0.262697 0.022342
C3    C     C_3   0.047450 0.763490 0.174698 -0.408446
H6    H     H_    0.045262 0.704461 0.127236 0.168395
H7    H     H_    0.921082 0.777717 0.169990 0.229675
C4    C     C_3   0.287051 0.742546 0.639310 0.458304
H8    H     H_    0.406994 0.725408 0.629188 0.105159
H9    H     H_    0.194621 0.716681 0.585512 0.110187
C5    C     C_3   0.305528 0.845973 0.658589 -1.066543
H10   H     H_    0.376520 0.872844 0.718112 0.279169
H11   H     H_    0.370206 0.878360 0.615396 0.238095
H12   H     H_    0.183177 0.865187 0.656869 0.249418
Ba1   Ba    Ba6+2 0.844730 0.540500 0.462170 1.610955
C6    C     C_3   0.915371 0.259210 0.364937 0.453004
H13   H     H_    0.808942 0.282582 0.387013 0.074707
H14   H     H_    0.024398 0.282272 0.411360 0.079934
C7    C     C_3   0.884747 0.154902 0.346512 -0.489092
H15   H     H_    0.865739 0.127700 0.400799 0.134683
H16   H     H_    0.995488 0.133055 0.328174 0.210817
C8    C     C_3   0.838075 0.810789 0.701807 0.669488
H17   H     H_    0.901510 0.844590 0.658709 0.017875
C9    C     C_3   0.737652 0.876335 0.739962 -1.078874
H18   H     H_    0.662941 0.901236 0.694042 0.233307
H19   H     H_    0.819915 0.936171 0.778543 0.270865
H20   H     H_    0.653939 0.841166 0.775383 0.294162
P4    P     P_3+3 0.196530 0.586750 0.680820 0.542663
O12   O     O_2   0.366580 0.560690 0.692810 -0.305784
O13   O     O_3   0.092650 0.554230 0.594710 -0.428229
O14   O     O_3   0.562120 0.393340 0.642670 -0.404827
O15   O     O_3   0.238468 0.706206 0.703664 -0.533383
P5    P     P_3+3 0.087709 0.226697 0.599833 0.476170
O16   O     O_3   0.597340 0.388800 0.458640 -0.363646
O17   O     O_3   0.128850 0.344520 0.602520 -0.353301
O18   O     O_2   0.207176 0.183884 0.551036 -0.386791
O19   O     O_3   0.152403 0.212288 0.695393 -0.505113
Ba2   Ba    Ba6+2 0.345110 0.459580 0.537840 1.614779
P6    P     P_3+3 0.573477 0.599692 0.257361 0.496488
C10   C     C_3   0.647011 0.773895 0.290264 0.490819
H21   H     H_    0.514027 0.767699 0.294865 -0.002317
H22   H     H_    0.659018 0.919077 0.303492 0.225987
O20   O     O_3   0.592380 0.611270 0.541370 -0.409075
C11   C     C_3   0.371672 0.184137 0.288223 1.121054
C12   C     C_3   0.296764 0.100890 0.322334 -1.236800
H23   H     H_    0.247146 0.121625 0.376895 0.257570
H24   H     H_    0.193166 0.056920 0.279922 0.277249
H25   H     H_    0.390168 0.058861 0.334409 0.244539
P7    P     P_3+3 0.503101 0.272486 0.438802 0.482666
O21   O     O_2   0.323920 0.276750 0.459260 -0.360643
O22   O     O_3   0.512129 0.239249 0.337478 -0.607662
C13   C     C_3   0.024268 0.216602 0.740680 0.273357
H26   H     H_    0.076607 0.263006 0.797304 0.117901
H27   H     H_    0.922986 0.247577 0.715243 -0.031368
C14   C     C_3   0.956127 0.120605 0.754897 -0.197020
H28   H     H_    0.821967 0.102817 0.734170 0.079882
H29   H     H_    0.012034 0.068807 0.720105 0.140365
P8    P     P_3+3 0.608115 0.402406 0.745642 0.530584
C15   C     C_3   0.568585 0.234744 0.766950 0.295897
H30   H     H_    0.700624 0.253465 0.792995 0.078710
O23   O     O_2   0.527751 0.481689 0.779512 -0.283901
O24   O     O_3   0.491857 0.310589 0.776290 -0.457424
H31   H     H_    0.556160 0.204746 0.703442 0.060998
C16   C     C_3   0.482417 0.164918 0.810678 -0.327944
H32   H     H_    0.349889 0.144990 0.785810 0.217641
H33   H     H_    0.493097 0.197952 0.873400 0.234519
C17   C     C_2   0.259383 0.512261 0.276746 -0.230564
C18   C     C_3   0.345312 0.584119 0.236617 0.061150
C19   C     C_2   0.281099 0.571539 0.150735 -0.250270
C20   C     C_2   0.136900 0.515232 0.120085 0.052401
C21   C     C_2   0.042835 0.463887 0.173461 -0.201608
C22   C     C_1   0.107116 0.468283 0.248287 0.286425
C23   C     C_R   0.897624 0.449754 0.863227 0.199128
C24   C     C_R   0.833514 0.442113 0.783995 -0.004683
C25   C     C_R   0.090877 0.532313 0.758904 0.175342
C26   C     C_R   0.151370 0.547703 0.841405 0.188123
C27   C     C_R   0.059807 0.499170 0.891985 -0.225499
C28   C     C_2   0.063727 0.514816 0.037514 -0.163200
C29   C     C_2   0.139274 0.495713 0.973254 0.275696
C30   C     C_R   0.936665 0.476459 0.733081 -0.238618
H34   H     H_    0.922902 0.421657 0.150097 0.190778
H35   H     H_    0.943473 0.533130 0.029913 0.168151
H36   H     H_    0.343681 0.616231 0.116044 0.163721
H37   H     H_    0.318161 0.505788 0.334051 0.172745
C31   C     C_R   0.775639 0.234930 0.528690 -0.498741
C32   C     C_R   0.871354 0.177359 0.558083 0.224991
C33   C     C_R   0.804798 0.084187 0.551112 -0.315200
C34   C     C_R   0.637486 0.048508 0.518104 0.105567
C35   C     C_R   0.541212 0.111849 0.496540 -0.295746
C36   C     C_R   0.611494 0.202908 0.497406 0.297158
C37   C     C_R   0.404681 0.910838 0.460262 -0.291433
C38   C     C_R   0.337149 0.817442 0.448402 0.255861
C39   C     C_R   0.586840 0.790063 0.517740 0.296414
C40   C     C_R   0.654303 0.883679 0.530552 -0.306598
C41   C     C_R   0.565074 0.946861 0.502709 0.087738
C42   C     C_R   0.430447 0.757121 0.474730 -0.503157
H38   H     H_    0.327568 0.953167 0.436392 0.155202
H39   H     H_    0.887297 0.041624 0.569899 0.137741
H40   H     H_    0.774987 0.905724 0.564058 0.130031
H41   H     H_    0.412023 0.091527 0.476396 0.157901
H42   H     H_    0.377065 0.685145 0.466054 0.163531
H43   H     H_    0.832772 0.303046 0.524114 0.130115
N1    N     N_2   0.743150 0.117328 0.286520 -0.064124
H44   H     H_    0.654218 0.073045 0.304989 0.174631
C43   C     C_3   0.777766 0.083282 0.208942 -0.510171
H45   H     H_    0.864591 0.035336 0.212029 0.195261
H46   H     H_    0.829240 0.141078 0.181601 0.298155
H47   H     H_    0.662683 0.045780 0.170760 0.226145
N2    N     N_2   0.965420 0.795114 0.760014 -0.111705
H48   H     H_    0.055826 0.851997 0.782616 0.175668
C44   C     C_3   0.914571 0.743209 0.819088 -0.709135
H49   H     H_    0.024938 0.729709 0.854086 0.241156
H50   H     H_    0.835670 0.676354 0.791386 0.239776
H51   H     H_    0.847681 0.782313 0.859532 0.252294
N3    N     N_R   0.250505 0.239976 0.272045 0.206699
O25   O     O_R   0.133404 0.209299 0.212696 -0.396380
O26   O     O_R   0.289037 0.327334 0.298208 -0.409810
N4    N     N_R   0.424544 0.152183 0.212848 0.223254
O27   O     O_R   0.511772 0.210977 0.179742 -0.342012
O28   O     O_R   0.360533 0.071610 0.171491 -0.427308
N5    N     N_2   0.158992 0.843637 0.163597 -0.074633
H52   H     H_    0.182825 0.897790 0.210158 0.239245
C45   C     C_3   0.301243 0.826425 0.128176 -0.726004
H53   H     H_    0.379780 0.892115 0.124197 0.264315
H54   H     H_    0.261606 0.786145 0.067876 0.281778
H55   H     H_    0.373972 0.788270 0.163756 0.214335
N6    N     N_R   0.988143 0.115488 0.838157 0.259638
O29   O     O_R   0.085321 0.063279 0.861888 -0.402326
O30   O     O_R   0.914802 0.160355 0.888705 -0.332512
N7    N     N_2   0.555135 0.084194 0.805091 -0.104426
H56   H     H_    0.543839 0.049294 0.748201 0.170605
C46   C     C_3   0.507472 0.024857 0.859335 -0.659739
H57   H     H_    0.579241 0.969457 0.856055 0.235603
H58   H     H_    0.374480 0.994017 0.844225 0.242327
H59   H     H_    0.533601 0.063464 0.920709 0.273712
N8    N     N_2   0.291900 0.464893 0.979540 -0.100647
H60   H     H_    0.384591 0.504802 0.021175 0.207047
C47   C     C_3   0.276405 0.368440 0.981112 -0.599002
H61   H     H_    0.229856 0.352581 0.035512 0.249883
H62   H     H_    0.398279 0.348697 0.979928 0.264885
H63   H     H_    0.191200 0.327627 0.928974 0.239574
N9    N     N_R   0.799328 0.406094 0.913721 0.231438
O31   O     O_R   0.668353 0.435374 0.931593 -0.377017
O32   O     O_R   0.845408 0.340466 0.945529 -0.379442
N10   N     N_R   0.292957 0.617676 0.876460 0.254484
O33   O     O_R   0.417332 0.636877 0.839839 -0.317823
O34   O     O_R   0.294189 0.666737 0.945052 -0.447500
N11   N     N_2   0.876070 0.463782 0.653671 -0.103363
H64   H     H_    0.829558 0.397159 0.628190 0.159509
C48   C     C_3   0.784186 0.531884 0.635337 -0.436086
H65   H     H_    0.708090 0.502139 0.578817 0.273107
H66   H     H_    0.865508 0.596535 0.633880 0.224489
H67   H     H_    0.704253 0.550146 0.679316 0.216954

loop_
_geom_bond_atom_site_label_1
_geom_bond_atom_site_label_2
_geom_bond_distance
_ccdc_geom_bond_type
O14   Ba2   2.832908 S    
P7    O22   1.771735 S    
C20   C21   1.509893 S    
N2    H48   1.031960 S    
C47   H62   1.109659 S    
C28   C29   1.365135 D    
C9    H18   1.107537 S    
O4    P6    1.549425 D    
N7    H56   1.031977 S    
C45   H55   1.108006 S    
P7    C36   1.846508 S    
C44   H49   1.109795 S    
P2    C39   1.844125 S    
C16   H32   1.110713 S    
C10   H21   1.111986 S    
N4    O27   1.302026 A    
C8    C9    1.527615 S    
P4    O12   1.536254 D    
C4    C5    1.522788 S    
N11   H64   1.022686 S    
P3    O11   1.749732 S    
C7    H15   1.107109 S    
C2    H5    1.106534 S    
C45   H54   1.109012 S    
O11   C2    1.403360 S    
C46   H58   1.111266 S    
C28   H35   1.084736 S    
C35   C36   1.398150 A    
C6    C7    1.528460 S    
C37   C38   1.400640 A    
O1    Ba1   2.853247 S    
P1    O1    1.535879 D    
O10   C8    1.411591 S    
C37   H38   1.075594 S    
C23   N9    1.433639 S    
C13   H27   1.114150 S    
P4    C25   1.923703 S    
C39   C40   1.402657 A    
C12   H24   1.110024 S    
C11   N3    1.453423 S    
O2    Ba2   2.867759 S    
C2    H4    1.112400 S    
Ba1   O13   2.867144 S    
N3    O25   1.301014 A    
C16   N7    1.447288 S    
C20   C28   1.492935 S    
O12   Ba2   2.853701 S    
P3    C38   1.841098 S    
N9    O32   1.300559 A    
C40   H40   1.072783 S    
N8    C47   1.446126 S    
C19   H36   1.085958 S    
C1    H2    1.106534 S    
Ba1   Ba2   4.552904 S    
O16   Ba2   2.911765 S    
C11   C12   1.544333 S    
C12   H25   1.107865 S    
O17   Ba2   2.755596 S    
C38   C42   1.391592 A    
P7    O21   1.588334 D    
P5    C32   1.845183 S    
N11   C48   1.436538 S    
C8    N2    1.455703 S    
N4    O28   1.302446 A    
Ba2   O20   2.799425 S    
O3    P6    1.728270 S    
C47   H63   1.109383 S    
C17   H37   1.085108 S    
C9    H19   1.107853 S    
O14   P8    1.767753 S    
C13   H26   1.109003 S    
O6    P6    1.750537 S    
C33   C34   1.423640 A    
C16   H33   1.113769 S    
N1    C43   1.448939 S    
C25   C30   1.394472 A    
C23   C27   1.420572 A    
C48   H67   1.107663 S    
N10   O34   1.300880 A    
C15   H30   1.111373 S    
P4    O13   1.598592 S    
C29   N8    1.427450 S    
P1    C22   1.859570 S    
C47   H61   1.111450 S    
P5    O18   1.544307 D    
C31   C32   1.391927 A    
O8    Ba1   2.754911 S    
C2    C3    1.532311 S    
C17   C18   1.509367 S    
N6    O30   1.300663 A    
C46   H59   1.111342 S    
C48   H65   1.090306 S    
C19   C20   1.346455 D    
C14   H28   1.108015 S    
C4    H8    1.103274 S    
C18   C19   1.498774 S    
P1    Ba1   3.386799 S    
C24   C30   1.405260 A    
P1    O5    1.749847 S    
C48   H66   1.096621 S    
C1    H22   1.108814 S    
O16   P7    1.760810 S    
P2    O10   1.757869 S    
C13   C14   1.535009 S    
Ba1   O16   2.800124 S    
C12   H23   1.103528 S    
H1    C10   1.111780 S    
C33   H39   1.076437 S    
P5    O17   1.747012 S    
N9    O31   1.300464 A    
P4    O15   1.750419 S    
C6    H13   1.099073 S    
C31   C36   1.386402 A    
C26   C27   1.440199 A    
P5    O19   1.746787 S    
C45   H53   1.109744 S    
C27   C29   1.502889 S    
C1    H3    1.108759 S    
C39   C42   1.393381 A    
O3    Ba1   2.833584 S    
N5    C45   1.445352 S    
C14   H29   1.113516 S    
C34   C41   1.520503 S    
P2    O7    1.512622 D    
P3    O8    1.753262 S    
C35   H41   1.069487 S    
C9    H20   1.110247 S    
C3    H7    1.108302 S    
C17   C22   1.327261 D    
Ba1   O20   2.912547 S    
C43   H46   1.107911 S    
C44   H51   1.110117 S    
C8    H17   1.109018 S    
N1    H44   1.029132 S    
C11   N4    1.470881 S    
O13   Ba2   2.923694 S    
N10   O33   1.297893 A    
C14   N6    1.460096 S    
C5    H10   1.108939 S    
N2    C44   1.449739 S    
C40   C41   1.415655 A    
N7    C46   1.446553 S    
C5    H12   1.106887 S    
C15   H31   1.112926 S    
O7    Ba1   2.848934 S    
N6    O29   1.300963 A    
C44   H50   1.109494 S    
C15   C16   1.529376 S    
Ba2   O21   2.849216 S    
P8    C24   1.880698 S    
C4    H9    1.111548 S    
C34   C35   1.416601 A    
C3    N5    1.450979 S    
O5    C6    1.397671 S    
C43   H47   1.108940 S    
C7    H16   1.098747 S    
C43   H45   1.111332 S    
C21   H34   1.085718 S    
C46   H57   1.107663 S    
C11   O22   1.416530 S    
P6    C18   1.863211 S    
O19   C13   1.407499 S    
C26   N10   1.444529 S    
C30   N11   1.386698 S    
C5    H11   1.105226 S    
C25   C26   1.433972 A    
C6    H14   1.109625 S    
C1    C10   1.520764 S    
O2    Ba1   2.922846 S    
C7    N1    1.449572 S    
P8    O23   1.542191 D    
C4    O15   1.396945 S    
N5    H52   1.031218 S    
C42   H42   1.082378 S    
P2    O20   1.573399 S    
C37   C41   1.422931 A    
C15   O24   1.402205 S    
C21   C22   1.336210 D    
P4    Ba2   3.387351 S    
N3    O26   1.297716 A    
P3    O9    1.545566 D    
C32   C33   1.403418 A    
C3    H6    1.112366 S    
P1    O2    1.598593 S    
N8    H60   1.028377 S    
P8    O24   1.747324 S    
O6    C10   1.411423 S    
P2    Ba1   3.397414 S    
C31   H43   1.077746 S    
C23   C24   1.399138 A    
