data_mof_unit_43504.cif
_audit_creation_date              2012-12-11T15:54:52-0500
_audit_creation_method            fapswitch 2.2
_symmetry_space_group_name_H-M    P1
_symmetry_Int_Tables_number       1
_space_group_crystal_system       triclinic
_cell_length_a                    17.490146
_cell_length_b                    24.337784
_cell_length_c                    14.9583
_cell_angle_alpha                 89.895952
_cell_angle_beta                  125.508581
_cell_angle_gamma                 90.067343
_cell_volume                      5183.17194928

loop_
_atom_site_label
_atom_site_type_symbol
_atom_type_description
_atom_site_fract_x
_atom_site_fract_y
_atom_site_fract_z
_atom_type_partial_charge
C1    C     C_R   0.902126 0.877497 0.093380 -0.142393
C2    C     C_R   0.150951 0.848319 0.091164 -0.171013
C3    C     C_R   0.312530 0.636489 0.999753 0.112619
C4    C     C_R   0.697041 0.000326 0.634153 0.053013
C5    C     C_R   0.197028 0.500326 0.634162 0.053019
C6    C     C_R   0.068476 0.000140 0.368995 -0.013431
C7    C     C_R   0.568484 0.500142 0.368996 -0.013432
C8    C     C_R   0.267575 0.954287 0.245020 -0.020596
C9    C     C_R   0.267483 0.046423 0.248200 -0.049959
C10   C     C_R   0.767573 0.454289 0.245001 -0.020550
C11   C     C_R   0.767479 0.546424 0.248180 -0.049970
C12   C     C_R   0.020095 0.046165 0.751944 -0.123959
C13   C     C_R   0.649423 0.651853 0.091906 -0.193763
C14   C     C_R   0.019591 0.953962 0.751308 -0.122122
C15   C     C_R   0.520092 0.546164 0.751940 -0.124114
C16   C     C_R   0.519574 0.453960 0.751287 -0.122073
C17   C     C_3   0.542955 0.123906 0.760192 -0.246997
C18   C     C_3   0.545237 0.898957 0.833125 -0.263987
C19   C     C_3   0.042955 0.623873 0.760265 -0.247017
C20   C     C_3   0.045171 0.398902 0.832935 -0.263968
C21   C     C_3   0.212454 0.825045 0.845734 -0.217985
C22   C     C_3   0.171405 0.195614 0.794876 -0.265236
C23   C     C_3   0.712496 0.325066 0.845794 -0.217943
C24   C     C_R   0.650951 0.348319 0.091163 -0.170975
C25   C     C_3   0.671598 0.695702 0.794781 -0.265832
C26   C     C_3   0.426711 0.892212 0.512405 -0.455634
C27   C     C_3   0.359531 0.026558 0.559235 -0.244555
C28   C     C_3   0.926624 0.392211 0.512250 -0.455693
C29   C     C_3   0.859526 0.526602 0.559200 -0.244492
C30   C     C_R   0.324182 0.000543 0.275785 -0.003874
C31   C     C_R   0.824179 0.500545 0.275758 -0.003922
C32   C     C_R   0.049814 0.000111 0.725194 0.008850
C33   C     C_R   0.549793 0.500108 0.725171 0.008835
C34   C     C_R   0.121056 0.817385 0.999193 0.095335
C35   C     C_R   0.120525 0.183225 0.000800 0.075097
C36   C     C_R   0.621057 0.317386 0.999190 0.095371
C37   C     C_R   0.901284 0.123158 0.092117 -0.148408
C38   C     C_R   0.620522 0.683228 0.000816 0.075027
C39   C     C_3   0.968282 0.998444 0.430001 -0.383835
C40   C     C_3   0.125019 0.949481 0.543405 -0.408379
C41   C     C_3   0.619812 0.552673 0.539412 -0.419456
C42   C     C_3   0.468278 0.498434 0.429984 -0.383832
C43   C     C_3   0.963135 0.997879 0.527936 -0.405423
C44   C     C_3   0.120889 0.949860 0.643453 -0.400291
C45   C     C_3   0.613678 0.552960 0.637780 -0.382659
C46   C     C_3   0.463124 0.497773 0.527915 -0.405490
C47   C     C_3   0.119827 0.052670 0.539423 -0.419534
C48   C     C_R   0.402122 0.377496 0.093376 -0.142396
C49   C     C_3   0.625031 0.449487 0.543410 -0.408464
C50   C     C_3   0.071840 0.000184 0.469287 0.401575
C51   C     C_3   0.571839 0.500185 0.469280 0.401578
C52   C     C_3   0.063127 0.000186 0.636777 0.389496
C53   C     C_3   0.563107 0.500182 0.636755 0.389529
C54   C     C_R   0.809791 0.123109 0.907797 -0.134695
C55   C     C_R   0.809179 0.877626 0.909211 -0.150280
C56   C     C_R   0.309791 0.623110 0.907798 -0.134726
C57   C     C_R   0.309182 0.377621 0.909206 -0.150239
C58   C     C_3   0.113862 0.052913 0.637921 -0.382486
C59   C     C_R   0.401286 0.623159 0.092119 -0.148397
C60   C     C_3   0.621017 0.449910 0.643545 -0.400147
C61   C     C_3   0.657140 0.184875 0.888178 0.600226
C62   C     C_3   0.650677 0.825874 0.911359 0.602687
C63   C     C_3   0.157129 0.684862 0.888199 0.600242
C64   C     C_3   0.150677 0.325852 0.911270 0.602767
C65   C     C_3   0.103250 0.734376 0.889748 -0.548275
C66   C     C_3   0.097071 0.275152 0.911862 -0.550011
C67   C     C_3   0.603260 0.234387 0.889729 -0.548261
C68   C     C_3   0.597069 0.775184 0.911990 -0.549980
C69   C     C_3   0.312922 0.735099 0.014628 -0.679284
C70   C     C_R   0.057363 0.848093 0.908124 -0.082647
C71   C     C_3   0.296445 0.266036 0.984230 -0.690888
C72   C     C_3   0.812935 0.235099 0.014657 -0.679261
C73   C     C_3   0.796367 0.766041 0.984102 -0.691178
C74   C     C_3   0.745288 0.177250 0.094412 -0.371307
C75   C     C_3   0.771555 0.813772 0.115476 -0.377485
C76   C     C_3   0.245316 0.677258 0.094439 -0.371310
C77   C     C_3   0.271455 0.313812 0.115415 -0.377422
C78   C     C_3   0.756916 0.181925 0.999117 0.177358
C79   C     C_3   0.757852 0.819030 0.003200 0.184998
C80   C     C_3   0.256917 0.681924 0.999123 0.177367
C81   C     C_R   0.058078 0.152396 0.908980 -0.029078
C82   C     C_3   0.257843 0.319033 0.003187 0.184817
C83   C     C_3   0.166994 0.767326 0.998190 0.143717
C84   C     C_3   0.167305 0.233492 0.001273 0.154850
C85   C     C_3   0.666995 0.267328 0.998187 0.143690
C86   C     C_3   0.667318 0.733492 0.001303 0.155038
C87   C     C_3   0.262073 0.785025 0.018757 0.581992
C88   C     C_3   0.245109 0.215560 0.986410 0.586192
C89   C     C_3   0.762089 0.285025 0.018790 0.581977
C90   C     C_3   0.745027 0.715558 0.986281 0.586207
C91   C     C_3   0.189932 0.727215 0.092321 -0.512052
C92   C     C_R   0.557362 0.348093 0.908122 -0.082713
C93   C     C_3   0.216121 0.264253 0.113281 -0.510405
C94   C     C_3   0.689906 0.227208 0.092295 -0.512039
C95   C     C_3   0.716245 0.764209 0.113365 -0.510539
C96   C     C_3   0.479134 0.955307 0.353295 -0.477876
C97   C     C_3   0.471437 0.056108 0.375830 -0.449281
C98   C     C_3   0.979138 0.455316 0.353274 -0.477907
C99   C     C_3   0.971438 0.556111 0.375814 -0.449211
C100  C     C_R   0.743934 0.954387 0.696136 -0.150307
C101  C     C_R   0.744929 0.045947 0.696192 -0.151971
C102  C     C_R   0.243926 0.454386 0.696141 -0.150284
C103  C     C_R   0.558085 0.652398 0.908987 -0.028863
C104  C     C_R   0.244922 0.545948 0.696196 -0.151992
C105  C     C_3   0.583013 0.955120 0.452996 -0.416027
C106  C     C_3   0.573956 0.056596 0.475465 -0.418241
C107  C     C_3   0.083014 0.455127 0.452988 -0.416025
C108  C     C_3   0.073947 0.556601 0.475477 -0.418209
C109  C     C_3   0.431335 0.990240 0.478088 1.165165
C110  C     C_3   0.931321 0.490250 0.478064 1.165170
C111  C     C_3   0.424511 0.000090 0.368825 0.184359
C112  C     C_3   0.924506 0.500093 0.368802 0.184334
C113  C     C_3   0.599981 0.000470 0.535641 0.325025
C114  C     C_R   0.149436 0.151851 0.091898 -0.193662
C115  C     C_3   0.099971 0.500470 0.535640 0.324975
C116  C     C_3   0.537260 0.990406 0.576170 -0.632890
C117  C     C_3   0.037241 0.490393 0.576151 -0.632853
C118  C     C_R   0.050746 0.045778 0.305106 -0.136660
C119  C     C_R   0.051067 0.954395 0.305600 -0.130809
C120  C     C_R   0.550750 0.545779 0.305104 -0.136653
C121  C     C_R   0.551072 0.454396 0.305603 -0.130829
C122  C     C_R   0.813037 0.864448 0.002356 0.114850
C123  C     C_R   0.812529 0.136490 0.999750 0.112610
C124  C     C_R   0.313031 0.364449 0.002347 0.114809
H1    H     H_    0.931470 0.870865 0.178809 0.088333
H2    H     H_    0.088536 0.910655 0.643657 0.137201
H3    H     H_    0.787343 0.589084 0.263252 0.091134
H4    H     H_    0.025571 0.088710 0.736583 0.094476
H5    H     H_    0.023309 0.911575 0.733662 0.079860
H6    H     H_    0.525602 0.588712 0.736615 0.094703
H7    H     H_    0.523275 0.411574 0.733619 0.079818
H8    H     H_    0.012946 0.834998 0.823535 0.065776
H9    H     H_    0.016239 0.165907 0.824449 0.067988
H10   H     H_    0.512944 0.334999 0.823533 0.065799
H11   H     H_    0.516304 0.665901 0.824449 0.068312
H12   H     H_    0.190107 0.164637 0.176705 0.096706
H13   H     H_    0.574255 0.590306 0.630701 0.138439
H14   H     H_    0.194799 0.835267 0.175924 0.082445
H15   H     H_    0.690080 0.664640 0.176712 0.096764
H16   H     H_    0.694801 0.335266 0.175923 0.082416
H17   H     H_    0.929417 0.034883 0.377695 0.154946
H18   H     H_    0.199438 0.949894 0.571260 0.153410
H19   H     H_    0.694558 0.554287 0.568899 0.147661
H20   H     H_    0.432517 0.461169 0.379059 0.154464
H21   H     H_    0.579314 0.115717 0.720493 0.131504
H22   H     H_    0.491298 0.157844 0.717130 0.130377
H23   H     H_    0.503834 0.086288 0.752323 0.173467
H24   H     H_    0.420364 0.533403 0.521779 0.152544
H25   H     H_    0.487132 0.869406 0.780933 0.123450
H26   H     H_    0.572840 0.916106 0.788203 0.135322
H27   H     H_    0.516062 0.933573 0.852635 0.180788
H28   H     H_    0.079313 0.615663 0.720572 0.131551
H29   H     H_    0.991298 0.657808 0.717177 0.130362
H30   H     H_    0.003835 0.586260 0.752428 0.173443
H31   H     H_    0.987097 0.369332 0.780750 0.123442
H32   H     H_    0.072787 0.416053 0.788028 0.135330
H33   H     H_    0.015950 0.433513 0.852393 0.180763
H34   H     H_    0.141479 0.843168 0.801849 0.132489
H35   H     H_    0.920530 0.033591 0.521829 0.152530
H36   H     H_    0.206508 0.782276 0.817893 0.101279
H37   H     H_    0.251034 0.848255 0.819683 0.158984
H38   H     H_    0.149347 0.239001 0.782643 0.110247
H39   H     H_    0.107445 0.170887 0.739347 0.140319
H40   H     H_    0.218664 0.190340 0.768633 0.159610
H41   H     H_    0.641515 0.343180 0.801919 0.132474
H42   H     H_    0.706566 0.282302 0.817936 0.101275
H43   H     H_    0.751065 0.348294 0.819750 0.159000
H44   H     H_    0.648907 0.738970 0.782416 0.110487
H45   H     H_    0.608067 0.670738 0.738819 0.140804
H46   H     H_    0.193205 0.951451 0.720656 0.163205
H47   H     H_    0.719436 0.690850 0.769257 0.159479
H48   H     H_    0.484105 0.885299 0.503221 0.156898
H49   H     H_    0.376207 0.857940 0.469436 0.190452
H50   H     H_    0.453081 0.889808 0.599788 0.168541
H51   H     H_    0.413108 0.003637 0.634962 0.129878
H52   H     H_    0.291904 0.003782 0.513099 0.190156
H53   H     H_    0.346896 0.066419 0.584321 0.137936
H54   H     H_    0.984020 0.385315 0.503065 0.156873
H55   H     H_    0.876088 0.357963 0.469186 0.190437
H56   H     H_    0.952995 0.389746 0.599626 0.168591
H57   H     H_    0.685238 0.555768 0.715943 0.172425
H58   H     H_    0.913078 0.503670 0.634925 0.129882
H59   H     H_    0.791880 0.503844 0.513050 0.190143
H60   H     H_    0.846916 0.566471 0.584290 0.137916
H61   H     H_    0.426082 0.459767 0.524772 0.154243
H62   H     H_    0.084754 0.090469 0.490673 0.145197
H63   H     H_    0.194535 0.054321 0.568777 0.147607
H64   H     H_    0.699424 0.449870 0.571172 0.153396
H65   H     H_    0.929818 0.131342 0.176959 0.089693
H66   H     H_    0.592685 0.410592 0.497816 0.145747
H67   H     H_    0.074675 0.090320 0.631130 0.138496
H68   H     H_    0.185484 0.055589 0.716018 0.172382
H69   H     H_    0.693361 0.451616 0.720688 0.163246
H70   H     H_    0.588850 0.410674 0.643968 0.137129
H71   H     H_    0.665302 0.192477 0.820626 -0.047692
H72   H     H_    0.640050 0.827303 0.830288 -0.050424
H73   H     H_    0.165268 0.692454 0.820627 -0.047699
H74   H     H_    0.140101 0.327280 0.830228 -0.050478
H75   H     H_    0.539335 0.220304 0.882639 0.198407
H76   H     H_    0.431464 0.370857 0.178803 0.088333
H77   H     H_    0.546012 0.788239 0.929510 0.202301
H78   H     H_    0.039334 0.720294 0.882679 0.198380
H79   H     H_    0.045924 0.288198 0.929249 0.202280
H80   H     H_    0.077247 0.759454 0.815531 0.115543
H81   H     H_    0.053925 0.256546 0.828966 0.119697
H82   H     H_    0.577272 0.259471 0.815523 0.115533
H83   H     H_    0.553825 0.756601 0.829078 0.119723
H84   H     H_    0.325340 0.738746 0.950058 0.189034
H85   H     H_    0.292381 0.268927 0.907612 0.186400
H86   H     H_    0.825368 0.238752 0.950099 0.189035
H87   H     H_    0.429821 0.631341 0.176961 0.089691
H88   H     H_    0.792220 0.768980 0.907441 0.186232
H89   H     H_    0.754261 0.130159 0.822618 0.088495
H90   H     H_    0.752643 0.869504 0.824683 0.083434
H91   H     H_    0.254261 0.630161 0.822621 0.088480
H92   H     H_    0.252654 0.369497 0.824677 0.083441
H93   H     H_    0.814849 0.176187 0.175286 0.142733
H94   H     H_    0.846606 0.806933 0.183420 0.143400
H95   H     H_    0.314885 0.676204 0.175304 0.142731
H96   H     H_    0.346493 0.306988 0.183418 0.143361
H97   H     H_    0.708106 0.138564 0.087024 0.205276
H98   H     H_    0.932552 0.961144 0.379188 0.154493
H99   H     H_    0.748680 0.851923 0.134503 0.204724
H100  H     H_    0.208147 0.638570 0.087079 0.205272
H101  H     H_    0.248538 0.351972 0.134363 0.204752
H102  H     H_    0.623983 0.213133 0.080366 0.198902
H103  H     H_    0.663295 0.777979 0.127323 0.199786
H104  H     H_    0.124019 0.713138 0.080417 0.198882
H105  H     H_    0.163102 0.278036 0.127115 0.199820
H106  H     H_    0.233054 0.747526 0.173865 0.152637
H107  H     H_    0.266814 0.237177 0.183137 0.153439
H108  H     H_    0.733019 0.247513 0.173847 0.152630
H109  H     H_    0.092737 0.910586 0.497782 0.145686
H110  H     H_    0.766967 0.737105 0.183149 0.153474
H111  H     H_    0.384460 0.733050 0.093306 0.172421
H112  H     H_    0.372900 0.261816 0.050821 0.176022
H113  H     H_    0.884467 0.233043 0.093342 0.172415
H114  H     H_    0.872835 0.761796 0.050623 0.176075
H115  H     H_    0.307019 0.798658 0.106134 0.049306
H116  H     H_    0.298611 0.193591 0.063872 0.052779
H117  H     H_    0.807023 0.298647 0.106173 0.049298
H118  H     H_    0.798561 0.693556 0.063680 0.052780
H119  H     H_    0.448319 0.913881 0.341648 0.167944
H120  H     H_    0.584828 0.590478 0.490639 0.145144
H121  H     H_    0.436500 0.091402 0.385085 0.183989
H122  H     H_    0.948319 0.413888 0.341594 0.167902
H123  H     H_    0.936491 0.591410 0.385038 0.183993
H124  H     H_    0.474869 0.964042 0.277434 0.192596
H125  H     H_    0.467220 0.063283 0.299547 0.176041
H126  H     H_    0.974887 0.464060 0.277426 0.192601
H127  H     H_    0.967249 0.563279 0.299547 0.176005
H128  H     H_    0.628718 0.962640 0.424904 0.170361
H129  H     H_    0.620492 0.065521 0.449032 0.162534
H130  H     H_    0.128728 0.462652 0.424911 0.170367
H131  H     H_    0.429444 0.534908 0.377787 0.154977
H132  H     H_    0.120502 0.565538 0.449077 0.162508
H133  H     H_    0.729347 0.911985 0.670109 0.080680
H134  H     H_    0.733315 0.088362 0.670101 0.079503
H135  H     H_    0.229339 0.411986 0.670111 0.080681
H136  H     H_    0.233305 0.588362 0.670103 0.079511
H137  H     H_    0.601457 0.913844 0.491696 0.146011
H138  H     H_    0.582476 0.090415 0.530531 0.156581
H139  H     H_    0.101456 0.413848 0.491681 0.146016
H140  H     H_    0.082443 0.590412 0.530547 0.156608
H141  H     H_    0.560645 0.953146 0.628017 0.149594
H142  H     H_    0.925929 0.959947 0.524771 0.154226
H143  H     H_    0.550608 0.023999 0.634043 0.175615
H144  H     H_    0.060602 0.453115 0.627946 0.149589
H145  H     H_    0.050602 0.523967 0.634063 0.175603
H146  H     H_    0.063936 0.088266 0.330444 0.083792
H147  H     H_    0.064508 0.911997 0.331841 0.084062
H148  H     H_    0.563940 0.588268 0.330432 0.083778
H149  H     H_    0.564510 0.411998 0.331849 0.084081
H150  H     H_    0.289464 0.911865 0.259854 0.106489
H151  H     H_    0.287349 0.089083 0.263279 0.091123
H152  H     H_    0.789464 0.411867 0.259832 0.106448
N1    N     N_R   0.950530 0.896220 0.057200 -0.042505
N2    N     N_R   0.818150 0.028600 0.792440 -0.031665
N3    N     N_R   0.318150 0.471400 0.792440 -0.031251
N4    N     N_R   0.318150 0.528600 0.792440 -0.031664
N5    N     N_R   0.025710 0.028600 0.207560 -0.032085
N6    N     N_R   0.025710 0.971400 0.207560 -0.033136
N7    N     N_R   0.525710 0.528600 0.207560 -0.032086
N8    N     N_R   0.525710 0.471400 0.207560 -0.033137
N9    N     N_R   0.181850 0.971400 0.207560 -0.045761
N10   N     N_R   0.181850 0.028600 0.207560 -0.045511
N11   N     N_R   0.681850 0.471400 0.207560 -0.045751
N12   N     N_R   0.950530 0.103780 0.057200 -0.040901
N13   N     N_R   0.681850 0.528600 0.207560 -0.045509
N14   N     N_R   0.974290 0.028600 0.792440 -0.043625
N15   N     N_R   0.974290 0.971400 0.792440 -0.040870
N16   N     N_R   0.474290 0.528600 0.792440 -0.043623
N17   N     N_R   0.474290 0.471400 0.792440 -0.040857
N18   N     N_R   0.049470 0.896220 0.942800 -0.039149
N19   N     N_R   0.049470 0.103780 0.942800 -0.046023
N20   N     N_R   0.549470 0.396220 0.942800 -0.039147
N21   N     N_R   0.549470 0.603780 0.942800 -0.046072
N22   N     N_R   0.106670 0.103780 0.057200 -0.038494
N23   N     N_R   0.450530 0.396220 0.057200 -0.042502
N24   N     N_R   0.106670 0.896220 0.057200 -0.039072
N25   N     N_R   0.606670 0.603780 0.057200 -0.038497
N26   N     N_R   0.606670 0.396220 0.057200 -0.039075
N27   N     N_R   0.450530 0.603780 0.057200 -0.040899
N28   N     N_R   0.893330 0.103780 0.942800 -0.048163
N29   N     N_R   0.893330 0.896220 0.942800 -0.042863
N30   N     N_R   0.393330 0.603780 0.942800 -0.048162
N31   N     N_R   0.393330 0.396220 0.942800 -0.042864
N32   N     N_R   0.818150 0.971400 0.792440 -0.031249
Ni1   Ni    Ni4+2 0.065600 0.934400 0.131190 0.220556
Ni2   Ni    Ni4+2 0.065600 0.065600 0.131190 0.216121
Ni3   Ni    Ni4+2 0.565600 0.434400 0.131190 0.220559
Ni4   Ni    Ni4+2 0.565600 0.565600 0.131190 0.216108
Ni5   Ni    Ni4+2 0.934400 0.065600 0.868810 0.201436
Ni6   Ni    Ni4+2 0.934400 0.934400 0.868810 0.204906
Ni7   Ni    Ni4+2 0.434400 0.565600 0.868810 0.201428
Ni8   Ni    Ni4+2 0.434400 0.434400 0.868810 0.204923
O1    O     O_3   0.608074 0.135296 0.872922 -0.615028
O2    O     O_3   0.389084 0.037052 0.490638 -0.673052
O3    O     O_3   0.877900 0.442091 0.466343 -0.646676
O4    O     O_3   0.889103 0.537079 0.490619 -0.673045
O5    O     O_3   0.618359 0.874423 0.932166 -0.608011
O6    O     O_3   0.108077 0.635283 0.872985 -0.615027
O7    O     O_3   0.118294 0.374395 0.932010 -0.608005
O8    O     O_3   0.260051 0.832084 0.960231 -0.604726
O9    O     O_3   0.216987 0.175300 0.903171 -0.607436
O10   O     O_3   0.760094 0.332089 0.960294 -0.604727
O11   O     O_3   0.716726 0.675320 0.902952 -0.607531
O12   O     O_3   0.377941 0.942065 0.466357 -0.646699

loop_
_geom_bond_atom_site_label_1
_geom_bond_atom_site_label_2
_ccdc_geom_bond_type
C63   C65   S    
C64   H74   S    
C73   H88   S    
C62   H72   S    
C116  H143  S    
C104  N4    A    
C55   H90   S    
C75   C95   S    
C76   H100  S    
C49   C60   S    
C8    H150  S    
C13   H15   S    
C20   H31   S    
C41   H19   S    
C21   O8    S    
C97   H121  S    
N19   Ni5   S    
C15   N16   A    
C57   N31   A    
C1    C122  A    
C32   C52   S    
C56   H91   S    
N8    Ni3   S    
C46   H24   S    
C39   H17   S    
C49   C51   S    
C31   C112  S    
N11   N13   A    
C121  N8    A    
C119  N6    A    
C71   C82   S    
C93   H107  S    
N13   Ni4   S    
C26   H48   S    
C106  H129  S    
N2    Ni5   S    
C82   C124  S    
N3    Ni8   S    
C67   C85   S    
C41   H120  S    
C2    H14   S    
C101  N2    A    
C98   C112  S    
N5    Ni2   S    
N21   Ni7   S    
C43   H142  S    
C99   H127  S    
C86   C90   S    
C14   C32   A    
N7    Ni4   S    
C97   H125  S    
C26   H49   S    
C24   H16   S    
N29   Ni6   S    
C63   H73   S    
C107  H130  S    
C64   C66   S    
C1    N1    A    
C57   H92   S    
C68   H83   S    
N20   N26   A    
C47   H62   S    
C28   H56   S    
C52   C58   S    
C23   H43   S    
C58   H68   S    
C19   H29   S    
C119  H147  S    
C100  H133  S    
C69   H84   S    
C84   C88   S    
C40   H109  S    
C27   H52   S    
C117  H145  S    
C35   C84   S    
C12   H4    S    
C83   C91   S    
C109  O2    S    
C120  H148  S    
C62   C68   S    
C17   H22   S    
C63   O6    S    
N22   Ni2   S    
N1    Ni1   S    
N23   N31   A    
C49   H64   S    
N9    Ni1   S    
C77   C82   S    
C97   C111  S    
C46   C53   S    
C108  H140  S    
C84   C93   S    
C2    C34   A    
C95   H103  S    
C117  H144  S    
C86   C95   S    
C71   C88   S    
C41   C45   S    
C72   H113  S    
C18   H26   S    
C75   C79   S    
C41   C51   S    
C54   C123  A    
C91   H104  S    
C102  N3    A    
C94   H108  S    
C61   O1    S    
C99   C108  S    
C15   H6    S    
C74   H97   S    
C24   C36   A    
C38   C86   S    
C108  C115  S    
C105  C113  S    
C73   C90   S    
C43   H35   S    
C109  C111  S    
C104  H136  S    
C43   C52   S    
C76   H95   S    
C12   N14   A    
C106  H138  S    
C4    C113  S    
C85   C94   S    
C16   H7    S    
C109  O12   S    
C72   C78   S    
C37   C123  A    
C120  N7    A    
C71   H85   S    
N26   Ni3   S    
N14   Ni5   S    
C39   H98   S    
C16   N17   A    
C109  C116  S    
C44   C52   S    
C45   C53   S    
C5    C115  S    
C7    C121  A    
C10   C31   A    
C53   C60   S    
C59   H87   S    
C60   H69   S    
C47   C50   S    
C59   N27   A    
C63   C80   S    
C25   H44   S    
C96   C111  S    
C87   H115  S    
C29   H58   S    
C106  C113  S    
N17   Ni8   S    
C66   H81   S    
C49   H66   S    
C11   H3    S    
C38   C103  A    
C22   H40   S    
C61   C67   S    
C20   O7    S    
C64   C82   S    
C70   H8    S    
C73   C79   S    
C6    C50   S    
C18   O5    S    
C78   C123  S    
C55   N29   A    
C13   C38   A    
C9    C30   A    
C90   H118  S    
C99   H123  S    
N6    Ni1   S    
C6    C119  A    
C34   C70   A    
C114  H12   S    
C17   O1    S    
C9    H151  S    
C92   H10   S    
C76   C80   S    
C105  H128  S    
C10   H152  S    
C81   H9    S    
C69   H111  S    
C73   H114  S    
C25   H47   S    
C42   H131  S    
C110  C112  S    
C76   C91   S    
C64   O7    S    
C40   C44   S    
C14   N15   A    
N21   N25   A    
C47   H63   S    
C118  H146  S    
C83   C87   S    
C96   C105  S    
C77   H101  S    
N20   Ni8   S    
C29   H60   S    
C21   H34   S    
C74   C94   S    
N16   Ni7   S    
N1    N29   A    
C45   H57   S    
N28   Ni5   S    
N10   Ni2   S    
C48   H76   S    
N30   Ni7   S    
C110  O4    S    
C98   H122  S    
C67   H75   S    
C22   H38   S    
C26   H50   S    
C25   H45   S    
C88   H116  S    
N14   N15   A    
C42   C46   S    
C62   O5    S    
N24   Ni1   S    
C65   H78   S    
N25   Ni4   S    
C115  C117  S    
N3    N4    A    
C95   H110  S    
C29   H59   S    
C61   H71   S    
C69   C87   S    
C24   N26   A    
C36   C92   A    
C108  H132  S    
C3    C80   S    
C110  C117  S    
C87   O8    S    
N27   N30   A    
C79   C122  S    
C28   O3    S    
C118  N5    A    
C27   H51   S    
C98   H126  S    
C85   C89   S    
C91   H106  S    
C98   C107  S    
C17   H21   S    
C96   H119  S    
N9    N10   A    
C110  O3    S    
C101  H134  S    
C67   H82   S    
N32   Ni6   S    
C97   C106  S    
C20   H33   S    
C42   H20   S    
C21   H36   S    
C18   H27   S    
C19   O6    S    
N2    N32   A    
C103  N21   A    
C5    C102  A    
C68   H77   S    
C7    C120  A    
C27   H53   S    
C2    N24   A    
C25   O11   S    
C36   C85   S    
C92   N20   A    
C22   O9    S    
C8    C30   A    
C29   O4    S    
C7    C51   S    
C56   N30   A    
C57   C124  A    
C65   H80   S    
C40   C50   S    
C77   C93   S    
C46   H61   S    
C28   H55   S    
C121  H149  S    
C94   H102  S    
C11   N13   A    
C74   C78   S    
C58   H67   S    
C114  N22   A    
C19   H30   S    
C96   H124  S    
N27   Ni4   S    
C14   H5    S    
C54   H89   S    
C37   H65   S    
C72   C89   S    
C27   O2    S    
C40   H18   S    
C68   C86   S    
C35   C81   A    
C60   H70   S    
C44   H2    S    
C9    N10   A    
N15   Ni6   S    
N16   N17   A    
C17   H23   S    
C1    H1    S    
C65   C83   S    
C102  H135  S    
C35   C114  A    
C103  H11   S    
C90   O11   S    
N18   Ni6   S    
C72   H86   S    
C48   N23   A    
C42   C51   S    
C113  C116  S    
C55   C122  A    
C75   H99   S    
C23   H41   S    
C4    C101  A    
C13   N25   A    
C89   O10   S    
N12   N28   A    
C37   N12   A    
N12   Ni2   S    
N19   N22   A    
C33   C53   S    
C21   H37   S    
C62   C79   S    
C116  H141  S    
C54   N28   A    
C39   C43   S    
C75   H94   S    
N5    N6    A    
C66   C84   S    
N18   N24   A    
C16   C33   A    
C23   H42   S    
C26   O12   S    
C3    C56   A    
C61   C78   S    
C45   H13   S    
C19   H28   S    
C71   H112  S    
C107  C115  S    
C66   H79   S    
N23   Ni3   S    
C4    C100  A    
C89   H117  S    
C34   C83   S    
C8    N9    A    
C18   H25   S    
N7    N8    A    
C93   H105  S    
C20   H32   S    
C10   N11   A    
C88   O9    S    
C48   C124  A    
C77   H96   S    
C30   C111  S    
C81   N19   A    
C47   C58   S    
C22   H39   S    
C23   O10   S    
N4    Ni7   S    
C99   C112  S    
C74   H93   S    
C15   C33   A    
C70   N18   A    
C44   H46   S    
C5    C104  A    
C11   C31   A    
C100  N32   A    
C39   C50   S    
C105  H137  S    
C69   C80   S    
C107  H139  S    
N31   Ni8   S    
N11   Ni3   S    
C28   H54   S    
C6    C118  A    
C12   C32   A    
C3    C59   A    
