data_mof_unit_66123.cif
_audit_creation_date              2012-12-10T17:07:46-0500
_audit_creation_method            fapswitch 2.2
_symmetry_space_group_name_H-M    P1
_symmetry_Int_Tables_number       1
_space_group_crystal_system       triclinic
_cell_length_a                    10.731606
_cell_length_b                    10.808381
_cell_length_c                    10.060391
_cell_angle_alpha                 89.501727
_cell_angle_beta                  90.599115
_cell_angle_gamma                 89.554828
_cell_volume                      1166.77372063

loop_
_atom_site_label
_atom_site_type_symbol
_atom_type_description
_atom_site_fract_x
_atom_site_fract_y
_atom_site_fract_z
_atom_type_partial_charge
Br1   Br    Br    0.112061 0.676381 0.280332 -0.097543
Br2   Br    Br    0.852317 0.251860 0.377160 -0.197634
Br3   Br    Br    0.832220 0.736821 0.356176 -0.124096
Br4   Br    Br    0.365296 0.876997 0.253062 -0.250307
Br5   Br    Br    0.582128 0.119464 0.231895 -0.167463
Br6   Br    Br    0.375677 0.071454 0.647099 -0.191198
Br7   Br    Br    0.666103 0.701518 0.853660 -0.068193
Br8   Br    Br    0.149690 0.307930 0.719505 -0.142464
Br9   Br    Br    0.334195 0.518367 0.087127 -0.101739
Br10  Br    Br    0.152964 0.758716 0.570800 -0.255136
C1    C     C_R   0.497204 0.262731 0.499915 0.867142
C2    C     C_2   0.589313 0.542966 0.073198 0.731988
C3    C     C_R   0.257858 0.496324 0.499763 1.011305
C4    C     C_R   0.501417 0.736788 0.498858 0.855626
C5    C     C_R   0.741961 0.498217 0.501013 1.023446
C6    C     C_3   0.072435 0.458236 0.642406 -0.106137
C7    C     C_3   0.929811 0.445067 0.638814 1.073184
C8    C     C_3   0.070102 0.631025 0.463999 0.310215
C9    C     C_3   0.070003 0.398775 0.401516 0.409587
C10   C     C_3   0.121072 0.496719 0.500640 -0.546173
C11   C     C_3   0.878196 0.498476 0.502834 -0.633334
C12   C     C_3   0.925861 0.635231 0.487818 0.676305
C13   C     C_3   0.928479 0.415700 0.386296 0.638246
C14   C     C_2   0.472034 0.935171 0.394264 0.080064
C15   C     C_2   0.520768 0.866282 0.493611 0.471269
C16   C     C_2   0.499288 0.064324 0.391500 0.232879
C17   C     C_2   0.471777 0.133230 0.498543 0.083869
C18   C     C_2   0.572529 0.568019 0.927389 0.302140
F1    F     F_    0.902822 0.472875 0.265069 -0.472559
F2    F     F_    0.599306 0.915553 0.586195 -0.564326
F3    F     F_    0.477490 0.388019 0.900094 -0.494405
F4    F     F_    0.700524 0.571284 0.129652 -0.536724
F5    F     F_    0.894692 0.322538 0.653209 -0.574311
F6    F     F_    0.882754 0.507573 0.747618 -0.513654
F7    F     F_    0.902153 0.696492 0.605666 -0.538522
F8    F     F_    0.124886 0.403687 0.277499 -0.494929
H1    H     H_    0.096920 0.532759 0.713448 0.251072
H2    H     H_    0.092008 0.305022 0.441968 0.137446
N1    N     N_2   0.501360 0.501330 0.852150 0.105426
N2    N     N_2   0.501390 0.501360 0.147810 -0.051881
O1    O     O_R   0.499980 0.319060 0.613040 -0.521480
O2    O     O_R   0.500020 0.319100 0.386900 -0.605980
O3    O     O_R   0.314770 0.499960 0.613070 -0.596548
O4    O     O_R   0.314820 0.500000 0.386930 -0.528831
O5    O     O_R   0.499980 0.680900 0.613100 -0.582008
O6    O     O_R   0.500020 0.680940 0.386960 -0.627270
O7    O     O_R   0.685180 0.500000 0.613070 -0.540514
O8    O     O_R   0.685230 0.500040 0.386930 -0.538069
Zn1   Zn    Zn3+2 0.499970 0.499970 0.650990 1.217809
Zn2   Zn    Zn3+2 0.500030 0.500030 0.349010 1.184409

loop_
_geom_bond_atom_site_label_1
_geom_bond_atom_site_label_2
_ccdc_geom_bond_type
C2    N2    D    
C9    C13   S    
Br9   N2    S    
C9    H2    S    
C1    C17   S    
O6    Zn2   S    
C9    C10   S    
C18   N1    D    
O5    Zn1   S    
C6    H1    S    
C6    C10   S    
Br2   C13   S    
C3    O3    A    
O8    Zn2   S    
Br1   C8    S    
O7    Zn1   S    
C11   C12   S    
C2    F4    S    
C12   F7    S    
C14   C16   S    
C16   C17   D    
C7    F5    S    
C5    O8    A    
O2    Zn2   S    
N2    Zn2   S    
C13   F1    S    
O1    Zn1   S    
N1    Zn1   S    
Br10  C8    S    
C1    O1    A    
C4    O5    A    
C8    C10   S    
C9    F8    S    
C11   C13   S    
C4    C15   S    
Br4   C14   S    
C7    F6    S    
Br5   C16   S    
C5    C11   S    
C14   C15   D    
C2    C18   S    
C1    O2    A    
C4    O6    A    
Br8   C6    S    
O4    Zn2   S    
C15   F2    S    
C5    O7    A    
O3    Zn1   S    
Br3   C12   S    
C3    C10   S    
C8    C12   S    
C3    O4    A    
C7    C11   S    
Br7   C18   S    
Br6   C17   S    
F3    N1    S    
C6    C7    S    
