data_mof_unit_12594.cif
_audit_creation_date              2012-12-11T14:29:28-0500
_audit_creation_method            fapswitch 2.2
_symmetry_space_group_name_H-M    P1
_symmetry_Int_Tables_number       1
_space_group_crystal_system       triclinic
_cell_length_a                    6.937421
_cell_length_b                    14.733807
_cell_length_c                    16.251591
_cell_angle_alpha                 90.428686
_cell_angle_beta                  89.747767
_cell_angle_gamma                 89.798832
_cell_volume                      1661.07720854

loop_
_atom_site_label
_atom_site_type_symbol
_atom_type_description
_atom_site_fract_x
_atom_site_fract_y
_atom_site_fract_z
_atom_type_partial_charge
O1    O     O_R   0.494400 0.416610 0.413880 -0.543094
O2    O     O_R   0.823920 0.406790 0.585520 -0.540085
O3    O     O_R   0.994250 0.583390 0.586120 -0.536423
C1    C     C_R   0.654618 0.385111 0.613586 0.746357
O4    O     O_R   0.824110 0.405730 0.414490 -0.536919
O5    O     O_R   0.994440 0.582310 0.413870 -0.540762
C2    C     C_R   0.656598 0.384501 0.385339 0.747070
O6    O     O_R   0.494210 0.417690 0.586130 -0.545829
O7    O     O_3   0.660810 0.557940 0.500000 -0.369878
V1    V     V_3+5 0.935650 0.489250 0.500000 1.404356
O8    O     O_R   0.324160 0.593210 0.414480 -0.544176
C3    C     C_R   0.155512 0.614915 0.386282 0.735765
O9    O     O_R   0.323970 0.594270 0.585510 -0.538267
C4    C     C_R   0.154712 0.616142 0.613908 0.696073
V2    V     V_3+5 0.435660 0.510750 0.500000 1.406518
O10   O     O_3   0.160630 0.442060 0.500000 -0.374023
H1    H     H_    0.831132 0.893880 0.520846 0.114290
C5    C     C_R   0.311309 0.578043 0.775192 -0.141502
C6    C     C_R   0.387574 0.557273 0.851944 -0.123828
C7    C     C_R   0.375942 0.619937 0.916054 -0.119483
C8    C     C_R   0.288086 0.703901 0.903912 -0.131829
C9    C     C_R   0.211633 0.727637 0.826307 0.069597
C10   C     C_R   0.223377 0.663267 0.760479 0.070344
C11   C     C_R   0.120691 0.812941 0.814264 -0.185784
C12   C     C_R   0.041411 0.833665 0.736182 0.069827
C13   C     C_R   0.053089 0.769282 0.670358 0.069131
C14   C     C_R   0.143998 0.683960 0.682404 -0.186281
C15   C     C_R   0.953679 0.918939 0.721461 -0.141659
C16   C     C_R   0.877546 0.939750 0.644697 -0.125433
C17   C     C_R   0.889021 0.877056 0.580597 -0.121263
C18   C     C_R   0.976656 0.793036 0.592754 -0.131839
H2    H     H_    0.320865 0.526045 0.728049 0.110618
H3    H     H_    0.454620 0.491820 0.861884 0.116236
H4    H     H_    0.433900 0.603134 0.975798 0.113218
H5    H     H_    0.279449 0.749320 0.956375 0.107506
H6    H     H_    0.944221 0.970952 0.768601 0.110948
H7    H     H_    0.810726 0.005255 0.634745 0.119218
H8    H     H_    0.985182 0.747595 0.540301 0.108994
C19   C     C_2   0.985489 0.709397 0.282838 -0.135214
C20   C     C_2   0.150419 0.682585 0.319365 -0.313688
H9    H     H_    0.849587 0.681177 0.303780 0.136374
H10   H     H_    0.287962 0.710175 0.300508 0.128631
C21   C     C_2   0.973015 0.776880 0.214871 -0.134065
C22   C     C_2   0.126190 0.814426 0.177056 -0.311079
H11   H     H_    0.828973 0.795646 0.195179 0.134257
H12   H     H_    0.271353 0.796265 0.194921 0.128862
C23   C     C_2   0.779497 0.207673 0.781011 -0.138822
C24   C     C_2   0.614283 0.179557 0.816579 -0.312043
H13   H     H_    0.915652 0.179485 0.801694 0.135222
H14   H     H_    0.476199 0.206109 0.797287 0.127610
C25   C     C_2   0.791408 0.276093 0.713979 -0.134045
C26   C     C_2   0.638123 0.317710 0.680093 -0.314070
H15   H     H_    0.935054 0.292343 0.691834 0.134917
H16   H     H_    0.493224 0.302815 0.700753 0.126967
C27   C     C_2   0.779810 0.212810 0.208444 -0.137596
C28   C     C_2   0.613205 0.184919 0.174622 -0.355129
H17   H     H_    0.913240 0.181537 0.187137 0.145776
H18   H     H_    0.477234 0.216230 0.191994 0.130445
C29   C     C_2   0.798216 0.287166 0.270931 0.181701
C30   C     C_2   0.647173 0.314349 0.319292 -0.315848
H19   H     H_    0.507374 0.282943 0.311468 0.107254
O11   O     O_R   0.770210 0.079270 0.910680 -0.541645
O12   O     O_R   0.440150 0.091160 0.082270 -0.545233
O13   O     O_R   0.269970 0.914530 0.082860 -0.544452
C31   C     C_R   0.608224 0.113775 0.110040 0.757733
O14   O     O_R   0.440480 0.090100 0.911240 -0.545196
O15   O     O_R   0.270310 0.913460 0.910610 -0.537006
C32   C     C_R   0.609227 0.111719 0.883085 0.745185
O16   O     O_R   0.769870 0.080340 0.082930 -0.539510
O17   O     O_3   0.603660 0.938980 0.996790 -0.370260
V3    V     V_3+5 0.328750 0.007610 0.996740 1.402594
O18   O     O_R   0.940600 0.902510 0.911180 -0.538795
C33   C     C_R   0.109886 0.880720 0.882774 0.694348
O19   O     O_R   0.940270 0.903570 0.082200 -0.540388
C34   C     C_R   0.109481 0.881845 0.110337 0.736463
V4    V     V_3+5 0.828770 0.986010 0.996670 1.414229
O20   O     O_3   0.103730 0.054750 0.996710 -0.374203
C35   C     C_3   0.996117 0.329413 0.278176 -0.715720
H20   H     H_    0.095178 0.304585 0.229000 0.173940
H21   H     H_    0.985927 0.404289 0.271858 0.201194
H22   H     H_    0.062251 0.311563 0.338017 0.212597

loop_
_geom_bond_atom_site_label_1
_geom_bond_atom_site_label_2
_ccdc_geom_bond_type
O14   C32   A    
C27   C28   D    
O12   C31   A    
C27   C29   S    
C6    C7    A    
O18   V4    S    
C19   H9    S    
C12   C15   A    
C13   C14   A    
O19   V4    S    
C1    C26   S    
C15   C16   A    
O5    C3    A    
C17   C18   A    
C35   H21   S    
C11   C33   S    
C28   C31   S    
O16   V4    S    
C5    C6    A    
O13   V3    S    
O8    V2    S    
C23   C24   D    
C22   H12   S    
C11   C12   A    
O17   V3    S    
O15   C33   A    
C10   C14   A    
C4    C14   S    
O7    V1    S    
C1    O6    A    
C7    H4    S    
C20   H10   S    
C29   C30   D    
O9    C4    A    
H1    C17   S    
O11   V4    S    
C29   C35   S    
C26   H16   S    
O19   C34   A    
C5    C10   A    
V4    O20   S    
C23   H13   S    
C6    H3    S    
C19   C20   D    
O4    C2    A    
C35   H20   S    
C19   C21   S    
C12   C13   A    
C25   C26   D    
C30   H19   S    
C25   H15   S    
C3    C20   S    
C22   C34   S    
O2    C1    A    
C21   C22   D    
C16   C17   A    
O14   V3    S    
C24   C32   S    
C21   H11   S    
O3    C4    A    
O1    V2    S    
O12   V3    S    
O6    V2    S    
C27   H17   S    
O17   V4    S    
C9    C11   A    
C5    H2    S    
O2    V1    S    
C2    C30   S    
V3    O20   S    
O1    C2    A    
O18   C33   A    
O5    V1    S    
C23   C25   S    
O8    C3    A    
C8    H5    S    
C18   H8    S    
O11   C32   A    
O9    V2    S    
O7    V2    S    
O4    V1    S    
O3    V1    S    
V1    O10   S    
C35   H22   S    
C31   O16   A    
C24   H14   S    
O13   C34   A    
C28   H18   S    
O15   V3    S    
C13   C18   A    
C7    C8    A    
C15   H6    S    
C16   H7    S    
C9    C10   A    
C8    C9    A    
V2    O10   S    
