data_mof_unit_38777.cif
_audit_creation_date              2012-12-10T19:25:54-0500
_audit_creation_method            fapswitch 2.2
_symmetry_space_group_name_H-M    P1
_symmetry_Int_Tables_number       1
_space_group_crystal_system       triclinic
_cell_length_a                    9.749661
_cell_length_b                    10.487992
_cell_length_c                    16.645602
_cell_angle_alpha                 90.041944
_cell_angle_beta                  85.157938
_cell_angle_gamma                 89.833705
_cell_volume                      1696.00306099

loop_
_atom_site_label
_atom_site_type_symbol
_atom_type_description
_atom_site_fract_x
_atom_site_fract_y
_atom_site_fract_z
_atom_type_partial_charge
C1    C     C_R   0.500071 0.742334 0.498191 0.922118
C2    C     C_3   0.623107 0.958421 0.465431 -0.329968
C3    C     C_3   0.950781 0.615075 0.501865 -0.072255
C4    C     C_3   0.049212 0.384963 0.498275 -0.077266
C5    C     C_3   0.057439 0.559974 0.437968 -0.061474
C6    C     C_3   0.942476 0.440120 0.562107 -0.064704
C7    C     C_3   0.039168 0.555119 0.563982 -0.091029
C8    C     C_3   0.960804 0.444912 0.436079 -0.087435
C9    C     C_R   0.481037 0.499771 0.653459 0.882964
C10   C     C_R   0.519129 0.492046 0.347036 0.885105
C11   C     C_R   0.471461 0.484480 0.740570 -0.089392
C12   C     C_R   0.499864 0.257532 0.501574 0.915949
C13   C     C_R   0.530526 0.445795 0.264474 -0.080421
C14   C     C_R   0.591105 0.495492 0.781057 -0.321720
C15   C     C_R   0.427099 0.365565 0.239813 -0.330073
C16   C     C_R   0.591900 0.457963 0.861834 0.542520
C17   C     C_R   0.437279 0.314165 0.162161 0.512191
C18   C     C_R   0.466285 0.417685 0.902366 0.082370
C19   C     C_R   0.554700 0.341185 0.110307 0.071546
C20   C     C_R   0.344976 0.415827 0.863172 -0.250897
C21   C     C_R   0.661921 0.414519 0.136703 -0.220984
C22   C     C_R   0.347690 0.447077 0.782229 -0.200573
C23   C     C_3   0.400140 0.961255 0.456495 0.597562
C24   C     C_R   0.650117 0.466592 0.213755 -0.204480
C25   C     C_2   0.454989 0.389340 0.988287 -0.164270
C26   C     C_2   0.551028 0.324085 0.023874 -0.110891
C27   C     C_3   0.206478 0.291370 0.140649 0.062171
C28   C     C_3   0.106089 0.218348 0.199109 -0.340326
C29   C     C_3   0.961567 0.275134 0.201438 -0.967864
C30   C     C_3   0.834284 0.439833 0.861188 0.058589
C31   C     C_3   0.839664 0.302168 0.828537 -0.400921
C32   C     C_3   0.982471 0.269510 0.789099 -0.952766
C33   C     C_3   0.211878 0.002256 0.383291 0.089475
C34   C     C_3   0.599104 0.037977 0.543037 0.597311
C35   C     C_3   0.072202 0.998346 0.432710 -0.364530
C36   C     C_3   0.967478 0.084629 0.396464 -0.989720
C37   C     C_3   0.790273 0.993919 0.613433 0.064591
C38   C     C_3   0.756073 0.962335 0.702593 -0.335249
C39   C     C_3   0.854603 0.861926 0.731213 -0.976590
C40   C     C_3   0.521485 0.044048 0.423049 -0.336757
C41   C     C_3   0.477551 0.955456 0.576277 -0.325972
C42   C     C_3   0.499560 0.122481 0.501269 -0.102267
C43   C     C_3   0.499849 0.877187 0.498194 -0.095815
C44   C     C_3   0.375938 0.041088 0.533826 -0.305144
H1    H     H_    0.683229 0.532079 0.748697 0.157673
H2    H     H_    0.369395 0.433316 0.024334 0.132399
H3    H     H_    0.248410 0.387911 0.895252 0.143838
H4    H     H_    0.750784 0.437958 0.095886 0.171391
H5    H     H_    0.536796 0.085247 0.361517 0.160690
H6    H     H_    0.458910 0.913347 0.637303 0.144373
H7    H     H_    0.277601 0.080752 0.561726 0.151706
H8    H     H_    0.721519 0.917880 0.438112 0.165790
H9    H     H_    0.169088 0.286324 0.079477 0.159828
H10   H     H_    0.206060 0.394547 0.157474 0.117393
H11   H     H_    0.102573 0.116824 0.180200 0.233802
H12   H     H_    0.339186 0.341739 0.281085 0.158450
H13   H     H_    0.142319 0.221981 0.260414 0.205073
H14   H     H_    0.962428 0.376246 0.221290 0.257392
H15   H     H_    0.890638 0.221033 0.244411 0.275246
H16   H     H_    0.922601 0.269636 0.140750 0.266693
H17   H     H_    0.915635 0.448801 0.903729 0.169277
H18   H     H_    0.862300 0.510641 0.813124 0.134433
H19   H     H_    0.813544 0.234457 0.878743 0.221122
H20   H     H_    0.764229 0.289492 0.782830 0.224311
H21   H     H_    0.011875 0.336995 0.739256 0.253635
H22   H     H_    0.982412 0.171399 0.764011 0.269577
H23   H     H_    0.904388 0.711870 0.503530 0.107630
H24   H     H_    0.059778 0.273951 0.834274 0.261736
H25   H     H_    0.196260 0.980330 0.319394 0.170916
H26   H     H_    0.255219 0.100691 0.383972 0.116333
H27   H     H_    0.032425 0.899116 0.435007 0.225533
H28   H     H_    0.084524 0.029830 0.495266 0.199938
H29   H     H_    0.011727 0.180196 0.383466 0.260377
H30   H     H_    0.875555 0.096619 0.439726 0.292790
H31   H     H_    0.935721 0.042268 0.339783 0.269667
H32   H     H_    0.896732 0.031994 0.605841 0.158185
H33   H     H_    0.790616 0.904818 0.576874 0.129476
H34   H     H_    0.095960 0.288374 0.498056 0.132600
H35   H     H_    0.763023 0.050221 0.739274 0.230457
H36   H     H_    0.649471 0.925523 0.712213 0.215123
H37   H     H_    0.846904 0.772180 0.696341 0.260262
H38   H     H_    0.827533 0.841110 0.795999 0.273475
H39   H     H_    0.962267 0.897165 0.723724 0.261668
H40   H     H_    0.110837 0.610618 0.385815 0.136946
H41   H     H_    0.888691 0.389484 0.614137 0.139379
H42   H     H_    0.077092 0.601511 0.617820 0.119733
H43   H     H_    0.922403 0.399589 0.382062 0.129756
H44   H     H_    0.732654 0.525062 0.233100 0.156582
H45   H     H_    0.253947 0.439422 0.752010 0.164930
H46   H     H_    0.639120 0.282201 0.989270 0.160873
N1    N     N_3   0.136700 0.499970 0.500060 -0.071698
N2    N     N_3   0.863300 0.500030 0.499940 -0.068817
O1    O     O_R   0.383390 0.686040 0.500000 -0.580038
O2    O     O_3   0.707453 0.470528 0.905416 -0.667713
O3    O     O_3   0.299360 0.907060 0.410925 -0.642096
O4    O     O_3   0.700969 0.090272 0.588754 -0.644887
O5    O     O_R   0.616610 0.313960 0.500000 -0.581063
O6    O     O_R   0.616650 0.686050 0.499970 -0.642146
O7    O     O_R   0.383350 0.313950 0.500030 -0.645619
O8    O     O_R   0.369590 0.500020 0.615820 -0.626626
O9    O     O_R   0.630410 0.499980 0.384180 -0.622213
O10   O     O_R   0.602840 0.500020 0.615790 -0.617557
O11   O     O_R   0.397160 0.499980 0.384210 -0.616867
O12   O     O_3   0.337846 0.232257 0.136846 -0.647001
Zn1   Zn    Zn3+2 0.344250 0.499990 0.500020 0.944887
Zn2   Zn    Zn3+2 0.655750 0.500010 0.499980 0.948286

loop_
_geom_bond_atom_site_label_1
_geom_bond_atom_site_label_2
_ccdc_geom_bond_type
N1    Zn1   S    
C35   C36   S    
C34   C42   S    
C4    C8    S    
C27   H10   S    
C28   H13   S    
C34   C41   S    
C28   C29   S    
O8    Zn1   S    
C6    H41   S    
C10   O11   A    
C19   C21   A    
C17   O12   S    
C34   O4    S    
C3    C7    S    
C30   C31   S    
C11   C14   A    
C7    H42   S    
C38   H35   S    
C23   C40   S    
C27   O12   S    
C23   C43   S    
C19   C26   S    
C12   O7    A    
C12   C42   S    
O1    Zn1   S    
C1    C43   S    
C29   H15   S    
C9    O10   A    
C8    N2    S    
C33   H25   S    
C32   H24   S    
C21   H4    S    
C2    C34   S    
C40   C42   S    
C35   H27   S    
C41   C43   S    
C18   C25   S    
C42   C44   S    
C33   O3    S    
C28   H11   S    
C14   H1    S    
O7    Zn1   S    
C31   H19   S    
C39   H37   S    
C4    C6    S    
C5    H40   S    
C17   C19   A    
C25   C26   D    
C37   H33   S    
C1    O1    A    
C23   C44   S    
C13   C24   A    
C3    N2    S    
C4    H34   S    
C37   C38   S    
C36   H31   S    
C9    C11   S    
C31   C32   S    
C29   H16   S    
C2    C43   S    
C7    N1    S    
O11   Zn1   S    
C24   H44   S    
C12   O5    A    
C5    N1    S    
C2    H8    S    
C33   H26   S    
O5    Zn2   S    
C44   H7    S    
N2    Zn2   S    
C37   H32   S    
C20   C22   A    
C35   H28   S    
C9    O8    A    
C30   H18   S    
C41   C44   S    
C14   C16   A    
C21   C24   A    
C41   H6    S    
C32   H22   S    
O9    Zn2   S    
C15   C17   A    
C36   H30   S    
C31   H20   S    
C10   O9    A    
C3    H23   S    
C39   H38   S    
C3    C5    S    
C10   C13   S    
C1    O6    A    
C5    C8    S    
C27   H9    S    
C6    C7    S    
C26   H46   S    
C11   C22   A    
C16   O2    S    
O6    Zn2   S    
C8    H43   S    
C15   H12   S    
C4    N1    S    
C13   C15   A    
C39   H39   S    
C30   O2    S    
C38   C39   S    
C38   H36   S    
C6    N2    S    
C33   C35   S    
C22   H45   S    
C23   O3    S    
O10   Zn2   S    
C18   C20   A    
C20   H3    S    
C36   H29   S    
C2    C40   S    
C29   H14   S    
C37   O4    S    
C16   C18   A    
C30   H17   S    
C27   C28   S    
C25   H2    S    
C40   H5    S    
C32   H21   S    
