data_mof_unit_24401.cif
_audit_creation_date              2012-10-26T20:21:07-0400
_audit_creation_method            fapswitch 2.2
_symmetry_space_group_name_H-M    P1
_symmetry_Int_Tables_number       1
_space_group_crystal_system       triclinic
_cell_length_a                    9.524489
_cell_length_b                    10.820755
_cell_length_c                    15.503687
_cell_angle_alpha                 89.683146
_cell_angle_beta                  74.463031
_cell_angle_gamma                 89.882724
_cell_volume                      1539.43101406

loop_
_atom_site_label
_atom_site_type_symbol
_atom_type_description
_atom_site_fract_x
_atom_site_fract_y
_atom_site_fract_z
_atom_type_partial_charge
C1    C     C_R   0.000184 0.262265 0.500170 0.614326
C2    C     C_R   0.072997 0.064036 0.554796 0.262039
C3    C     C_R   0.000775 0.871225 0.500622 -0.034358
C4    C     C_R   0.001658 0.128272 0.499540 -0.013042
C5    C     C_R   0.545847 0.439047 0.565264 0.006193
C6    C     C_R   0.454047 0.561342 0.434897 0.009560
C7    C     C_R   0.397007 0.439917 0.565587 -0.003350
C8    C     C_R   0.602763 0.561397 0.434963 0.022438
C9    C     C_R   0.918284 0.499585 0.672113 0.546683
C10   C     C_R   0.081738 0.501038 0.327923 0.539506
C11   C     C_R   0.873464 0.497075 0.770295 0.002897
C12   C     C_R   0.999572 0.737525 0.501142 0.564191
C13   C     C_R   0.127225 0.512888 0.230147 -0.004988
C14   C     C_R   0.925093 0.459440 0.912413 -0.138432
C15   C     C_R   0.081627 0.579436 0.091220 -0.150482
C16   C     C_R   0.972992 0.469723 0.819653 -0.126569
C17   C     C_R   0.030585 0.554145 0.182370 -0.154139
C18   C     C_R   0.726966 0.517851 0.814638 -0.134214
C19   C     C_R   0.273691 0.493151 0.185571 -0.135920
C20   C     C_R   0.676227 0.511114 0.908421 0.034498
C21   C     C_R   0.329186 0.521620 0.094225 0.033305
C22   C     C_R   0.777817 0.478777 0.956989 0.049905
C23   C     C_R   0.585931 0.479518 0.094698 -0.139169
C24   C     C_R   0.229612 0.563544 0.046883 0.049647
C25   C     C_R   0.527123 0.531539 0.954811 0.034089
C26   C     C_R   0.480107 0.509846 0.048892 0.034017
C27   C     C_3   0.983375 0.843726 0.304817 -0.114746
C28   C     C_3   0.289025 0.121521 0.578979 -0.082000
C29   C     C_R   0.423947 0.574438 0.910556 -0.138609
C30   C     C_R   0.731566 0.464801 0.049449 -0.138962
C31   C     C_R   0.278536 0.590424 0.955991 -0.138474
C32   C     C_R   0.933001 0.064528 0.443320 0.040628
C33   C     C_R   0.064832 0.935361 0.559313 0.041392
C34   C     C_R   0.938379 0.935532 0.440872 0.236289
Cu1   Cu    Cu3+1 0.140660 0.500020 0.500000 0.934899
Cu2   Cu    Cu3+1 0.859340 0.499980 0.500000 0.974053
H1    H     H_    0.808375 0.440654 0.087280 0.112660
H2    H     H_    0.452048 0.600042 0.840864 0.104804
H3    H     H_    0.578772 0.389613 0.617447 0.112326
H4    H     H_    0.420973 0.611024 0.382867 0.111663
H5    H     H_    0.317908 0.392602 0.618463 0.119085
H6    H     H_    0.681376 0.610923 0.383008 0.125204
H7    H     H_    0.911894 0.111452 0.320405 0.234572
H8    H     H_    0.752848 0.100852 0.401684 0.255570
H9    H     H_    0.031648 0.815242 0.664247 0.234557
H10   H     H_    0.205690 0.818791 0.597333 0.245315
H11   H     H_    0.930373 0.801847 0.256482 0.136669
H12   H     H_    0.203593 0.623978 0.919429 0.113088
H13   H     H_    0.061979 0.775173 0.318348 0.123348
H14   H     H_    0.042917 0.927361 0.272337 0.102207
H15   H     H_    0.338767 0.170868 0.625897 0.120522
H16   H     H_    0.326917 0.167009 0.512255 0.122147
H17   H     H_    0.330103 0.024990 0.574868 0.134603
H18   H     H_    0.341886 0.455215 0.224287 0.118829
H19   H     H_    0.653850 0.535576 0.773885 0.118941
H20   H     H_    0.916800 0.570281 0.215835 0.119095
H21   H     H_    0.086756 0.452851 0.786511 0.129557
H22   H     H_    0.002933 0.434340 0.949231 0.115840
H23   H     H_    0.005807 0.613715 0.055626 0.111869
H24   H     H_    0.561139 0.468774 0.166233 0.099249
N1    N     N_R   0.352080 0.500030 0.499980 -0.228496
N2    N     N_R   0.647920 0.499970 0.500020 -0.223727
N3    N     N_3   0.860776 0.131381 0.387306 -0.594699
N4    N     N_3   0.114807 0.872582 0.627466 -0.588238
O1    O     O_R   0.118740 0.319660 0.500000 -0.484079
O2    O     O_3   0.135811 0.127901 0.612168 -0.527515
O3    O     O_R   0.881260 0.680340 0.500000 -0.455787
O4    O     O_R   0.881170 0.319630 0.500010 -0.473121
O5    O     O_R   0.118830 0.680370 0.499990 -0.525066
O6    O     O_R   0.055570 0.500030 0.629830 -0.504790
O7    O     O_R   0.944430 0.499970 0.370170 -0.500171
O8    O     O_R   0.818000 0.500000 0.629840 -0.520003
O9    O     O_R   0.182000 0.500000 0.370160 -0.519920
O10   O     O_3   0.874447 0.872917 0.383581 -0.559207

loop_
_geom_bond_atom_site_label_1
_geom_bond_atom_site_label_2
_ccdc_geom_bond_type
C21   C26   A    
C11   C18   A    
C2    C4    A    
Cu1   Cu2   S    
C9    O8    A    
C12   O5    A    
Cu2   O3    S    
H7    N3    S    
C6    N1    A    
C19   C21   A    
C8    H6    S    
C28   H15   S    
C20   C25   A    
C3    C33   A    
C1    O4    A    
C23   C26   A    
C7    N1    A    
C3    C12   S    
Cu1   O6    S    
C29   H2    S    
C1    O1    A    
C14   C16   A    
C27   O10   S    
C27   H14   S    
C10   O7    A    
Cu2   N2    S    
H8    N3    S    
C25   C29   A    
C23   H24   S    
C14   H22   S    
C12   O3    A    
C13   C19   A    
C23   C30   A    
C9    O6    A    
Cu2   O7    S    
C5    C7    A    
C6    C8    A    
C3    C34   A    
C25   C26   A    
C30   H1    S    
H10   N4    S    
C32   C34   A    
C28   O2    S    
C11   C16   A    
Cu1   N1    S    
C9    C11   S    
C17   H20   S    
C4    C32   A    
C18   H19   S    
C34   O10   S    
C2    C33   A    
C15   C24   A    
C20   C22   A    
C31   H12   S    
C5    H3    S    
C6    H4    S    
C19   H18   S    
C27   H11   S    
C15   C17   A    
Cu1   O9    S    
C22   C30   A    
C15   H23   S    
C32   N3    S    
C2    O2    S    
C10   C13   S    
C28   H17   S    
Cu2   O4    S    
H9    N4    S    
C13   C17   A    
C1    C4    S    
C14   C22   A    
C24   C31   A    
C29   C31   A    
C28   H16   S    
C33   N4    S    
C10   O9    A    
C5    N2    A    
C18   C20   A    
C16   H21   S    
C7    H5    S    
C27   H13   S    
Cu1   O5    S    
C21   C24   A    
Cu1   O1    S    
Cu2   O8    S    
C8    N2    A    
