data_mof_unit_48804.cif
_audit_creation_date              2012-12-10T19:01:21-0500
_audit_creation_method            fapswitch 2.2
_symmetry_space_group_name_H-M    P1
_symmetry_Int_Tables_number       1
_space_group_crystal_system       triclinic
_cell_length_a                    9.588181
_cell_length_b                    10.809668
_cell_length_c                    15.383014
_cell_angle_alpha                 89.85781
_cell_angle_beta                  73.971475
_cell_angle_gamma                 90.55934
_cell_volume                      1532.29575408

loop_
_atom_site_label
_atom_site_type_symbol
_atom_type_description
_atom_site_fract_x
_atom_site_fract_y
_atom_site_fract_z
_atom_type_partial_charge
C1    C     C_R   0.999034 0.262769 0.501035 0.847658
C2    C     C_R   0.677146 0.471193 0.912245 0.088564
C3    C     C_R   0.775881 0.505585 0.961610 0.101069
C4    C     C_R   0.531148 0.441050 0.959143 0.045844
C5    C     C_R   0.481358 0.462156 0.053929 0.012616
C6    C     C_R   0.585936 0.481655 0.103417 0.128677
C7    C     C_R   0.729955 0.509766 0.055772 -0.193674
C8    C     C_R   0.434566 0.385616 0.915188 -0.189615
C9    C     C_R   0.292249 0.356319 0.962312 -0.214154
C10   C     C_R   0.238306 0.390966 0.052287 0.165688
C11   C     C_R   0.329327 0.454718 0.095837 0.102390
C12   C     C_R   0.917785 0.500118 0.672531 0.798797
C13   C     C_R   0.095657 0.360034 0.100701 -0.171963
C14   C     C_R   0.044379 0.393507 0.191317 -0.116771
C15   C     C_R   0.264036 0.510309 0.179381 -0.265997
C16   C     C_R   0.122670 0.065345 0.464274 0.041952
C17   C     C_R   0.997423 0.129829 0.506058 -0.097152
C18   C     C_R   0.875522 0.064966 0.558193 -0.230419
C19   C     C_R   0.875421 0.935524 0.560577 0.366397
C20   C     C_R   0.998215 0.871057 0.508859 -0.128042
C21   C     C_R   0.123671 0.938082 0.466049 -0.016753
C22   C     C_3   0.216898 0.931697 0.370518 -0.452506
C23   C     C_R   0.999499 0.737522 0.502062 0.866910
C24   C     C_3   0.215778 0.072006 0.368736 0.236399
C25   C     C_R   0.603474 0.561690 0.434304 0.220106
C26   C     C_R   0.547031 0.429655 0.559712 -0.055455
C27   C     C_R   0.398373 0.429761 0.559777 -0.062567
C28   C     C_R   0.456546 0.561379 0.434256 0.191054
C29   C     C_3   0.461317 0.695955 0.413114 -0.546173
C30   C     C_3   0.619320 0.696753 0.413947 0.182861
C31   C     C_R   0.081898 0.496293 0.327770 0.838016
C32   C     C_R   0.871885 0.499410 0.772055 -0.044367
C33   C     C_R   0.126463 0.472429 0.230290 -0.023129
C34   C     C_R   0.921723 0.531575 0.916294 -0.174398
C35   C     C_R   0.969738 0.527313 0.822179 -0.178743
C36   C     C_R   0.726901 0.472051 0.817198 -0.206817
Cu1   Cu    Cu3+1 0.140670 0.499980 0.500000 0.957255
Cu2   Cu    Cu3+1 0.859330 0.500020 0.500000 1.001826
H1    H     H_    0.808680 0.531647 0.092321 0.180088
H2    H     H_    0.027565 0.303902 0.070346 0.147417
H3    H     H_    0.780412 0.114524 0.595942 0.173697
H4    H     H_    0.326578 0.896523 0.365761 0.176497
H5    H     H_    0.160850 0.886184 0.324519 0.238077
H6    H     H_    0.323583 0.115448 0.362954 0.124652
H7    H     H_    0.579853 0.374354 0.609218 0.132280
H8    H     H_    0.320316 0.374715 0.609376 0.136800
H9    H     H_    0.444954 0.712859 0.345413 0.210957
H10   H     H_    0.322128 0.577892 0.207891 0.144199
H11   H     H_    0.391331 0.750718 0.469168 0.208270
H12   H     H_    0.639982 0.752604 0.469666 0.190158
H13   H     H_    0.945092 0.352431 0.232248 0.174031
H14   H     H_    0.223438 0.308478 0.927683 0.148856
H15   H     H_    0.998783 0.555215 0.953748 0.149401
H16   H     H_    0.082484 0.548378 0.788668 0.160495
H17   H     H_    0.653468 0.455078 0.776608 0.145939
H18   H     H_    0.468385 0.356499 0.845601 0.138067
N1    N     N_R   0.648210 0.500930 0.499430 -0.201223
N2    N     N_R   0.352300 0.500890 0.499430 -0.178055
O1    O     O_R   0.118810 0.319640 0.500000 -0.587368
O2    O     O_R   0.881230 0.319680 0.499990 -0.580922
O3    O     O_R   0.055580 0.499970 0.629840 -0.591829
O4    O     O_R   0.818000 0.500010 0.629830 -0.574179
O5    O     O_R   0.118770 0.680320 0.500010 -0.586979
O6    O     O_R   0.881190 0.680360 0.500000 -0.533019
O7    O     O_R   0.182000 0.499990 0.370170 -0.584577
O8    O     O_R   0.944420 0.500030 0.370160 -0.557680
Cl1   Cl    Cl    0.720570 0.859282 0.629350 -0.633744
Cl2   Cl    Cl    0.124479 0.131534 0.290980 -0.619348
Cl3   Cl    Cl    0.742508 0.727301 0.305607 -0.615324
C37   C     C_3   0.550664 0.458400 0.205220 -0.386757
C38   C     C_3   0.669464 0.393599 0.235581 -0.812399
H19   H     H_    0.717771 0.317972 0.188388 0.260241
H20   H     H_    0.752708 0.463234 0.239855 0.273098
H21   H     H_    0.624094 0.353422 0.304261 0.245816
H22   H     H_    0.529497 0.548009 0.240935 0.224192
H23   H     H_    0.454365 0.396646 0.228291 0.234791

loop_
_geom_bond_atom_site_label_1
_geom_bond_atom_site_label_2
_ccdc_geom_bond_type
C31   O8    A    
C16   C21   A    
C19   C20   A    
C4    C8    A    
C8    H18   S    
C14   C33   A    
C29   H11   S    
C25   C28   A    
C26   C27   A    
Cu1   Cu2   S    
C29   H9    S    
C32   C36   A    
C28   C29   S    
C5    C11   A    
C3    C7    A    
C1    O1    A    
C5    C6    A    
C16   C17   A    
C31   O7    A    
C34   C35   A    
C13   H2    S    
C26   H7    S    
C11   C15   A    
Cu2   O8    S    
C8    C9    A    
Cu1   O7    S    
C31   C33   S    
C19   Cl1   S    
C37   C38   S    
C9    C10   A    
Cu1   N2    S    
C23   O5    A    
C30   H12   S    
C16   C24   S    
C21   C22   S    
C12   C32   S    
C35   H16   S    
C9    H14   S    
C25   N1    A    
C15   H10   S    
Cu1   O5    S    
Cu2   O6    S    
C32   C35   A    
C18   H3    S    
C38   H20   S    
C18   C19   A    
C3    C34   A    
C27   N2    A    
C2    C4    A    
C29   C30   S    
Cu2   N1    S    
C12   O4    A    
C14   H13   S    
C20   C23   S    
C17   C18   A    
Cu1   O1    S    
Cu2   O2    S    
C27   H8    S    
C23   O6    A    
C37   H23   S    
C24   H6    S    
C22   C24   S    
C1    O2    A    
C30   Cl3   S    
C2    C36   A    
C25   C30   S    
C6    C37   S    
C4    C5    A    
C10   C13   A    
C38   H21   S    
Cu1   O3    S    
C6    C7    A    
C28   N2    A    
C1    C17   S    
C2    C3    A    
C38   H19   S    
C36   H17   S    
C12   O3    A    
C22   H4    S    
C26   N1    A    
C10   C11   A    
C24   Cl2   S    
C20   C21   A    
C34   H15   S    
C37   H22   S    
C7    H1    S    
C13   C14   A    
C15   C33   A    
C22   H5    S    
Cu2   O4    S    
