data_mof_unit_56362.cif
_audit_creation_date              2012-12-10T17:19:55-0500
_audit_creation_method            fapswitch 2.2
_symmetry_space_group_name_H-M    P1
_symmetry_Int_Tables_number       1
_space_group_crystal_system       triclinic
_cell_length_a                    9.606483
_cell_length_b                    10.849279
_cell_length_c                    15.574894
_cell_angle_alpha                 85.337879
_cell_angle_beta                  73.758184
_cell_angle_gamma                 89.239362
_cell_volume                      1553.25131011

loop_
_atom_site_label
_atom_site_type_symbol
_atom_type_description
_atom_site_fract_x
_atom_site_fract_y
_atom_site_fract_z
_atom_type_partial_charge
C1    C     C_R   0.004086 0.262590 0.495447 0.784229
C2    C     C_R   0.662614 0.464615 0.903799 0.087115
C3    C     C_R   0.753448 0.403829 0.951530 0.173863
C4    C     C_R   0.510704 0.476221 0.947192 0.006630
C5    C     C_R   0.462485 0.452499 0.042490 0.067178
C6    C     C_R   0.557362 0.395097 0.087649 -0.215125
C7    C     C_R   0.698007 0.365976 0.041964 -0.251074
C8    C     C_R   0.402624 0.501232 0.900772 -0.028634
C9    C     C_R   0.256831 0.507994 0.948308 -0.263651
C10   C     C_R   0.213002 0.494708 0.041418 0.117919
C11   C     C_R   0.316250 0.475023 0.089585 0.088297
C12   C     C_R   0.917644 0.498169 0.671912 0.791292
C13   C     C_R   0.065279 0.493939 0.086590 -0.221453
C14   C     C_R   0.017479 0.478587 0.180321 0.090383
C15   C     C_R   0.269665 0.478770 0.183466 -0.273204
C16   C     C_R   0.275299 0.110168 0.487776 -0.178814
C17   C     C_R   0.381435 0.045004 0.517402 -0.171738
C18   C     C_R   0.350119 0.927917 0.561310 -0.119142
C19   C     C_R   0.218211 0.871168 0.567237 -0.157504
C20   C     C_R   0.115123 0.931709 0.529193 0.092569
C21   C     C_R   0.134430 0.058912 0.502381 0.109239
C22   C     C_R   0.011888 0.127928 0.491791 -0.117897
C23   C     C_R   0.996310 0.736314 0.507679 0.805418
C24   C     C_R   0.886539 0.065593 0.489135 -0.218548
C25   C     C_R   0.880413 0.937967 0.497294 -0.211067
C26   C     C_R   0.994619 0.869716 0.515727 -0.112573
C27   C     C_R   0.697199 0.681180 0.395361 -0.159344
C28   C     C_R   0.651941 0.789113 0.360118 -0.262692
C29   C     C_R   0.509557 0.800925 0.362233 -0.206087
C30   C     C_R   0.413219 0.700815 0.393307 0.002786
C31   C     C_R   0.449062 0.594804 0.447738 0.143321
C32   C     C_R   0.598957 0.591290 0.448544 0.185557
C33   C     C_R   0.553546 0.411021 0.547089 -0.026021
C34   C     C_R   0.081099 0.492703 0.328273 0.808111
C35   C     C_R   0.405866 0.411127 0.547227 -0.058696
C36   C     C_R   0.870289 0.480271 0.770080 -0.056161
C37   C     C_R   0.121818 0.483519 0.229724 -0.069451
C38   C     C_R   0.899307 0.380635 0.908147 -0.223721
C39   C     C_R   0.956675 0.416438 0.817339 -0.193430
C40   C     C_R   0.728494 0.511687 0.815047 -0.230920
Cu1   Cu    Cu3+1 0.140660 0.499990 0.500010 0.938682
Cu2   Cu    Cu3+1 0.859340 0.500010 0.499990 0.939430
H1    H     H_    0.764755 0.314920 0.077940 0.147590
H2    H     H_    0.986712 0.499530 0.048262 0.138703
H3    H     H_    0.792989 0.115503 0.479398 0.160724
H4    H     H_    0.308839 0.197728 0.450165 0.168028
H5    H     H_    0.487336 0.086331 0.507462 0.128307
H6    H     H_    0.429991 0.879167 0.587947 0.145483
H7    H     H_    0.197727 0.780520 0.602782 0.162783
H8    H     H_    0.785589 0.892841 0.489153 0.173582
H9    H     H_    0.591667 0.338303 0.586368 0.143591
H10   H     H_    0.811418 0.671971 0.378033 0.212722
H11   H     H_    0.729642 0.860712 0.325447 0.163851
H12   H     H_    0.348301 0.480651 0.221222 0.157399
H13   H     H_    0.479990 0.884181 0.327828 0.156937
H14   H     H_    0.333993 0.338732 0.586681 0.141876
H15   H     H_    0.175675 0.521994 0.911984 0.154747
H16   H     H_    0.967961 0.331915 0.944004 0.139348
H17   H     H_    0.066828 0.391360 0.783703 0.160653
H18   H     H_    0.673194 0.575026 0.779354 0.162886
H19   H     H_    0.520701 0.363303 0.157640 0.139459
N1    N     N_R   0.648320 0.501210 0.499140 -0.198272
N2    N     N_R   0.352470 0.501290 0.499110 -0.202240
O1    O     O_R   0.118810 0.319640 0.500010 -0.598466
O2    O     O_R   0.881240 0.319660 0.500000 -0.584828
O3    O     O_R   0.055570 0.499980 0.629840 -0.582073
O4    O     O_R   0.818000 0.500010 0.629830 -0.559474
O5    O     O_R   0.118760 0.680340 0.500000 -0.591683
O6    O     O_R   0.881190 0.680360 0.499990 -0.595296
O7    O     O_R   0.182000 0.499990 0.370170 -0.584253
O8    O     O_R   0.944430 0.500020 0.370160 -0.606714
C41   C     C_1   0.302883 0.715324 0.347140 0.338906
N3    N     N_1   0.218519 0.736104 0.307438 -0.327786
C42   C     C_3   0.857807 0.447763 0.222773 -0.387841
C43   C     C_3   0.838663 0.312970 0.264010 -0.307166
C44   C     C_3   0.681449 0.282222 0.315271 -0.850669
H20   H     H_    0.612362 0.286996 0.269017 0.239524
H21   H     H_    0.674125 0.186911 0.348237 0.229605
H22   H     H_    0.640144 0.347505 0.367477 0.262442
H23   H     H_    0.875138 0.249461 0.209687 0.202588
H24   H     H_    0.906334 0.294703 0.310816 0.225481
H25   H     H_    0.805533 0.514324 0.271533 0.218615
H26   H     H_    0.796795 0.459083 0.172008 0.185048
C45   C     C_1   0.428649 0.503975 0.804951 0.207256
N4    N     N_1   0.447336 0.507141 0.728206 -0.296446

loop_
_geom_bond_atom_site_label_1
_geom_bond_atom_site_label_2
_ccdc_geom_bond_type
C8    C9    A    
C16   C21   A    
C40   H18   S    
C34   C37   S    
Cu1   Cu2   S    
C23   O6    A    
C19   C20   A    
C44   H22   S    
C42   H26   S    
C4    C8    A    
C24   H3    S    
C14   C42   S    
C6    H19   S    
C28   C29   A    
C44   H21   S    
C5    C11   A    
C3    C7    A    
C5    C6    A    
C18   C19   A    
C23   C26   S    
C25   H8    S    
C15   C37   A    
C38   H16   S    
C11   C15   A    
C45   N4    T    
C3    C38   A    
C16   C17   A    
Cu2   O2    S    
C1    O2    A    
C7    H1    S    
C12   C36   S    
C43   H23   S    
Cu2   N1    S    
C41   N3    T    
C27   C32   A    
C1    C22   S    
C21   C22   A    
C42   H25   S    
Cu1   O5    S    
C38   C39   A    
C12   O4    A    
C42   C43   S    
C15   H12   S    
C31   N2    A    
C36   C40   A    
C24   C25   A    
C16   H4    S    
C33   N1    A    
C29   H13   S    
C25   C26   A    
C12   O3    A    
Cu2   O6    S    
C23   O5    A    
C2    C4    A    
C43   C44   S    
C29   C30   A    
C19   H7    S    
C31   C32   A    
C39   H17   S    
C17   C18   A    
C44   H20   S    
C6    C7    A    
Cu2   O4    S    
C22   C24   A    
Cu1   N2    S    
C1    O1    A    
C27   H10   S    
C9    C10   A    
C34   O7    A    
C35   H14   S    
C8    C45   S    
C36   C39   A    
C43   H24   S    
C17   H5    S    
C4    C5    A    
C10   C13   A    
C18   H6    S    
C30   C41   S    
C28   H11   S    
Cu1   O3    S    
C33   H9    S    
C2    C3    A    
C32   N1    A    
C14   C37   A    
C30   C31   A    
C20   C26   A    
Cu2   O8    S    
C33   C35   A    
C9    H15   S    
C10   C11   A    
C2    C40   A    
C20   C21   A    
C27   C28   A    
C35   N2    A    
Cu1   O1    S    
C13   C14   A    
C34   O8    A    
C13   H2    S    
Cu1   O7    S    
