data_mof_unit_59422.cif
_audit_creation_date              2013-03-05T15:59:22-0500
_audit_creation_method            fapswitch 2.2
_symmetry_space_group_name_H-M    P1
_symmetry_Int_Tables_number       1
_space_group_crystal_system       triclinic
_cell_length_a                    10.503055
_cell_length_b                    12.619125
_cell_length_c                    13.135067
_cell_angle_alpha                 82.301908
_cell_angle_beta                  90.656852
_cell_angle_gamma                 102.042236
_cell_volume                      1687.01454037

loop_
_atom_site_label
_atom_site_type_symbol
_atom_site_description
_atom_site_fract_x
_atom_site_fract_y
_atom_site_fract_z
_atom_type_partial_charge
O1    O     O_R   0.467970 0.366730 0.627150 -0.616211
O2    O     O_R   0.510820 0.544830 0.662520 -0.624190
C1    C     C_R   0.479911 0.438944 0.691051 0.841121
O3    O     O_R   0.664630 0.410960 0.482340 -0.628925
O4    O     O_R   0.707470 0.589060 0.517710 -0.586889
C2    C     C_R   0.741963 0.499854 0.501054 0.875013
Zn1   Zn    Zn3+2 0.471390 0.381080 0.476380 0.940516
Zn2   Zn    Zn3+2 0.528610 0.618920 0.523620 0.951110
O5    O     O_R   0.489180 0.455170 0.337480 -0.617599
O6    O     O_R   0.532030 0.633270 0.372850 -0.623654
O7    O     O_R   0.292530 0.410940 0.482290 -0.617078
O8    O     O_R   0.335370 0.589040 0.517660 -0.647854
C3    C     C_R   0.513840 0.560973 0.308839 0.879059
C4    C     C_R   0.257980 0.500239 0.498667 0.866717
C5    C     C_3   0.933460 0.397952 0.493943 -0.152590
C6    C     C_3   0.027569 0.432482 0.580446 -0.170590
H1    H     H_    0.054694 0.377343 0.646477 0.138926
H2    H     H_    0.875385 0.314284 0.490297 0.156994
C7    C     C_3   0.122790 0.500866 0.497905 0.000435
C8    C     C_3   0.031502 0.466350 0.411180 -0.197962
C9    C     C_3   0.973116 0.567244 0.418774 -0.005015
C10   C     C_3   0.067091 0.603084 0.504167 -0.143568
C11   C     C_3   0.969079 0.534209 0.586773 -0.186983
C12   C     C_3   0.877279 0.499784 0.500420 -0.063599
H3    H     H_    0.061688 0.439313 0.339818 0.166246
H4    H     H_    0.125096 0.686864 0.507455 0.173435
H5    H     H_    0.939190 0.561452 0.658109 0.148018
C13   C     C_R   0.414691 0.704625 0.063012 -0.143002
H6    H     H_    0.447099 0.748844 0.214564 0.193033
H7    H     H_    0.324321 0.704126 0.872486 0.155488
H8    H     H_    0.376198 0.776460 0.036010 0.175692
C14   C     C_R   0.504415 0.596597 0.199953 -0.077955
C15   C     C_R   0.495875 0.299418 0.838274 -0.195232
C16   C     C_R   0.506725 0.270377 0.943162 -0.124316
C17   C     C_R   0.494929 0.344186 0.010408 -0.179885
C18   C     C_R   0.465431 0.447083 0.973432 0.085551
C19   C     C_R   0.433946 0.468245 0.869282 0.084906
C20   C     C_R   0.466391 0.529852 0.036160 0.078186
C21   C     C_R   0.416390 0.623888 0.999470 0.144783
C22   C     C_R   0.367144 0.634945 0.900665 -0.233662
C23   C     C_R   0.375485 0.557970 0.836226 -0.198312
C24   C     C_R   0.518288 0.522473 0.134028 -0.236209
C25   C     C_R   0.457058 0.690186 0.163866 -0.142141
C26   C     C_R   0.463888 0.399802 0.800618 -0.112426
H9    H     H_    0.565969 0.456839 0.162747 0.157039
H10   H     H_    0.516503 0.244886 0.786502 0.155079
H11   H     H_    0.506194 0.317518 0.090902 0.140937
H12   H     H_    0.529973 0.192338 0.972170 0.158236
H13   H     H_    0.334448 0.568911 0.760569 0.171023
C27   C     C_R   0.319650 0.090663 0.345329 -0.230083
H14   H     H_    0.295540 0.256278 0.333143 0.140082
H15   H     H_    0.246780 0.071152 0.288142 0.199138
N1    N     N_R   0.432930 0.222190 0.444670 -0.102971
C28   C     C_R   0.652598 0.798788 0.630780 0.056544
C29   C     C_R   0.684754 0.903167 0.658688 -0.247346
C30   C     C_R   0.627788 0.985177 0.608078 -0.179590
C31   C     C_R   0.537835 0.962835 0.528671 0.021308
C32   C     C_R   0.508652 0.855140 0.503341 0.187073
C33   C     C_R   0.475302 0.042291 0.474425 -0.054235
C34   C     C_R   0.386359 0.013197 0.394798 0.054110
C35   C     C_R   0.363364 0.906701 0.368305 0.243924
C36   C     C_R   0.421723 0.829062 0.424735 -0.314536
C37   C     C_R   0.496998 0.150360 0.496478 -0.019748
C38   C     C_R   0.345222 0.195485 0.371371 -0.007006
N2    N     N_R   0.566370 0.776980 0.554790 -0.117666
H16   H     H_    0.563754 0.180480 0.553845 0.117804
H17   H     H_    0.696402 0.734519 0.669706 0.136102
H18   H     H_    0.656322 0.064585 0.632853 0.131252
H19   H     H_    0.753528 0.920508 0.719344 0.154188
H20   H     H_    0.399633 0.748669 0.403806 0.235258
N3    N     N_R   0.284105 0.876276 0.282592 0.194151
O9    O     O_R   0.209762 0.779285 0.288409 -0.416421
O10   O     O_R   0.306552 0.935153 0.192921 -0.421285
C39   C     C_2   0.936081 0.641417 0.329667 0.963344
O11   O     O_2   0.951713 0.623686 0.241912 -0.604959
O12   O     O_R   0.883418 0.730319 0.347643 -0.779203
H21   H     H_    0.861274 0.773910 0.281709 0.349076

loop_
_geom_bond_atom_site_label_1
_geom_bond_atom_site_label_2
_geom_bond_distance
_ccdc_geom_bond_type
C32   C36   1.397141 A    
C5    H2    1.110521 S    
C29   C30   1.391351 A    
C27   C38   1.381924 A    
C3    C14   1.449309 S    
C7    C8    1.529801 S    
C17   H11   1.078678 S    
C28   N2    1.356867 A    
Zn1   O7    1.995899 S    
C39   O12   1.397549 S    
C18   C19   1.407394 A    
C20   C24   1.389731 A    
O4    C2    1.297802 A    
O7    C4    1.298142 A    
C31   C33   1.420228 A    
C8    H3    1.110474 S    
C5    C6    1.544363 S    
C30   C31   1.415987 A    
C36   H20   1.064711 S    
C16   C17   1.390722 A    
O5    C3    1.309429 A    
C17   C18   1.418927 A    
C6    H1    1.110377 S    
C27   H15   1.080908 S    
C11   C12   1.528745 S    
C11   H5    1.110299 S    
C35   N3    1.438361 S    
C37   H16   1.075765 S    
Zn2   N2    2.046519 S    
C9    C10   1.536580 S    
H6    C25   1.080856 S    
C15   H10   1.083452 S    
O3    Zn1   1.988103 S    
C23   H13   1.081963 S    
C5    C8    1.546142 S    
C1    C26   1.457374 S    
C39   O11   1.222472 D    
C7    C10   1.535332 S    
O12   H21   1.013838 S    
O3    C2    1.291359 A    
C21   C22   1.391949 A    
N3    O10   1.301428 A    
C28   H17   1.081686 S    
C13   C21   1.403813 A    
C30   H18   1.076871 S    
C9    C39   1.498429 S    
C34   C35   1.404776 A    
O1    C1    1.305929 A    
C24   H9    1.078949 S    
C32   N2    1.363271 A    
Zn2   O8    1.988105 S    
C2    C12   1.421541 S    
C15   C16   1.387066 A    
H7    C22   1.083918 S    
C29   H19   1.082584 S    
C22   C23   1.387474 A    
O8    C4    1.291830 A    
C6    C11   1.546288 S    
C16   H12   1.082725 S    
Zn1   N1    2.058837 S    
Zn1   O5    1.927599 S    
C28   C29   1.387178 A    
C5    C12   1.534133 S    
O1    Zn1   1.964383 S    
C15   C26   1.402894 A    
C4    C7    1.421489 S    
C13   H8    1.083747 S    
O2    Zn2   1.927597 S    
H14   C38   1.082028 S    
O6    C3    1.305699 A    
O4    Zn2   1.995896 S    
C13   C25   1.393466 A    
C33   C37   1.403660 A    
C27   C34   1.404958 A    
C19   C26   1.409546 A    
C18   C20   1.412748 A    
O2    C1    1.311057 A    
N3    O9    1.300428 A    
N1    C37   1.347686 A    
C31   C32   1.413003 A    
C20   C21   1.420288 A    
C6    C7    1.527893 S    
N1    C38   1.351368 A    
C14   C25   1.398787 A    
C19   C23   1.414147 A    
C35   C36   1.389462 A    
C33   C34   1.427849 A    
C8    C9    1.538920 S    
Zn2   O6    1.964385 S    
C10   H4    1.110690 S    
C9    C12   1.520062 S    
C14   C24   1.386624 A    
C10   C11   1.546629 S    
