data_mof_unit_29911.cif
_audit_creation_date              2012-10-26T20:03:42-0400
_audit_creation_method            fapswitch 2.2
_symmetry_space_group_name_H-M    P1
_symmetry_Int_Tables_number       1
_space_group_crystal_system       triclinic
_cell_length_a                    12.314603
_cell_length_b                    13.130314
_cell_length_c                    15.82878
_cell_angle_alpha                 77.355524
_cell_angle_beta                  101.29652
_cell_angle_gamma                 116.60725
_cell_volume                      2218.79061221

loop_
_atom_site_label
_atom_site_type_symbol
_atom_type_description
_atom_site_fract_x
_atom_site_fract_y
_atom_site_fract_z
_atom_type_partial_charge
C1    C     C_R   0.854642 0.286137 0.508312 0.531146
C2    C     C_R   0.227336 0.835989 0.472365 -0.006733
C3    C     C_R   0.808916 0.084359 0.575531 -0.138867
C4    C     C_R   0.000039 0.500351 0.659890 0.546165
C5    C     C_R   0.723194 0.978373 0.612028 0.001921
C6    C     C_R   0.598467 0.958039 0.598264 0.012036
C7    C     C_R   0.558747 0.020692 0.522180 0.022473
C8    C     C_R   0.646658 0.125508 0.483525 -0.006581
C9    C     C_R   0.435341 0.984628 0.484462 0.006775
C10   C     C_R   0.397239 0.060923 0.421277 0.054797
C11   C     C_R   0.486369 0.163664 0.381787 -0.005962
C12   C     C_3   0.004470 0.505634 0.916239 0.039428
C13   C     C_R   0.609609 0.191383 0.410786 -0.109782
C14   C     C_R   0.351089 0.870194 0.501606 -0.140882
C15   C     C_R   0.186514 0.916755 0.422746 -0.147752
C16   C     C_R   0.145076 0.713717 0.487240 0.545860
C17   C     C_R   0.770547 0.162912 0.518899 -0.026765
C18   C     C_R   0.345475 0.326592 0.638182 -0.154898
C19   C     C_R   0.760436 0.646874 0.383398 0.043450
C20   C     C_R   0.665653 0.681302 0.359190 -0.170608
C21   C     C_R   0.562925 0.627526 0.404234 -0.145573
C22   C     C_R   0.553745 0.537982 0.474477 -0.016670
C23   C     C_3   0.119023 0.570327 0.033517 -0.112344
C24   C     C_R   0.654067 0.506556 0.497589 0.169226
C25   C     C_R   0.448472 0.477170 0.521517 -0.016363
C26   C     C_R   0.446808 0.387917 0.591146 0.034380
C27   C     C_R   0.546097 0.360056 0.613519 -0.178644
C28   C     C_R   0.000712 0.500852 0.339937 0.547359
C29   C     C_R   0.647383 0.418154 0.567963 -0.098693
C30   C     C_R   0.343378 0.499774 0.502292 0.039127
C31   C     C_R   0.245573 0.353363 0.616209 0.039182
C32   C     C_3   0.966868 0.397764 0.040972 0.021741
C33   C     C_3   0.889891 0.441135 0.965295 -0.091768
C34   C     C_3   0.004654 0.505880 0.082541 0.037549
C35   C     C_1   0.001031 0.502490 0.749218 -0.049378
C36   C     C_1   0.002445 0.503044 0.250096 -0.046513
C37   C     C_3   0.080459 0.461815 0.991049 0.037333
C38   C     C_3   0.521451 0.894578 0.674755 -0.256603
C39   C     C_3   0.460351 0.963249 0.697788 -0.291396
C40   C     C_3   0.393834 0.901718 0.778792 -0.463195
C41   C     C_3   0.767412 0.891446 0.667916 -0.264302
C42   C     C_3   0.828892 0.851850 0.614265 -0.294539
C43   C     C_3   0.864718 0.757538 0.668014 -0.441153
C44   C     C_3   0.923513 0.276053 0.092684 -0.256473
C45   C     C_3   0.043079 0.614923 0.956975 -0.109217
C46   C     C_3   0.869959 0.183508 0.032878 -0.299042
C47   C     C_3   0.828553 0.062995 0.085721 -0.459225
C48   C     C_3   0.844801 0.601641 0.018200 -0.253340
C49   C     C_3   0.784171 0.637237 0.929777 -0.297919
C50   C     C_3   0.704740 0.694489 0.940382 -0.463491
C51   C     C_3   0.167459 0.412162 0.980455 -0.251706
C52   C     C_3   0.279432 0.504372 0.936945 -0.294418
C53   C     C_3   0.361127 0.452199 0.921500 -0.458075
C54   C     C_3   0.454513 0.239195 0.303084 -0.264312
C55   C     C_3   0.422110 0.325773 0.331025 -0.286204
C56   C     C_3   0.929566 0.549976 0.007351 0.021070
C57   C     C_3   0.377538 0.393997 0.252687 -0.453266
C58   C     C_1   0.002407 0.504337 0.824602 -0.080825
C59   C     C_1   0.003833 0.504902 0.174378 -0.082051
C60   C     C_R   0.271117 0.027702 0.395202 -0.141084
Cu1   Cu    Cu3+1 0.098270 0.475420 0.519690 0.917909
Cu2   Cu    Cu3+1 0.901730 0.524580 0.480310 0.898128
H1    H     H_    0.382974 0.805488 0.532807 0.131651
H2    H     H_    0.796249 0.389166 0.936181 0.088936
H3    H     H_    0.905334 0.108454 0.596391 0.122236
H4    H     H_    0.321622 0.815151 0.767630 0.155151
H5    H     H_    0.459144 0.892165 0.835834 0.144735
H6    H     H_    0.350210 0.952801 0.793520 0.135156
H7    H     H_    0.531085 0.050011 0.710156 0.157541
H8    H     H_    0.392639 0.974829 0.643772 0.176904
H9    H     H_    0.453785 0.806476 0.664712 0.133946
H10   H     H_    0.581222 0.882545 0.734706 0.134283
H11   H     H_    0.929464 0.789402 0.725918 0.137880
H12   H     H_    0.343542 0.258317 0.691549 0.084003
H13   H     H_    0.782402 0.680554 0.689751 0.155852
H14   H     H_    0.909786 0.731800 0.627600 0.178299
H15   H     H_    0.764926 0.817695 0.556531 0.177746
H16   H     H_    0.912466 0.925734 0.590904 0.156870
H17   H     H_    0.832731 0.930676 0.723481 0.131894
H18   H     H_    0.690317 0.813112 0.694729 0.138829
H19   H     H_    0.677079 0.265166 0.375102 0.139183
H20   H     H_    0.166967 0.306430 0.652253 0.116712
H21   H     H_    0.545462 0.292025 0.666845 0.100980
H22   H     H_    0.907221 0.052975 0.128623 0.146523
H23   H     H_    0.336306 0.565497 0.450244 0.118438
H24   H     H_    0.756909 0.047295 0.126284 0.149302
H25   H     H_    0.790038 0.997743 0.040872 0.134394
H26   H     H_    0.790126 0.190302 0.989376 0.155110
H27   H     H_    0.939352 0.195624 0.991761 0.154296
H28   H     H_    0.002098 0.268337 0.137355 0.137719
H29   H     H_    0.852387 0.263423 0.132627 0.142319
H30   H     H_    0.671826 0.749895 0.305316 0.096456
H31   H     H_    0.718357 0.390233 0.590383 0.184888
H32   H     H_    0.632821 0.635033 0.983035 0.150353
H33   H     H_    0.761619 0.774645 0.969374 0.145977
H34   H     H_    0.840084 0.689427 0.348294 0.124120
H35   H     H_    0.660057 0.717072 0.875613 0.132378
H36   H     H_    0.855298 0.698824 0.887103 0.158274
H37   H     H_    0.726228 0.560031 0.897390 0.158144
H38   H     H_    0.773499 0.536744 0.059492 0.139154
H39   H     H_    0.899350 0.678036 0.052043 0.142057
H40   H     H_    0.396496 0.414705 0.984530 0.144722
H41   H     H_    0.309334 0.384030 0.879441 0.151473
H42   H     H_    0.439739 0.520218 0.888191 0.142523
H43   H     H_    0.249896 0.545490 0.873255 0.173570
H44   H     H_    0.333480 0.572155 0.979073 0.149706
H45   H     H_    0.492230 0.657500 0.382524 0.098830
H46   H     H_    0.197737 0.375298 0.045804 0.131460
H47   H     H_    0.117286 0.342071 0.940020 0.136687
H48   H     H_    0.449023 0.441577 0.207536 0.149225
H49   H     H_    0.292951 0.335216 0.217351 0.141176
H50   H     H_    0.356983 0.457170 0.275291 0.150430
H51   H     H_    0.350369 0.281330 0.376170 0.168424
H52   H     H_    0.505156 0.386521 0.365661 0.186422
H53   H     H_    0.533267 0.287791 0.264011 0.131375
H54   H     H_    0.378865 0.185465 0.258571 0.134559
H55   H     H_    0.073932 0.704035 0.920998 0.094021
H56   H     H_    0.212234 0.622903 0.062913 0.095495
H57   H     H_    0.090599 0.891918 0.399602 0.120043
H58   H     H_    0.236742 0.085133 0.351605 0.108629
N1    N     N_R   0.246280 0.438200 0.549540 -0.231212
N2    N     N_R   0.754330 0.561180 0.450980 -0.235121
O1    O     O_R   0.972510 0.318130 0.524770 -0.501084
O2    O     O_R   0.806530 0.359650 0.491510 -0.520409
O3    O     O_R   0.082970 0.479240 0.637550 -0.493476
O4    O     O_R   0.916990 0.520750 0.604290 -0.518647
O5    O     O_R   0.193470 0.640350 0.508490 -0.509440
O6    O     O_R   0.027490 0.681870 0.475230 -0.507220
O7    O     O_R   0.083010 0.479250 0.395710 -0.495506
O8    O     O_R   0.917030 0.520760 0.362450 -0.505784

loop_
_geom_bond_atom_site_label_1
_geom_bond_atom_site_label_2
_ccdc_geom_bond_type
C43   H11   S    
Cu2   O6    S    
C19   N2    A    
C34   C56   S    
C8    C13   A    
C23   C45   S    
C27   C29   A    
C15   C60   A    
Cu2   O8    S    
C19   C20   A    
C18   C26   A    
C48   C56   S    
C36   C59   T    
C23   H56   S    
Cu2   O2    S    
C7    C8    A    
C46   H27   S    
C57   H49   S    
C20   H30   S    
C26   C27   A    
C31   H20   S    
C4    O3    A    
C35   C58   T    
C38   C39   S    
C37   C51   S    
C50   H33   S    
C57   H50   S    
C48   H39   S    
C53   H42   S    
C13   H19   S    
C25   C30   A    
Cu1   N1    S    
C28   O7    A    
C41   C42   S    
C12   C37   S    
C24   C29   A    
C49   H36   S    
C54   C55   S    
C45   C56   S    
C51   H46   S    
C22   C25   A    
C54   H54   S    
C6    C38   S    
C60   H58   S    
C2    C16   S    
C9    C10   A    
Cu1   O7    S    
C12   C58   S    
C33   C56   S    
C4    C35   S    
C52   H44   S    
C18   H12   S    
C40   H4    S    
C21   C22   A    
C3    H3    S    
C41   H18   S    
C44   C46   S    
C46   H26   S    
C43   H13   S    
C48   H38   S    
C38   H10   S    
C51   C52   S    
C47   H24   S    
C31   N1    A    
C39   C40   S    
Cu2   O4    S    
C50   H32   S    
C55   H51   S    
C25   C26   A    
C32   C37   S    
C40   H5    S    
C32   C34   S    
C10   C60   A    
C9    C14   A    
C1    O1    A    
C49   H37   S    
C57   H48   S    
C30   N1    A    
C53   H40   S    
C23   C34   S    
C54   H53   S    
C24   N2    A    
C32   C44   S    
Cu1   O5    S    
C47   H22   S    
C30   H23   S    
C2    C15   A    
C16   O6    A    
C21   H45   S    
C44   H29   S    
C11   C54   S    
C48   C49   S    
C52   H43   S    
C42   H16   S    
C55   C57   S    
C34   C59   S    
C22   C24   A    
C42   C43   S    
Cu2   N2    S    
C44   H28   S    
C52   C53   S    
C45   H55   S    
C43   H14   S    
C7    C9    A    
C5    C41   S    
C46   C47   S    
C50   H35   S    
C12   C45   S    
C3    C5    A    
C41   H17   S    
C6    C7    A    
C55   H52   S    
C1    C17   S    
C8    C17   A    
C4    O4    A    
Cu1   O1    S    
C32   C33   S    
C27   H21   S    
C1    O2    A    
C23   C37   S    
C29   H31   S    
C11   C13   A    
C5    C6    A    
C53   H41   S    
C33   H2    S    
C14   H1    S    
C39   H7    S    
C39   H8    S    
C15   H57   S    
C3    C17   A    
C28   O8    A    
Cu1   Cu2   S    
C2    C14   A    
C16   O5    A    
C10   C11   A    
C20   C21   A    
C28   C36   S    
C42   H15   S    
C51   H47   S    
C49   C50   S    
C40   H6    S    
Cu1   O3    S    
C18   C31   A    
C12   C33   S    
C19   H34   S    
C38   H9    S    
C47   H25   S    
