data_mof_unit_62876.cif
_audit_creation_date              2012-12-10T16:54:12-0500
_audit_creation_method            fapswitch 2.2
_symmetry_space_group_name_H-M    P1
_symmetry_Int_Tables_number       1
_space_group_crystal_system       triclinic
_cell_length_a                    18.531981
_cell_length_b                    18.532211
_cell_length_c                    42.97131
_cell_angle_alpha                 89.999697
_cell_angle_beta                  90.00054
_cell_angle_gamma                 89.999039
_cell_volume                      14758.0057762

loop_
_atom_site_label
_atom_site_type_symbol
_atom_type_description
_atom_site_fract_x
_atom_site_fract_y
_atom_site_fract_z
_atom_type_partial_charge
C1    C     C_R   0.500000 1.000000 0.584155 0.481296
C2    C     C_R   0.999971 0.499998 0.281641 0.345334
C3    C     C_R   0.984283 0.563456 0.332512 -0.120831
C4    C     C_R   0.936542 0.515700 0.832511 -0.120813
C5    C     C_R   0.484297 0.936545 0.832512 -0.120813
C6    C     C_R   0.063456 0.484299 0.832512 -0.120811
C7    C     C_R   0.515701 0.063456 0.832512 -0.120832
C8    C     C_R   0.499999 0.000004 0.315965 0.032921
C9    C     C_R   0.999976 0.499999 0.315965 0.032943
C10   C     C_R   0.999999 0.499999 0.815965 0.032927
C11   C     C_R   0.499999 0.000001 0.815965 0.032938
C12   C     C_R   0.499999 0.000001 0.381494 0.036342
C13   C     C_R   0.999999 0.499999 0.781640 0.345346
C14   C     C_R   0.999993 0.500000 0.381494 0.036313
C15   C     C_R   0.999999 0.500000 0.881494 0.036352
C16   C     C_R   0.500000 0.000001 0.881494 0.036339
C17   C     C_3   0.915845 0.609425 0.617229 -0.261589
C18   C     C_3   0.885141 0.671517 0.636621 -0.455200
C19   C     C_3   0.390563 0.915863 0.617231 -0.261413
C20   C     C_3   0.328469 0.885166 0.636624 -0.455117
C21   C     C_3   0.084156 0.390576 0.617230 -0.261590
C22   C     C_3   0.114863 0.328485 0.636623 -0.455199
C23   C     C_3   0.609437 0.084136 0.617231 -0.261413
C24   C     C_R   0.499999 0.000001 0.781641 0.345340
C25   C     C_3   0.671532 0.114832 0.636625 -0.455117
C26   C     C_3   0.415838 0.890584 0.117230 -0.261581
C27   C     C_3   0.385130 0.828495 0.136623 -0.455191
C28   C     C_3   0.109417 0.415846 0.117236 -0.261408
C29   C     C_3   0.171505 0.385143 0.136632 -0.455118
C30   C     C_3   0.584161 0.109419 0.117229 -0.261590
C31   C     C_3   0.614868 0.171510 0.136622 -0.455191
C32   C     C_3   0.890568 0.584159 0.117225 -0.261586
C33   C     C_3   0.828472 0.614867 0.136615 -0.455181
C34   C     C_R   0.958529 0.550319 0.667732 -0.101839
C35   C     C_R   0.449676 0.958536 0.667733 -0.101797
C36   C     C_R   0.041472 0.449682 0.667733 -0.101838
C37   C     C_R   0.550323 0.041463 0.667733 -0.101797
C38   C     C_R   0.458525 0.949688 0.167733 -0.101823
C39   C     C_R   0.050296 0.458527 0.167735 -0.101807
C40   C     C_R   0.541474 0.050317 0.167732 -0.101820
C41   C     C_R   0.000000 0.500000 0.584155 0.481021
C42   C     C_R   0.949661 0.541472 0.167731 -0.101797
C43   C     C_R   0.958522 0.552133 0.635020 -0.003440
C44   C     C_R   0.447862 0.958529 0.635021 -0.003519
C45   C     C_R   0.041480 0.447868 0.635020 -0.003441
C46   C     C_R   0.552138 0.041470 0.635021 -0.003519
C47   C     C_R   0.458518 0.947873 0.135020 -0.003415
C48   C     C_R   0.052119 0.458521 0.135023 -0.003529
C49   C     C_R   0.541481 0.052130 0.135020 -0.003436
C50   C     C_R   0.947855 0.541480 0.135018 -0.003400
C51   C     C_R   0.000001 0.500000 0.618559 0.045817
C52   C     C_R   0.999998 0.500000 0.084155 0.481250
C53   C     C_R   0.500000 1.000000 0.618560 0.045768
C54   C     C_R   0.500000 0.000001 0.118559 0.045830
C55   C     C_R   0.999991 0.500001 0.118560 0.045805
C56   C     C_R   0.000000 0.500000 0.684097 -0.004945
C57   C     C_R   0.500000 1.000000 0.684098 -0.004904
C58   C     C_R   0.499999 0.000003 0.184098 -0.004936
C59   C     C_R   0.999975 0.499999 0.184098 -0.004917
C60   C     C_R   0.500000 0.000000 0.415772 0.504372
C61   C     C_R   0.999999 0.500000 0.415772 0.504324
C62   C     C_R   1.000000 0.500000 0.915772 0.504360
C63   C     C_R   0.500000 0.000000 0.084155 0.481115
C64   C     C_R   0.500000 0.000000 0.915772 0.504334
C65   C     C_R   0.361565 0.138762 0.499941 0.514430
C66   C     C_R   0.861526 0.361282 0.500117 0.514799
C67   C     C_R   0.638435 0.861238 0.499941 0.514429
C68   C     C_R   0.138474 0.638718 0.500117 0.514802
C69   C     C_R   0.638448 0.138742 0.499953 0.512051
C70   C     C_R   0.138456 0.361263 0.500129 0.512487
C71   C     C_R   0.361552 0.861258 0.499953 0.512054
C72   C     C_R   0.861544 0.638737 0.500129 0.512486
C73   C     C_R   0.861263 0.638456 0.000129 0.512372
C74   C     C_R   0.999999 0.500000 0.718468 0.340429
C75   C     C_R   0.361544 0.861263 0.000129 0.512474
C76   C     C_R   0.138448 0.361258 0.999953 0.512046
C77   C     C_R   0.638457 0.138737 0.000129 0.512385
C78   C     C_R   0.138436 0.638762 0.999941 0.514521
C79   C     C_R   0.638762 0.861565 0.999941 0.514541
C80   C     C_R   0.861564 0.361238 0.999941 0.514458
C81   C     C_R   0.361526 0.138718 0.000117 0.514801
C82   C     C_2   0.192915 0.750950 0.481833 -0.157145
C83   C     C_2   0.247872 0.191743 0.482554 -0.157593
C84   C     C_2   0.807084 0.249050 0.481833 -0.157146
C85   C     C_R   0.499999 0.000000 0.718469 0.340430
C86   C     C_2   0.752126 0.808256 0.482554 -0.157592
C87   C     C_2   0.807066 0.750926 0.481820 -0.157047
C88   C     C_2   0.752090 0.191767 0.482540 -0.157708
C89   C     C_2   0.192933 0.249075 0.481820 -0.157046
C90   C     C_2   0.247909 0.808233 0.482540 -0.157709
C91   C     C_2   0.692934 0.250925 0.981820 -0.157034
C92   C     C_2   0.749074 0.692935 0.981819 -0.157108
C93   C     C_2   0.307068 0.749073 0.981821 -0.157120
C94   C     C_2   0.252091 0.308234 0.982540 -0.157712
C95   C     C_2   0.307083 0.250950 0.981832 -0.157143
C96   C     C_R   0.499999 0.000004 0.218468 0.340432
C97   C     C_2   0.252127 0.691744 0.982554 -0.157615
C98   C     C_2   0.691743 0.747875 0.982554 -0.157549
C99   C     C_2   0.747874 0.308254 0.982553 -0.157522
C100  C     C_2   0.193359 0.694434 0.501331 -0.093606
C101  C     C_2   0.308222 0.196032 0.499685 -0.093520
C102  C     C_2   0.806640 0.305566 0.501331 -0.093606
C103  C     C_2   0.691778 0.803968 0.499685 -0.093520
C104  C     C_2   0.806733 0.694527 0.501382 -0.094608
C105  C     C_2   0.691840 0.195953 0.499741 -0.094664
C106  C     C_2   0.193267 0.305473 0.501382 -0.094608
C107  C     C_R   0.999969 0.499997 0.218469 0.340433
C108  C     C_2   0.308159 0.804047 0.499741 -0.094664
C109  C     C_2   0.693270 0.194524 0.001381 -0.094640
C110  C     C_2   0.805473 0.693267 0.001381 -0.094646
C111  C     C_2   0.306731 0.805475 0.001381 -0.094621
C112  C     C_2   0.191839 0.304045 0.999740 -0.094663
C113  C     C_2   0.306643 0.194437 0.001332 -0.093602
C114  C     C_2   0.191780 0.696030 0.999687 -0.093485
C115  C     C_2   0.696032 0.808222 0.999686 -0.093486
C116  C     C_2   0.808221 0.303970 0.999687 -0.093521
C117  C     C_R   0.436437 0.984752 0.364976 -0.126957
C118  C     C_R   0.499998 0.000004 0.281641 0.345349
C119  C     C_R   0.015239 0.436439 0.364976 -0.127096
C120  C     C_R   0.563561 0.015251 0.364977 -0.126957
C121  C     C_R   0.984739 0.563561 0.364977 -0.127095
C122  C     C_R   0.936438 0.515253 0.864976 -0.127012
C123  C     C_R   0.484745 0.936441 0.864977 -0.126999
C124  C     C_R   0.063560 0.484746 0.864977 -0.126950
C125  C     C_R   0.515254 0.063560 0.864977 -0.127102
C126  C     C_R   0.436541 0.984306 0.332511 -0.120810
C127  C     C_R   0.015677 0.436542 0.332512 -0.120830
C128  C     C_R   0.563456 0.015700 0.332512 -0.120810
H1    H     H_    0.150137 0.756430 0.464709 0.155893
H2    H     H_    0.743716 0.650280 0.964631 0.155266
H3    H     H_    0.349726 0.743712 0.964635 0.155242
H4    H     H_    0.261683 0.355137 0.967950 0.155024
H5    H     H_    0.349858 0.256426 0.964707 0.155900
H6    H     H_    0.261819 0.644749 0.968031 0.155394
H7    H     H_    0.644746 0.738183 0.968032 0.155528
H8    H     H_    0.738182 0.355249 0.968030 0.155555
H9    H     H_    0.233783 0.687839 0.519236 0.106436
H10   H     H_    0.320929 0.242614 0.513795 0.107538
H11   H     H_    0.766217 0.312161 0.519235 0.106437
H12   H     H_    0.238177 0.144746 0.468033 0.155419
H13   H     H_    0.679072 0.757386 0.513795 0.107537
H14   H     H_    0.766478 0.688130 0.519374 0.105300
H15   H     H_    0.679249 0.242381 0.513960 0.106759
H16   H     H_    0.233524 0.311870 0.519374 0.105299
H17   H     H_    0.320752 0.757618 0.513960 0.106759
H18   H     H_    0.733531 0.188121 0.019370 0.105277
H19   H     H_    0.811872 0.733522 0.019373 0.105299
H20   H     H_    0.266470 0.811879 0.019370 0.105323
H21   H     H_    0.179244 0.257612 0.013955 0.106759
H22   H     H_    0.266225 0.187848 0.019239 0.106436
H23   H     H_    0.849862 0.243570 0.464709 0.155893
H24   H     H_    0.179077 0.742607 0.013800 0.107595
H25   H     H_    0.742613 0.820926 0.013797 0.107560
H26   H     H_    0.820924 0.257392 0.013800 0.107504
H27   H     H_    0.386700 0.972629 0.377134 0.136073
H28   H     H_    0.027364 0.386702 0.377134 0.135777
H29   H     H_    0.613298 0.027373 0.377135 0.136074
H30   H     H_    0.972619 0.613298 0.377135 0.135777
H31   H     H_    0.886701 0.527378 0.877134 0.135860
H32   H     H_    0.472618 0.886705 0.877135 0.135855
H33   H     H_    0.113297 0.472621 0.877135 0.136067
H34   H     H_    0.761821 0.855254 0.468033 0.155420
H35   H     H_    0.527381 0.113296 0.877135 0.135777
H36   H     H_    0.386739 0.972287 0.320392 0.137489
H37   H     H_    0.027694 0.386739 0.320392 0.137448
H38   H     H_    0.613259 0.027719 0.320393 0.137491
H39   H     H_    0.972261 0.613258 0.320393 0.137448
H40   H     H_    0.886739 0.527722 0.820392 0.137462
H41   H     H_    0.472274 0.886744 0.820393 0.137460
H42   H     H_    0.113258 0.472277 0.820393 0.137487
H43   H     H_    0.527724 0.113257 0.820392 0.137448
H44   H     H_    0.927075 0.588724 0.680890 0.143262
H45   H     H_    0.849720 0.756282 0.464631 0.155345
H46   H     H_    0.411267 0.927089 0.680892 0.143252
H47   H     H_    0.072925 0.411276 0.680891 0.143262
H48   H     H_    0.588732 0.072911 0.680892 0.143253
H49   H     H_    0.427069 0.911286 0.180891 0.143261
H50   H     H_    0.088698 0.427073 0.180895 0.143260
H51   H     H_    0.572929 0.088720 0.180891 0.143262
H52   H     H_    0.911254 0.572927 0.180887 0.143252
H53   H     H_    0.842475 0.651612 0.652612 0.155775
H54   H     H_    0.928712 0.698520 0.650023 0.158740
H55   H     H_    0.860273 0.712021 0.620877 0.145398
H56   H     H_    0.761680 0.144868 0.467947 0.155027
H57   H     H_    0.951737 0.634023 0.599415 0.147114
H58   H     H_    0.870139 0.582978 0.605009 0.179785
H59   H     H_    0.348371 0.842497 0.652614 0.155727
H60   H     H_    0.301472 0.928740 0.650026 0.158704
H61   H     H_    0.287961 0.860305 0.620880 0.145603
H62   H     H_    0.365969 0.951758 0.599417 0.147362
H63   H     H_    0.417006 0.870154 0.605011 0.179976
H64   H     H_    0.157528 0.348391 0.652614 0.155775
H65   H     H_    0.071292 0.301481 0.650025 0.158740
H66   H     H_    0.139732 0.287982 0.620879 0.145398
H67   H     H_    0.150277 0.243718 0.464632 0.155346
H68   H     H_    0.048265 0.365978 0.599416 0.147115
H69   H     H_    0.129862 0.417023 0.605010 0.179784
H70   H     H_    0.651630 0.157501 0.652615 0.155726
H71   H     H_    0.698528 0.071258 0.650027 0.158705
H72   H     H_    0.712041 0.139693 0.620882 0.145603
H73   H     H_    0.634031 0.048240 0.599418 0.147362
H74   H     H_    0.582995 0.129845 0.605011 0.179976
H75   H     H_    0.428700 0.801489 0.150025 0.158771
H76   H     H_    0.342465 0.848404 0.152614 0.155770
H77   H     H_    0.360259 0.787993 0.120879 0.145397
H78   H     H_    0.238318 0.855133 0.467947 0.155026
H79   H     H_    0.370132 0.917035 0.105011 0.179766
H80   H     H_    0.451727 0.865983 0.099416 0.147220
H81   H     H_    0.198503 0.428714 0.150036 0.158707
H82   H     H_    0.151596 0.342476 0.152622 0.155726
H83   H     H_    0.212015 0.360276 0.120891 0.145604
H84   H     H_    0.082973 0.370139 0.105016 0.179980
H85   H     H_    0.134019 0.451736 0.099423 0.147369
H86   H     H_    0.571297 0.198516 0.150023 0.158739
H87   H     H_    0.657533 0.151602 0.152613 0.155781
H88   H     H_    0.639738 0.212011 0.120878 0.145408
H89   H     H_    0.650275 0.256285 0.964633 0.155363
H90   H     H_    0.629867 0.082968 0.105010 0.179803
H91   H     H_    0.548272 0.134019 0.099414 0.147100
H92   H     H_    0.801464 0.571297 0.150015 0.158767
H93   H     H_    0.848376 0.657531 0.152606 0.155775
H94   H     H_    0.787973 0.639737 0.120869 0.145405
H95   H     H_    0.917020 0.629865 0.105007 0.179781
H96   H     H_    0.865973 0.548270 0.099409 0.147199
N1    N     N_R   0.554463 0.031717 0.265542 -0.229516
N2    N     N_R   0.531886 0.054362 0.734576 -0.231104
N3    N     N_R   0.945634 0.531883 0.734575 -0.231105
N4    N     N_R   0.468113 0.945639 0.734576 -0.231101
N5    N     N_R   0.554365 0.031883 0.234576 -0.231093
N6    N     N_R   0.968089 0.554364 0.234576 -0.231096
N7    N     N_R   0.445632 0.968125 0.234575 -0.231103
N8    N     N_R   0.031850 0.445631 0.234576 -0.231105
N9    N     N_R   0.968256 0.554462 0.265542 -0.229528
N10   N     N_R   0.445533 0.968292 0.265542 -0.229517
N11   N     N_R   0.031684 0.445533 0.265542 -0.229533
N12   N     N_R   0.054462 0.468283 0.765542 -0.229519
N13   N     N_R   0.531719 0.054461 0.765543 -0.229529
N14   N     N_R   0.945535 0.531716 0.765541 -0.229527
N15   N     N_R   0.468279 0.945541 0.765543 -0.229529
N16   N     N_R   0.054364 0.468116 0.734576 -0.231103
O1    O     O_3   0.500000 0.000000 0.500000 -0.435229
O2    O     O_R   0.560150 0.000000 0.069320 -0.551374
O3    O     O_R   1.000000 0.560150 0.069320 -0.551383
O4    O     O_R   0.439850 0.000000 0.069320 -0.551653
O5    O     O_R   0.439930 0.000000 0.430670 -0.545263
O6    O     O_R   1.000000 0.439930 0.430670 -0.545508
O7    O     O_R   0.560070 0.000000 0.430670 -0.545261
O8    O     O_R   1.000000 0.560070 0.430670 -0.545508
O9    O     O_R   0.939930 0.500000 0.930670 -0.545417
O10   O     O_R   0.500000 0.939930 0.930670 -0.545338
O11   O     O_R   0.060070 0.500000 0.930670 -0.545226
O12   O     O_3   0.000000 0.500000 0.500000 -0.435287
O13   O     O_R   0.500000 0.060070 0.930670 -0.545552
O14   O     O_R   0.415450 0.144560 0.518170 -0.538594
O15   O     O_R   0.855440 0.415450 0.518170 -0.538300
O16   O     O_R   0.584550 0.855440 0.518170 -0.538596
O17   O     O_R   0.144560 0.584550 0.518170 -0.538301
O18   O     O_R   0.584550 0.144560 0.518170 -0.544405
O19   O     O_R   0.144560 0.415450 0.518170 -0.543982
O20   O     O_R   0.415450 0.855440 0.518170 -0.544404
O21   O     O_R   0.855440 0.584550 0.518170 -0.543981
O22   O     O_R   0.915450 0.644560 0.018170 -0.544187
O23   O     O_3   0.000000 0.500000 0.000000 -0.435253
O24   O     O_R   0.355440 0.915450 0.018170 -0.543942
O25   O     O_R   0.084550 0.355440 0.018170 -0.544403
O26   O     O_R   0.644560 0.084550 0.018170 -0.544225
O27   O     O_R   0.084550 0.644560 0.018170 -0.538362
O28   O     O_R   0.644560 0.915450 0.018170 -0.538395
O29   O     O_R   0.915450 0.355440 0.018170 -0.538629
O30   O     O_R   0.355440 0.084550 0.018170 -0.538305
O31   O     O_R   0.644640 0.915430 0.481820 -0.540799
O32   O     O_R   0.084570 0.644640 0.481820 -0.540796
O33   O     O_R   0.355360 0.084570 0.481820 -0.540800
O34   O     O_3   0.500000 0.000000 0.000000 -0.435282
O35   O     O_R   0.915430 0.355360 0.481820 -0.540798
O36   O     O_R   0.355360 0.915430 0.481820 -0.541211
O37   O     O_R   0.915430 0.644640 0.481820 -0.541221
O38   O     O_R   0.644640 0.084570 0.481820 -0.541211
O39   O     O_R   0.084570 0.355360 0.481820 -0.541219
O40   O     O_R   0.144640 0.415430 0.981820 -0.541222
O41   O     O_R   0.584570 0.144640 0.981820 -0.541204
O42   O     O_R   0.855360 0.584570 0.981820 -0.541354
O43   O     O_R   0.415430 0.855360 0.981820 -0.541376
O44   O     O_R   0.855360 0.415430 0.981820 -0.540642
O45   O     O_R   0.500000 0.939850 0.569320 -0.551202
O46   O     O_R   0.415430 0.144640 0.981820 -0.540788
O47   O     O_R   0.144640 0.584570 0.981820 -0.540812
O48   O     O_R   0.584570 0.855360 0.981820 -0.540667
O49   O     O_R   0.060150 0.500000 0.569320 -0.551636
O50   O     O_R   0.500000 0.060150 0.569320 -0.551200
O51   O     O_R   0.939850 0.500000 0.569320 -0.551633
O52   O     O_R   0.000000 0.439850 0.069320 -0.551212
Zn1   Zn    Zn3+2 0.414160 0.000000 0.474030 0.936461
Zn2   Zn    Zn3+2 0.914220 0.500000 0.525960 0.930774
Zn3   Zn    Zn3+2 0.500000 0.914220 0.525960 0.930813
Zn4   Zn    Zn3+2 0.085780 0.500000 0.525960 0.930775
Zn5   Zn    Zn3+2 0.000000 0.585780 0.025960 0.930927
Zn6   Zn    Zn3+2 0.414220 1.000000 0.025960 0.930862
Zn7   Zn    Zn3+2 0.000000 0.414220 0.025960 0.930727
Zn8   Zn    Zn3+2 0.585780 1.000000 0.025960 0.930755
Zn9   Zn    Zn3+2 1.000000 0.414160 0.474030 0.936521
Zn10  Zn    Zn3+2 0.585840 0.000000 0.474030 0.936460
Zn11  Zn    Zn3+2 0.000000 0.585840 0.474030 0.936522
Zn12  Zn    Zn3+2 0.914160 0.500000 0.974030 0.936431
Zn13  Zn    Zn3+2 0.500000 0.914160 0.974030 0.936567
Zn14  Zn    Zn3+2 0.085840 0.500000 0.974030 0.936523
Zn15  Zn    Zn3+2 0.500000 0.085840 0.974030 0.936447
Zn16  Zn    Zn3+2 0.500000 0.085780 0.525960 0.930813

loop_
_geom_bond_atom_site_label_1
_geom_bond_atom_site_label_2
_ccdc_geom_bond_type
C73   O42   A    
C34   C56   A    
C19   C20   S    
C114  H24   S    
C29   H82   S    
C31   H86   S    
C72   O21   A    
C23   H73   S    
C68   O32   A    
C54   C63   S    
C95   H5    S    
C44   C53   A    
C80   C116  S    
C42   H52   S    
O22   Zn5   S    
C89   C106  D    
C117  C126  A    
C116  H26   S    
O42   Zn12  S    
O30   Zn6   S    
C33   H94   S    
C23   C46   S    
C21   C22   S    
C115  H25   S    
C66   O35   A    
C83   H12   S    
C32   H96   S    
C41   O51   A    
C40   C58   A    
C76   O40   A    
C99   C116  D    
C69   C105  S    
C94   H4    S    
C4    H40   S    
C27   H77   S    
C91   H89   S    
C92   H2    S    
C17   C43   S    
O1    Zn3   S    
C25   H71   S    
C2    N9    A    
O20   Zn3   S    
C17   H58   S    
C127  H37   S    
O45   Zn3   S    
C4    C122  A    
C85   N4    A    
C26   C47   S    
C13   N12   A    
C64   O10   A    
C8    C126  A    
C70   O19   A    
C30   C49   S    
O19   Zn4   S    
C39   H50   S    
C19   C44   S    
C124  H33   S    
C84   C88   S    
C21   H69   S    
O16   Zn3   S    
O50   Zn16  S    
C111  H20   S    
C68   O17   A    
C18   H55   S    
C46   C53   A    
C81   O30   A    
C57   C85   S    
C99   H8    S    
N7    N10   A    
C102  H11   S    
C21   H68   S    
C74   N16   A    
C100  H9    S    
C12   C117  A    
C36   H47   S    
C14   C119  A    
O52   Zn7   S    
C41   C51   S    
C37   C57   A    
C3    C121  A    
C19   H63   S    
O10   Zn13  S    
O46   Zn15  S    
C79   C115  S    
C84   C102  D    
C65   C101  S    
O41   Zn15  S    
C3    H39   S    
C73   C110  S    
C67   O16   A    
C27   H75   S    
O24   Zn6   S    
C88   H56   S    
C31   H87   S    
C40   C49   A    
C89   H67   S    
C77   O26   A    
C1    C53   S    
O17   Zn4   S    
C8    C128  A    
O6    Zn9   S    
O13   Zn15  S    
O14   Zn16  S    
C16   C125  A    
C30   H90   S    
C60   O5    A    
C38   H49   S    
C38   C58   A    
O15   Zn2   S    
C103  H13   S    
C79   O28   A    
C21   C45   S    
C83   C89   S    
C15   C124  A    
C65   O33   A    
C52   O3    A    
C18   H53   S    
C61   O6    A    
C67   C103  S    
N3    N14   A    
C98   H7    S    
C59   C107  S    
C68   C100  S    
C3    C9    A    
C20   H60   S    
C17   C18   S    
O33   Zn1   S    
C96   N5    A    
C82   H1    S    
C77   C109  S    
C42   C50   A    
C121  H30   S    
O47   Zn14  S    
C93   C97   S    
C64   O13   A    
C6    H42   S    
C28   H85   S    
C28   C48   S    
C5    H41   S    
C83   C101  D    
C113  H22   S    
C34   C43   A    
C42   C59   A    
C29   H81   S    
O23   Zn12  S    
C90   C108  D    
O28   Zn8   S    
C88   C105  D    
C92   C110  D    
C98   C115  D    
C63   O4    A    
C94   C112  D    
O27   Zn5   S    
C84   H23   S    
C60   O7    A    
C14   C121  A    
C30   H91   S    
C91   C99   S    
C97   C114  D    
C71   C108  S    
C2    C9    S    
C22   H64   S    
C24   N13   A    
O1    Zn10  S    
C33   H93   S    
C48   C55   A    
C119  H28   S    
C15   C122  A    
C7    H43   S    
C26   H79   S    
C1    O45   A    
C61   O8    A    
C26   C27   S    
C9    C127  A    
C28   C29   S    
C5    C11   A    
O1    Zn1   S    
C30   C31   S    
C80   O29   A    
C96   N7    A    
C25   H70   S    
C90   H78   S    
C17   H57   S    
C122  H31   S    
C22   H65   S    
O23   Zn7   S    
C52   C55   S    
C67   O31   A    
C107  N8    A    
C78   C114  S    
O34   Zn15  S    
C29   H83   S    
C87   H45   S    
C56   C74   S    
C23   H74   S    
O4    Zn6   S    
C70   C106  S    
C86   C87   S    
C72   C104  S    
C63   O2    A    
N1    N5    A    
C70   O39   A    
O2    Zn8   S    
C36   C56   A    
O34   Zn8   S    
C40   H51   S    
O3    Zn5   S    
C39   C59   A    
C65   O14   A    
C71   O36   A    
C7    C125  A    
C24   N15   A    
O18   Zn16  S    
C93   C111  D    
C47   C54   A    
C62   O11   A    
C80   O44   A    
C120  H29   S    
C104  H14   S    
C20   H61   S    
C32   H95   S    
C34   H44   S    
C108  H17   S    
C75   O24   A    
O23   Zn14  S    
C6    C10   A    
C101  H10   S    
C120  C128  A    
C13   N14   A    
C28   H84   S    
C75   C111  S    
C82   C90   S    
C35   C57   A    
C32   C33   S    
C25   H72   S    
C78   O27   A    
C37   H48   S    
O36   Zn1   S    
C43   C51   A    
C15   C62   S    
C1    O50   A    
O23   Zn5   S    
C94   C95   S    
O48   Zn13  S    
C92   C98   S    
C87   C104  D    
O1    Zn16  S    
C107  N6    A    
C81   C113  S    
C18   H54   S    
O12   Zn9   S    
O31   Zn10  S    
C37   C46   A    
C93   H3    S    
C69   O38   A    
O34   Zn13  S    
C39   C48   A    
O37   Zn11  S    
O39   Zn9   S    
C66   C102  S    
O8    Zn11  S    
C109  H18   S    
C6    C124  A    
C8    C118  S    
C7    C11   A    
O12   Zn2   S    
C16   C123  A    
O34   Zn6   S    
O9    Zn12  S    
C123  H32   S    
C45   C51   A    
C49   C54   A    
C75   O43   A    
C11   C24   S    
N6    N9    A    
C72   O37   A    
C58   C96   S    
C12   C120  A    
C62   O9    A    
O5    Zn1   S    
C86   H34   S    
C76   O25   A    
C128  H38   S    
C125  H35   S    
C97   H6    S    
C52   O52   A    
C126  H36   S    
C86   C103  D    
O32   Zn11  S    
C118  N1    A    
O40   Zn14  S    
O25   Zn7   S    
O49   Zn4   S    
O26   Zn8   S    
C27   H76   S    
O51   Zn2   S    
N4    N15   A    
C31   H88   S    
C71   O20   A    
C14   C61   S    
N8    N11   A    
N12   N16   A    
C117  H27   S    
C74   N3    A    
C118  N10   A    
C76   C112  S    
C36   C45   A    
O12   Zn11  S    
C35   C44   A    
C32   C50   S    
C38   C47   A    
O38   Zn10  S    
O7    Zn10  S    
C4    C10   A    
C110  H19   S    
C78   O47   A    
O29   Zn7   S    
C73   O22   A    
C33   H92   S    
C79   O48   A    
O44   Zn12  S    
O12   Zn4   S    
C35   H46   S    
C82   C100  D    
C26   H80   S    
C10   C13   S    
C105  H15   S    
O35   Zn9   S    
C106  H16   S    
C85   N2    A    
C41   O49   A    
C5    C123  A    
C50   C55   A    
C77   O41   A    
C91   C109  D    
C20   H59   S    
C95   C113  D    
O11   Zn14  S    
C23   C25   S    
C19   H62   S    
C12   C60   S    
C2    N11   A    
C66   O15   A    
N2    N13   A    
C112  H21   S    
C22   H66   S    
C81   O46   A    
C16   C64   S    
O21   Zn2   S    
O43   Zn13  S    
C119  C127  A    
C69   O18   A    
