data_mof_unit_60233.cif
_audit_creation_date              2012-12-10T18:40:58-0500
_audit_creation_method            fapswitch 2.2
_symmetry_space_group_name_H-M    P1
_symmetry_Int_Tables_number       1
_space_group_crystal_system       triclinic
_cell_length_a                    19.097251
_cell_length_b                    11.557257
_cell_length_c                    10.786779
_cell_angle_alpha                 90.014055
_cell_angle_beta                  90.01199
_cell_angle_gamma                 90.031716
_cell_volume                      2380.76932846

loop_
_atom_site_label
_atom_site_type_symbol
_atom_type_description
_atom_site_fract_x
_atom_site_fract_y
_atom_site_fract_z
_atom_type_partial_charge
C1    C     C_R   0.500075 0.281206 0.500014 0.964623
C2    C     C_1   0.499965 0.940843 0.500179 0.027805
C3    C     C_1   0.500000 0.500000 0.069783 0.106245
C4    C     C_1   0.500000 0.500000 0.930217 0.088711
C5    C     C_R   0.254046 0.393741 0.515290 -0.091663
C6    C     C_R   0.745706 0.606980 0.515841 -0.096491
C7    C     C_R   0.746230 0.393806 0.509240 -0.069989
C8    C     C_R   0.254027 0.606931 0.509163 -0.092550
C9    C     C_R   0.181509 0.394089 0.536972 -0.080568
C10   C     C_R   0.818247 0.607104 0.537782 -0.055255
C11   C     C_R   0.818638 0.393978 0.531858 -0.188234
C12   C     C_R   0.499923 0.718794 0.500041 0.964678
C13   C     C_R   0.181474 0.607487 0.530740 -0.075535
C14   C     C_R   0.146012 0.501022 0.544974 -0.089502
C15   C     C_R   0.853934 0.500398 0.546105 -0.095979
C16   C     C_R   0.289530 0.500111 0.501790 -0.175454
C17   C     C_R   0.710460 0.500370 0.501950 -0.164188
C18   C     C_2   0.293561 0.282649 0.512010 0.943367
C19   C     C_2   0.706042 0.717926 0.511989 0.938528
C20   C     C_2   0.707449 0.282310 0.497787 0.917053
C21   C     C_2   0.293502 0.717867 0.499933 0.941013
C22   C     C_2   0.142045 0.282890 0.545152 0.993846
C23   C     C_R   0.929811 0.500238 0.547795 0.289137
C24   C     C_2   0.857479 0.718543 0.544154 0.987223
C25   C     C_2   0.858622 0.283120 0.534018 1.032391
C26   C     C_2   0.142000 0.718831 0.531326 0.985263
C27   C     C_R   0.070171 0.500834 0.547153 0.335541
C28   C     C_R   0.365347 0.500095 0.500082 0.917116
C29   C     C_R   0.634655 0.499871 0.500113 0.914997
C30   C     C_1   0.500067 0.161084 0.500067 -0.097602
C31   C     C_1   0.499927 0.838916 0.500137 -0.097243
C32   C     C_1   0.500027 0.059157 0.500142 0.027985
H1    H     H_    0.313565 0.128971 0.593219 0.351527
H2    H     H_    0.686143 0.872197 0.592044 0.352315
H3    H     H_    0.689441 0.122587 0.566208 0.354142
H4    H     H_    0.313102 0.875508 0.572453 0.351267
H5    H     H_    0.124580 0.123992 0.473933 0.368709
H6    H     H_    0.875222 0.875806 0.469218 0.383513
H7    H     H_    0.894493 0.307930 0.708062 0.327983
H8    H     H_    0.124340 0.872841 0.448993 0.366566
N1    N     N_1   0.500000 0.500000 0.180630 -0.060451
N2    N     N_1   0.500000 0.500000 0.819370 -0.068361
N3    N     N_R   0.034541 0.491287 0.439260 -0.136937
N4    N     N_R   0.965384 0.509372 0.656018 -0.086034
N5    N     N_R   0.965140 0.490992 0.439583 -0.122412
N6    N     N_R   0.034935 0.509582 0.655716 -0.049056
O1    O     O_R   0.500000 0.334450 0.602530 -0.625407
O2    O     O_R   0.283857 0.200708 0.605815 -0.761277
O3    O     O_2   0.664989 0.736815 0.427393 -0.610826
O4    O     O_R   0.715959 0.800640 0.604993 -0.759884
O5    O     O_2   0.665831 0.267986 0.412998 -0.608017
O6    O     O_R   0.718814 0.193829 0.583868 -0.765626
O7    O     O_2   0.334587 0.733408 0.414616 -0.607192
O8    O     O_R   0.283400 0.804378 0.588796 -0.762648
O9    O     O_2   0.098735 0.268363 0.627199 -0.553457
O10   O     O_R   0.154374 0.195186 0.458515 -0.750838
O11   O     O_2   0.899814 0.735437 0.627273 -0.543485
O12   O     O_R   0.500000 0.665550 0.397470 -0.573619
O13   O     O_R   0.845755 0.804046 0.454819 -0.746929
O14   O     O_2   0.855807 0.217902 0.445092 -0.516900
O15   O     O_R   0.899551 0.252148 0.636176 -0.699071
O16   O     O_2   0.099152 0.738662 0.612823 -0.549600
O17   O     O_R   0.154016 0.800802 0.438367 -0.751717
O18   O     O_R   0.500000 0.665550 0.602530 -0.625393
O19   O     O_R   0.500000 0.334450 0.397470 -0.573824
O20   O     O_R   0.398140 0.500000 0.602560 -0.623631
O21   O     O_R   0.601860 0.500000 0.397440 -0.559931
O22   O     O_R   0.601860 0.500000 0.602560 -0.625312
O23   O     O_R   0.398140 0.500000 0.397440 -0.560822
O24   O     O_2   0.334392 0.263049 0.427279 -0.611445
Zn1   Zn    Zn3+2 0.500000 0.500000 0.636920 1.026933
Zn2   Zn    Zn3+2 0.500000 0.500000 0.363080 1.101877

loop_
_geom_bond_atom_site_label_1
_geom_bond_atom_site_label_2
_ccdc_geom_bond_type
C6    C10   A    
O23   Zn2   S    
C1    O19   A    
C9    C14   A    
O20   Zn1   S    
C16   C28   S    
C8    C13   A    
C23   N5    A    
C25   O14   D    
C14   C27   S    
C21   O7    D    
O19   Zn2   S    
C17   C29   S    
C19   O3    D    
C28   O20   A    
C18   O24   D    
O12   Zn2   S    
C26   O17   S    
C12   O12   A    
C15   C23   S    
C8    C21   S    
C26   O16   D    
C18   O2    S    
C8    C16   A    
C25   O15   S    
C13   C14   A    
C30   C32   T    
C6    C19   S    
N3    N5    A    
C19   O4    S    
O1    Zn1   S    
C5    C9    A    
C22   O9    D    
H8    O17   S    
C4    N2    T    
O22   Zn1   S    
C12   O18   A    
C27   N6    A    
C1    C30   S    
N4    N6    A    
C7    C11   A    
C20   O5    D    
C10   C15   A    
C24   O13   S    
C12   C31   S    
C21   O8    S    
H7    O15   S    
C2    C31   T    
C9    C22   S    
H2    O4    S    
H4    O8    S    
C13   C26   S    
H6    O13   S    
C29   O22   A    
C27   N3    A    
N1    Zn2   S    
C2    C32   S    
O21   Zn2   S    
O18   Zn1   S    
H3    O6    S    
H1    O2    S    
C6    C17   A    
C11   C25   S    
C20   O6    S    
C3    N1    T    
C5    C16   A    
C22   O10   S    
C5    C18   S    
C10   C24   S    
C29   O21   A    
H5    O10   S    
C11   C15   A    
C7    C20   S    
C1    O1    A    
C3    C4    S    
C28   O23   A    
N2    Zn1   S    
C24   O11   D    
C23   N4    A    
C7    C17   A    
