data_mof_unit_31715.cif
_audit_creation_date              2012-12-11T14:03:52-0500
_audit_creation_method            fapswitch 2.2
_symmetry_space_group_name_H-M    P1
_symmetry_Int_Tables_number       1
_space_group_crystal_system       triclinic
_cell_length_a                    19.303641
_cell_length_b                    10.909682
_cell_length_c                    18.720219
_cell_angle_alpha                 89.421696
_cell_angle_beta                  89.298515
_cell_angle_gamma                 90.037246
_cell_volume                      3941.91673417

loop_
_atom_site_label
_atom_site_type_symbol
_atom_type_description
_atom_site_fract_x
_atom_site_fract_y
_atom_site_fract_z
_atom_type_partial_charge
C1    C     C_R   0.241349 0.464373 0.648371 0.523006
C2    C     C_R   0.759307 0.463112 0.351493 0.535741
C3    C     C_R   0.740687 0.964516 0.648222 0.534510
C4    C     C_R   0.256543 0.957142 0.346292 0.528501
C5    C     C_2   0.254611 0.799941 0.524307 -0.133250
C6    C     C_2   0.726401 0.814915 0.469914 -0.129925
C7    C     C_2   0.770336 0.308909 0.529127 -0.139130
C8    C     C_2   0.226939 0.316455 0.469608 -0.124238
C9    C     C_R   0.959452 0.655797 0.439226 -0.043530
C10   C     C_R   0.044645 0.652805 0.560169 -0.047710
C11   C     C_R   0.458640 0.160479 0.438241 -0.036042
C12   C     C_R   0.541180 0.153379 0.560592 -0.051328
C13   C     C_R   0.955366 0.881430 0.448410 -0.067933
C14   C     C_R   0.064588 0.872184 0.540871 -0.055194
C15   C     C_R   0.473276 0.389146 0.435247 -0.065720
C16   C     C_R   0.571969 0.367550 0.538591 -0.066103
C17   C     C_R   0.989038 0.989131 0.466471 -0.116954
C18   C     C_R   0.046148 0.983816 0.510468 -0.087318
C19   C     C_R   0.514968 0.489400 0.450294 -0.115044
C20   C     C_R   0.565526 0.477974 0.501649 -0.070779
C21   C     C_R   0.029775 0.763911 0.524931 -0.002744
C22   C     C_R   0.980661 0.766754 0.470359 0.000142
C23   C     C_R   0.532145 0.264759 0.523066 -0.026430
C24   C     C_R   0.486581 0.271458 0.465202 0.011074
C25   C     C_R   0.024384 0.541768 0.528073 0.025768
C26   C     C_R   0.974716 0.544578 0.474663 0.016889
C27   C     C_R   0.518566 0.043405 0.529057 0.020882
C28   C     C_R   0.468990 0.049112 0.475918 0.009092
C29   C     C_R   0.048908 0.426471 0.551377 -0.076115
C30   C     C_R   0.940115 0.435444 0.458715 -0.083824
C31   C     C_R   0.543207 0.926822 0.550284 -0.077791
C32   C     C_R   0.433298 0.940745 0.459170 -0.077392
C33   C     C_R   0.013963 0.319387 0.535700 -0.120677
C34   C     C_R   0.957687 0.324544 0.490971 -0.121698
C35   C     C_R   0.511555 0.819480 0.528542 -0.128269
C36   C     C_R   0.454492 0.826584 0.484812 -0.120459
C37   C     C_2   0.254039 0.928270 0.916167 -0.101047
C38   C     C_2   0.762335 0.898746 0.071254 -0.102425
C39   C     C_2   0.754070 0.428255 0.916162 -0.103636
C40   C     C_2   0.262319 0.398700 0.071265 -0.102385
C41   C     C_2   0.256029 0.938747 0.072979 -0.092720
C42   C     C_2   0.750898 0.894453 0.915005 -0.113037
C43   C     C_2   0.756027 0.438703 0.072987 -0.095112
C44   C     C_2   0.250883 0.394526 0.915031 -0.109291
C45   C     C_R   0.224930 0.869124 0.644574 0.528342
C46   C     C_R   0.774010 0.871189 0.353825 0.522736
C47   C     C_R   0.726042 0.371300 0.645643 0.524949
C48   C     C_R   0.273455 0.372266 0.353250 0.534896
C49   C     C_2   0.227191 0.023331 0.029424 -0.147998
C50   C     C_2   0.810395 0.909289 0.949350 -0.158748
C51   C     C_2   0.727314 0.523395 0.029410 -0.147315
C52   C     C_2   0.310350 0.409509 0.949412 -0.154673
C53   C     C_2   0.214086 0.002372 0.954567 -0.167920
C54   C     C_2   0.815915 0.884903 0.025417 -0.147435
C55   C     C_2   0.714171 0.502446 0.954555 -0.168159
C56   C     C_2   0.315894 0.384953 0.025436 -0.149224
C57   C     C_2   0.043759 0.654583 0.933369 -0.096116
C58   C     C_2   0.017602 0.665317 0.087524 -0.118780
C59   C     C_2   0.543866 0.154550 0.933377 -0.095269
C60   C     C_2   0.517466 0.165353 0.087420 -0.124963
C61   C     C_2   0.041752 0.565560 0.054016 -0.154335
C62   C     C_2   0.065779 0.568876 0.979412 -0.166880
C63   C     C_2   0.541918 0.065680 0.054070 -0.158900
C64   C     C_2   0.565976 0.068973 0.979464 -0.166375
C65   C     C_R   0.062817 0.650255 0.637084 0.536888
C66   C     C_R   0.938570 0.650338 0.363242 0.539248
C67   C     C_R   0.561625 0.150377 0.636809 0.542335
C68   C     C_R   0.438221 0.151097 0.362849 0.543755
C69   C     C_R   0.238812 0.462981 0.849658 0.543936
C70   C     C_R   0.762649 0.470885 0.147409 0.541856
C71   C     C_R   0.738807 0.962987 0.849664 0.534584
C72   C     C_R   0.262658 0.970934 0.147396 0.542935
C73   C     C_R   0.227841 0.875429 0.851430 0.558150
C74   C     C_R   0.774689 0.870764 0.145573 0.549293
C75   C     C_R   0.727846 0.375431 0.851428 0.554976
C76   C     C_R   0.274701 0.370711 0.145563 0.553265
C77   C     C_R   0.062208 0.647231 0.858398 0.576273
C78   C     C_R   0.973182 0.653104 0.150622 0.557586
C79   C     C_R   0.562267 0.147212 0.858391 0.579329
C80   C     C_R   0.473051 0.153097 0.150514 0.553730
C81   C     C_2   0.240305 0.894449 0.568346 -0.116205
C82   C     C_2   0.755917 0.901387 0.427454 -0.103509
C83   C     C_2   0.743781 0.398791 0.570528 -0.112773
C84   C     C_2   0.253741 0.404363 0.426019 -0.077708
C85   C     C_2   0.227176 0.875433 0.401940 0.258908
C86   C     C_2   0.762417 0.891521 0.586366 0.251669
C87   C     C_2   0.736977 0.379942 0.409378 0.260613
C88   C     C_2   0.264786 0.396863 0.584567 0.246867
C89   C     C_2   0.269697 0.818077 0.447417 -0.135545
C90   C     C_2   0.715808 0.833771 0.546624 -0.143694
C91   C     C_2   0.782929 0.326245 0.452136 -0.160136
C92   C     C_2   0.218738 0.333667 0.546920 -0.134013
Cr1   Cr    Cr6+3 0.113970 0.508630 0.747920 0.994387
Cr2   Cr    Cr6+3 0.886030 0.508630 0.252080 1.002332
Cr3   Cr    Cr6+3 0.613970 0.008630 0.747920 0.995510
Cr4   Cr    Cr6+3 0.386030 0.008630 0.252080 1.001033
Cr5   Cr    Cr6+3 0.269200 0.666740 0.749850 1.000638
Cr6   Cr    Cr6+3 0.730800 0.666740 0.250150 1.012144
Cr7   Cr    Cr6+3 0.769200 0.166740 0.749850 0.998196
Cr8   Cr    Cr6+3 0.230800 0.166740 0.250150 0.983187
Cr9   Cr    Cr6+3 0.112300 0.820070 0.749800 0.979356
Cr10  Cr    Cr6+3 0.887700 0.820070 0.250200 0.961694
Cr11  Cr    Cr6+3 0.612300 0.320070 0.749800 0.986152
Cr12  Cr    Cr6+3 0.387700 0.320070 0.250200 1.000520
H1    H     H_    0.320390 0.791059 0.428736 0.079368
H2    H     H_    0.668446 0.799861 0.570575 0.076148
H3    H     H_    0.829655 0.290291 0.428520 0.080072
H4    H     H_    0.173953 0.293077 0.573123 0.076541
H5    H     H_    0.167445 0.042828 0.932560 0.152405
H6    H     H_    0.867426 0.863312 0.044796 0.152636
H7    H     H_    0.667558 0.542996 0.932544 0.153124
H8    H     H_    0.367416 0.363395 0.044797 0.152646
H9    H     H_    0.276908 0.852630 0.053805 0.095016
H10   H     H_    0.707563 0.845957 0.939853 0.095611
H11   H     H_    0.776788 0.352481 0.053836 0.094862
H12   H     H_    0.207575 0.345892 0.939840 0.093627
H13   H     H_    0.302575 0.893414 0.937026 0.114334
H14   H     H_    0.710193 0.919487 0.053754 0.084249
H15   H     H_    0.802584 0.393317 0.937029 0.114046
H16   H     H_    0.210167 0.419385 0.053769 0.084901
H17   H     H_    0.038295 0.475723 0.079380 0.153721
H18   H     H_    0.096365 0.492044 0.960242 0.130227
H19   H     H_    0.538680 0.975924 0.079559 0.154512
H20   H     H_    0.596660 0.992237 0.960334 0.130400
H21   H     H_    0.024738 0.756523 0.064935 0.096411
H22   H     H_    0.011520 0.730712 0.950199 0.102883
H23   H     H_    0.524470 0.256545 0.064782 0.100703
H24   H     H_    0.511531 0.230570 0.950168 0.105116
H25   H     H_    0.263033 0.708800 0.546449 0.148759
H26   H     H_    0.706940 0.730027 0.447840 0.149858
H27   H     H_    0.787376 0.222853 0.552693 0.159758
H28   H     H_    0.210184 0.229047 0.448459 0.150229
H29   H     H_    0.231386 0.985698 0.546548 0.113538
H30   H     H_    0.775054 0.986514 0.449564 0.124948
H31   H     H_    0.726799 0.484774 0.546765 0.107155
H32   H     H_    0.269785 0.492609 0.446494 0.140826
H33   H     H_    0.973221 0.074547 0.442595 0.095607
H34   H     H_    0.076801 0.064417 0.520539 0.106270
H35   H     H_    0.506744 0.576508 0.423594 0.104789
H36   H     H_    0.599313 0.554195 0.513310 0.105015
H37   H     H_    0.910252 0.888043 0.416925 0.175945
H38   H     H_    0.108386 0.868035 0.573224 0.165583
H39   H     H_    0.430686 0.406620 0.400791 0.181496
H40   H     H_    0.612743 0.356778 0.574048 0.164100
H41   H     H_    0.898075 0.438622 0.422753 0.147880
H42   H     H_    0.091805 0.420000 0.586488 0.150990
H43   H     H_    0.389694 0.945756 0.425296 0.147230
H44   H     H_    0.586028 0.918852 0.585440 0.147726
H45   H     H_    0.028654 0.234356 0.561073 0.097271
H46   H     H_    0.927839 0.243183 0.481538 0.101934
H47   H     H_    0.530162 0.731739 0.547418 0.093716
H48   H     H_    0.428002 0.743696 0.469627 0.099019
H49   H     H_    0.207158 0.109170 0.050241 0.160812
H50   H     H_    0.855263 0.950478 0.922932 0.151290
H51   H     H_    0.707400 0.609330 0.050210 0.160294
H52   H     H_    0.355182 0.450937 0.923066 0.155267
O1    O     O_R   0.043230 0.549300 0.667990 -0.509703
O2    O     O_R   0.956770 0.549300 0.332010 -0.511293
O3    O     O_R   0.543230 0.049300 0.667990 -0.504692
O4    O     O_R   0.456770 0.049300 0.332010 -0.524611
O5    O     O_R   0.262920 0.788600 0.824420 -0.491897
O6    O     O_R   0.737080 0.788600 0.175580 -0.498555
O7    O     O_R   0.762920 0.288600 0.824420 -0.491991
O8    O     O_R   0.237080 0.288600 0.175580 -0.498549
O9    O     O_R   0.167530 0.905110 0.830340 -0.518826
O10   O     O_R   0.832470 0.905110 0.169660 -0.510236
O11   O     O_R   0.667530 0.405110 0.830340 -0.520165
O12   O     O_R   0.332470 0.405110 0.169660 -0.509433
O13   O     O_R   0.054010 0.748440 0.822860 -0.507887
O14   O     O_R   0.945990 0.748440 0.177140 -0.516821
O15   O     O_R   0.554010 0.248440 0.822860 -0.493128
O16   O     O_R   0.445990 0.248440 0.177140 -0.498687
O17   O     O_3   0.165160 0.665150 0.749190 -0.280273
O18   O     O_3   0.834840 0.665150 0.250810 -0.256405
O19   O     O_3   0.665160 0.165150 0.749190 -0.281639
O20   O     O_3   0.334840 0.165150 0.250810 -0.257922
O21   O     O_R   0.178620 0.457600 0.674100 -0.551679
O22   O     O_R   0.821380 0.457600 0.325900 -0.559556
O23   O     O_R   0.678620 0.957600 0.674100 -0.556441
O24   O     O_R   0.321380 0.957600 0.325900 -0.552943
O25   O     O_R   0.284680 0.542100 0.669460 -0.523015
O26   O     O_R   0.715320 0.542100 0.330540 -0.491348
O27   O     O_R   0.784680 0.042100 0.669460 -0.511757
O28   O     O_R   0.215320 0.042100 0.330540 -0.523491
O29   O     O_R   0.262860 0.790390 0.676650 -0.487878
O30   O     O_R   0.737140 0.790390 0.323350 -0.493091
O31   O     O_R   0.762860 0.290390 0.676650 -0.487262
O32   O     O_R   0.237140 0.290390 0.323350 -0.494792
O33   O     O_R   0.167460 0.907030 0.670940 -0.541483
O34   O     O_R   0.832540 0.907030 0.329060 -0.552939
O35   O     O_R   0.667460 0.407030 0.670940 -0.549615
O36   O     O_R   0.332540 0.407030 0.329060 -0.541536
O37   O     O_R   0.053950 0.750220 0.675100 -0.519453
O38   O     O_R   0.946050 0.750220 0.324900 -0.539934
O39   O     O_R   0.553950 0.250220 0.675100 -0.513008
O40   O     O_R   0.446050 0.250220 0.324900 -0.521094
O41   O     O_R   0.043300 0.547370 0.827390 -0.496411
O42   O     O_R   0.956700 0.547370 0.172610 -0.501219
O43   O     O_R   0.543300 0.047370 0.827390 -0.492152
O44   O     O_R   0.456700 0.047370 0.172610 -0.506093
O45   O     O_R   0.178690 0.455820 0.821860 -0.518501
O46   O     O_R   0.821310 0.455820 0.178140 -0.493661
O47   O     O_R   0.678690 0.955820 0.821860 -0.518717
O48   O     O_R   0.321310 0.955820 0.178140 -0.491430
O49   O     O_R   0.284750 0.540170 0.828860 -0.512936
O50   O     O_R   0.715250 0.540170 0.171140 -0.520531
O51   O     O_R   0.784750 0.040170 0.828860 -0.521304
O52   O     O_R   0.215250 0.040170 0.171140 -0.541991
O53   O     O_3   0.155500 0.878405 0.414814 -0.567533
C93   C     C_3   0.116649 0.853832 0.351359 0.038821
H53   H     H_    0.072852 0.794124 0.367011 0.185297
H54   H     H_    0.146617 0.799188 0.311527 0.092356
C94   C     C_3   0.087831 0.972304 0.314699 -0.265823
H55   H     H_    0.085138 0.049191 0.353135 0.193258
H56   H     H_    0.122270 0.996875 0.269133 0.195464
C95   C     C_3   0.018937 0.961400 0.277568 -0.438083
H57   H     H_    0.019555 0.878283 0.244552 0.197508
H58   H     H_    0.011535 0.041581 0.241356 0.109126
H59   H     H_    0.975512 0.963163 0.316234 0.185538
O54   O     O_3   0.831868 0.890363 0.566124 -0.581238
C96   C     C_3   0.870134 0.826618 0.619255 0.033858
H60   H     H_    0.901825 0.755669 0.592523 0.152952
H61   H     H_    0.837315 0.772738 0.658072 0.106045
C97   C     C_3   0.918646 0.914549 0.658748 -0.237009
H62   H     H_    0.971392 0.907942 0.636562 0.164959
H63   H     H_    0.904017 0.011733 0.650519 0.200295
C98   C     C_3   0.920976 0.885497 0.738625 -0.418310
H64   H     H_    0.937225 0.789051 0.747586 0.189945
H65   H     H_    0.869044 0.898186 0.763228 0.166164
H66   H     H_    0.958287 0.947473 0.764914 0.140743
O55   O     O_3   0.667386 0.352069 0.416718 -0.561545
C99   C     C_3   0.655123 0.237149 0.383853 0.009965
H67   H     H_    0.611091 0.191789 0.411649 0.164196
H68   H     H_    0.699139 0.171349 0.389116 0.108865
C100  C     C_3   0.636315 0.254148 0.305029 -0.256112
H69   H     H_    0.586999 0.306138 0.301166 0.197337
H70   H     H_    0.677427 0.306932 0.276413 0.168434
C101  C     C_3   0.628580 0.130715 0.268305 -0.457977
H71   H     H_    0.678348 0.079656 0.269452 0.147800
H72   H     H_    0.614067 0.145676 0.211727 0.150763
H73   H     H_    0.587835 0.074828 0.295345 0.191173
O56   O     O_3   0.330402 0.419653 0.554438 -0.593481
C102  C     C_3   0.384341 0.412201 0.605335 0.050537
H74   H     H_    0.421817 0.343069 0.586977 0.159008
H75   H     H_    0.367652 0.377453 0.659088 0.135244
C103  C     C_3   0.421444 0.536980 0.610569 -0.243382
H76   H     H_    0.449597 0.556690 0.560567 0.147732
H77   H     H_    0.384715 0.614278 0.615705 0.205158
C104  C     C_3   0.471483 0.540678 0.672888 -0.454961
H78   H     H_    0.512769 0.471341 0.665927 0.184649
H79   H     H_    0.443373 0.523161 0.724106 0.155821
H80   H     H_    0.496117 0.632550 0.675107 0.129603

loop_
_geom_bond_atom_site_label_1
_geom_bond_atom_site_label_2
_ccdc_geom_bond_type
C70   O46   A    
C7    C83   D    
C14   H38   S    
C103  H77   S    
C69   O45   A    
C6    C82   D    
C87   C91   D    
C14   C18   A    
Cr9   O17   S    
C35   C36   A    
C95   H59   S    
C74   O10   A    
C6    H26   S    
C43   C51   D    
C97   H62   S    
C45   C81   S    
Cr7   O31   S    
Cr8   O52   S    
C100  H69   S    
C57   C62   D    
Cr12  O20   S    
C32   H43   S    
C51   C55   S    
C94   H55   S    
C15   C19   A    
C82   H30   S    
C75   O11   A    
C101  H73   S    
C51   H51   S    
C59   C64   D    
C50   C54   S    
Cr11  O39   S    
C60   C63   D    
Cr3   O3    S    
C32   C36   A    
C14   C21   A    
C61   H17   S    
C16   H40   S    
C4    O24   A    
C48   O32   A    
C96   C97   S    
Cr9   O33   S    
C88   O56   S    
Cr6   O18   S    
C3    O23   A    
C9    C22   A    
C94   C95   S    
Cr5   O29   S    
Cr3   O47   S    
C102  H74   S    
C80   O44   A    
C29   C33   A    
C11   C24   A    
C78   O14   A    
C54   H6    S    
C75   O7    A    
Cr2   O22   S    
C79   O15   A    
C18   H34   S    
Cr3   O19   S    
C9    C66   S    
C99   H67   S    
C73   O5    A    
C71   O51   A    
C43   H11   S    
C46   C82   S    
C52   C56   S    
C1    O21   A    
C92   H4    S    
C39   C55   D    
C88   C92   D    
C40   C56   D    
C84   H32   S    
C17   C18   A    
Cr8   O20   S    
C23   C24   A    
C29   H42   S    
Cr9   O13   S    
Cr2   O46   S    
C39   C75   S    
Cr1   O45   S    
Cr7   O27   S    
C8    C92   S    
Cr12  O16   S    
C37   C53   D    
C44   C52   D    
C1    C88   S    
C5    H25   S    
Cr10  O10   S    
C21   C22   A    
C3    C86   S    
Cr11  O15   S    
C100  H70   S    
C61   C62   S    
C35   H47   S    
C46   O34   A    
C67   O39   A    
Cr10  O38   S    
C41   C49   D    
O54   C96   S    
Cr6   O6    S    
Cr9   O37   S    
C9    C26   A    
Cr4   O48   S    
C65   O37   A    
C94   H56   S    
C10   C21   A    
C25   C29   A    
C70   O50   A    
C12   C67   S    
C101  H72   S    
C104  H79   S    
C79   O43   A    
C30   C34   A    
C12   C27   A    
C27   C31   A    
C57   C77   S    
C28   C32   A    
Cr5   O17   S    
C95   H57   S    
C90   H2    S    
C72   O52   A    
C86   C90   D    
C59   C79   S    
C57   H22   S    
C74   O6    A    
Cr1   O21   S    
Cr3   O23   S    
C12   C23   A    
C4    C85   S    
Cr10  O14   S    
C102  H75   S    
C59   H24   S    
C64   H20   S    
C99   C100  S    
C46   O30   A    
C48   C84   S    
C53   H5    S    
C85   O53   S    
Cr2   O42   S    
C81   H29   S    
Cr6   O26   S    
C101  H71   S    
C71   O47   A    
C42   H10   S    
Cr8   O8    S    
C8    H28   S    
C96   H60   S    
Cr7   O51   S    
C91   H3    S    
Cr12  O12   S    
C5    C81   D    
C2    O26   A    
C98   H64   S    
C38   C54   D    
C16   C20   A    
C102  C103  S    
C7    C91   S    
Cr11  O19   S    
O53   C93   S    
C104  H78   S    
Cr7   O19   S    
C2    C87   S    
C68   O40   A    
C86   O54   S    
Cr11  O11   S    
Cr4   O24   S    
C85   C89   D    
Cr1   O1    S    
C66   O2    A    
C42   C50   D    
C41   C72   S    
Cr7   O7    S    
C31   H44   S    
C50   H50   S    
C10   C25   A    
C65   O1    A    
C15   C24   A    
C98   H65   S    
C73   O9    A    
Cr2   O18   S    
C26   C30   A    
C16   C23   A    
C93   H54   S    
C40   H16   S    
C100  C101  S    
C15   H39   S    
C76   O8    A    
C55   H7    S    
Cr11  O35   S    
C80   O16   A    
C47   O31   A    
C68   O4    A    
C39   H15   S    
C97   C98   S    
C62   H18   S    
C11   C68   S    
C30   H41   S    
C67   O3    A    
C38   C74   S    
C10   C65   S    
C49   H49   S    
Cr4   O44   S    
C77   O13   A    
C37   C73   S    
C103  H76   S    
C60   C80   S    
C104  H80   S    
C1    O25   A    
Cr4   O20   S    
Cr8   O32   S    
C99   H68   S    
C8    C84   D    
C83   H31   S    
C13   H37   S    
C60   H23   S    
C36   H48   S    
C48   O36   A    
C41   H9    S    
C47   C83   S    
C97   H63   S    
Cr2   O2    S    
C63   H19   S    
Cr5   O25   S    
Cr10  O18   S    
C43   C70   S    
C93   C94   S    
C78   O42   A    
C69   O49   A    
C13   C17   A    
C96   H61   S    
C20   H36   S    
C19   C20   A    
Cr4   O4    S    
C25   C26   A    
C7    H27   S    
Cr6   O30   S    
C6    C90   S    
Cr9   O9    S    
C45   O29   A    
C3    O27   A    
C11   C28   A    
C58   C61   D    
C87   O55   S    
Cr1   O41   S    
O56   C102  S    
Cr1   O17   S    
C42   C71   S    
Cr10  O34   S    
C33   H45   S    
C33   C34   A    
C13   C22   A    
C76   O12   A    
C31   C35   A    
C34   H46   S    
C47   O35   A    
C52   H52   S    
Cr8   O28   S    
C72   O48   A    
C4    O28   A    
C49   C53   S    
C58   C78   S    
C63   C64   S    
C38   H14   S    
C40   C76   S    
C98   H66   S    
C37   H13   S    
C44   H12   S    
C58   H21   S    
Cr3   O43   S    
C93   H53   S    
C89   H1    S    
O55   C99   S    
C45   O33   A    
C44   C69   S    
Cr6   O50   S    
C17   H33   S    
C2    O22   A    
Cr5   O49   S    
C66   O38   A    
C77   O41   A    
C56   H8    S    
C19   H35   S    
C5    C89   S    
C95   H58   S    
Cr5   O5    S    
Cr12  O40   S    
C27   C28   A    
C103  C104  S    
Cr12  O36   S    
