data_mof_unit_41538.cif
_audit_creation_date              2012-12-10T18:33:36-0500
_audit_creation_method            fapswitch 2.2
_symmetry_space_group_name_H-M    P1
_symmetry_Int_Tables_number       1
_space_group_crystal_system       triclinic
_cell_length_a                    10.499343
_cell_length_b                    14.991843
_cell_length_c                    15.459763
_cell_angle_alpha                 81.825698
_cell_angle_beta                  90.156435
_cell_angle_gamma                 104.806773
_cell_volume                      2327.29076161

loop_
_atom_site_label
_atom_site_type_symbol
_atom_type_description
_atom_site_fract_x
_atom_site_fract_y
_atom_site_fract_z
_atom_type_partial_charge
C1    C     C_R   0.478297 0.441152 0.662353 0.873094
C2    C     C_R   0.513354 0.558451 0.337738 0.890830
C3    C     C_R   0.440138 0.466814 0.811770 -0.268632
C4    C     C_R   0.437964 0.526360 0.193774 -0.271426
C5    C     C_R   0.402689 0.437647 0.899927 0.113400
C6    C     C_R   0.438895 0.546416 0.103281 0.083764
C7    C     C_R   0.382451 0.342113 0.932525 -0.003082
C8    C     C_R   0.469758 0.641441 0.066396 0.043244
C9    C     C_R   0.401140 0.503166 0.957597 -0.080478
C10   C     C_R   0.410903 0.475340 0.048735 -0.120001
C11   C     C_R   0.402223 0.378726 0.079470 0.531543
C12   C     C_R   0.396581 0.596405 0.925890 0.535483
C13   C     C_R   0.374567 0.313315 0.021940 -0.274727
C14   C     C_R   0.441437 0.665771 0.979670 -0.331796
C15   C     C_R   0.711231 0.847156 0.628257 0.345110
C16   C     C_R   0.284704 0.153681 0.372284 0.358023
C17   C     C_R   0.671897 0.755010 0.609858 0.567872
C18   C     C_R   0.331174 0.246901 0.387604 0.573816
C19   C     C_R   0.508929 0.792803 0.514851 -0.215778
C20   C     C_R   0.484692 0.204659 0.488337 -0.077809
C21   C     C_R   0.538023 0.884765 0.534177 -0.082793
C22   C     C_R   0.456290 0.113843 0.466372 -0.050321
C23   C     C_R   0.742582 0.500954 0.500698 0.853637
C24   C     C_R   0.257045 0.498324 0.501346 0.844685
C25   C     C_R   0.649608 0.913533 0.584810 -0.005175
C26   C     C_R   0.347306 0.086685 0.413309 -0.090535
C27   C     C_R   0.468740 0.950926 0.497828 0.004124
C28   C     C_R   0.527832 0.048061 0.499306 0.126041
C29   C     C_R   0.656241 0.075343 0.533185 -0.036837
C30   C     C_R   0.344430 0.924534 0.458226 -0.054931
C31   C     C_R   0.708308 0.008664 0.582196 -0.267389
C32   C     C_R   0.297640 0.992413 0.406381 -0.117320
C33   C     C_3   0.933950 0.439795 0.570832 -0.178165
C34   C     C_3   0.064846 0.559034 0.434494 -0.175224
C35   C     C_3   0.051819 0.524233 0.577818 -0.177640
C36   C     C_3   0.947435 0.474404 0.427505 -0.168309
C37   C     C_3   0.120944 0.496555 0.502755 -0.002733
C38   C     C_3   0.878174 0.502071 0.502307 0.013049
C39   C     C_3   0.005794 0.412053 0.496097 -0.123561
C40   C     C_3   0.993003 0.586636 0.509463 -0.072112
C41   C     C_R   0.446702 0.403641 0.754937 -0.216906
C42   C     C_R   0.500286 0.592678 0.245172 -0.219233
C43   C     C_R   0.383422 0.277312 0.875707 -0.271814
C44   C     C_R   0.521302 0.711209 0.118376 -0.277701
C45   C     C_R   0.417251 0.307405 0.787021 0.551729
C46   C     C_R   0.540389 0.687185 0.207853 0.538205
H1    H     H_    0.098985 0.544159 0.639059 0.158030
H2    H     H_    0.900698 0.454284 0.366201 0.153462
H3    H     H_    0.552402 0.225930 0.538608 0.167761
H4    H     H_    0.441595 0.769624 0.465204 0.175310
H5    H     H_    0.875757 0.391500 0.626305 0.122225
H6    H     H_    0.122779 0.607259 0.378879 0.162396
H7    H     H_    0.012751 0.340114 0.493345 0.142203
H8    H     H_    0.982304 0.657236 0.515606 0.206789
H9    H     H_    0.363564 0.240384 0.047394 0.176874
H10   H     H_    0.449292 0.738559 0.956268 0.145300
H11   H     H_    0.383631 0.459710 0.226201 0.277529
H12   H     H_    0.471929 0.540013 0.787228 0.215548
H13   H     H_    0.364254 0.203614 0.900663 0.156405
H14   H     H_    0.549452 0.783868 0.089152 0.148599
H15   H     H_    0.803772 0.031307 0.610412 0.181140
H16   H     H_    0.212055 0.970124 0.368383 0.216266
N1    N     N_R   0.574200 0.731700 0.552740 -0.154583
N2    N     N_R   0.425800 0.268300 0.447260 -0.170861
O1    O     O_R   0.462600 0.383110 0.605620 -0.570299
O2    O     O_R   0.537400 0.616890 0.394380 -0.570358
O3    O     O_R   0.510210 0.531900 0.639510 -0.602784
O4    O     O_R   0.489790 0.468100 0.360490 -0.570253
O5    O     O_R   0.662240 0.425610 0.483080 -0.611695
O6    O     O_R   0.337760 0.574390 0.516920 -0.627020
O7    O     O_R   0.709860 0.574400 0.516970 -0.562532
O8    O     O_R   0.290140 0.425600 0.483030 -0.609751
Zn1   Zn    Zn3+2 0.468210 0.400660 0.477370 1.000640
Zn2   Zn    Zn3+2 0.531790 0.599340 0.522630 0.997996
O9    O     O_3   0.293795 0.319810 0.337839 -0.563953
C47   C     C_3   0.156708 0.309292 0.342754 -0.192820
H17   H     H_    0.139093 0.379383 0.340741 0.160122
H18   H     H_    0.108053 0.265529 0.403840 0.116076
H19   H     H_    0.111118 0.281405 0.284090 0.205585
O10   O     O_3   0.745144 0.691690 0.636061 -0.565854
C48   C     C_3   0.738871 0.667485 0.727809 -0.243857
H20   H     H_    0.743266 0.593805 0.743508 0.168956
H21   H     H_    0.646494 0.672793 0.759192 0.105613
H22   H     H_    0.826005 0.710630 0.756571 0.201926
O11   O     O_3   0.821295 0.873769 0.677486 -0.585886
C49   C     C_3   0.780936 0.890755 0.759415 -0.368662
H23   H     H_    0.868497 0.905632 0.800470 0.205714
H24   H     H_    0.708134 0.829090 0.794725 0.138433
H25   H     H_    0.739314 0.952331 0.753137 0.166888
O12   O     O_3   0.186242 0.130382 0.313152 -0.587505
C50   C     C_3   0.063354 0.086814 0.358025 -0.332641
H26   H     H_    0.990756 0.126972 0.336686 0.193656
H27   H     H_    0.066063 0.079451 0.430874 0.144953
H28   H     H_    0.024326 0.016539 0.339065 0.205985
C51   C     C_2   0.749213 0.168756 0.509304 0.320473
H29   H     H_    0.823696 0.195497 0.554575 0.048994
O13   O     O_2   0.748812 0.214049 0.437141 -0.576961
C52   C     C_2   0.251049 0.830753 0.479495 0.346255
H30   H     H_    0.257065 0.786923 0.540807 0.082328
O14   O     O_2   0.165214 0.801954 0.429365 -0.599726
O15   O     O_3   0.601820 0.754684 0.257546 -0.591155
C53   C     C_3   0.515462 0.810055 0.271215 -0.259975
H31   H     H_    0.560294 0.858013 0.317841 0.198604
H32   H     H_    0.418678 0.766726 0.300558 0.158915
H33   H     H_    0.500938 0.853886 0.209584 0.151628
O16   O     O_3   0.418410 0.242226 0.732307 -0.586170
C54   C     C_3   0.540474 0.219079 0.738950 -0.338904
H34   H     H_    0.623484 0.280817 0.715756 0.148530
H35   H     H_    0.556317 0.188775 0.806885 0.154776
H36   H     H_    0.540476 0.165285 0.696554 0.183229
O17   O     O_3   0.424540 0.345551 0.164592 -0.589042
C55   C     C_3   0.558729 0.345969 0.171132 -0.262502
H37   H     H_    0.624356 0.417171 0.151366 0.152085
H38   H     H_    0.583977 0.295954 0.131634 0.151591
H39   H     H_    0.577413 0.323431 0.240466 0.214270
O18   O     O_3   0.333301 0.612344 0.847526 -0.608070
C56   C     C_3   0.369069 0.705859 0.806219 -0.351420
H40   H     H_    0.477416 0.736240 0.804072 0.129349
H41   H     H_    0.316489 0.748536 0.838398 0.183537
H42   H     H_    0.337825 0.707684 0.737503 0.197077

loop_
_geom_bond_atom_site_label_1
_geom_bond_atom_site_label_2
_ccdc_geom_bond_type
C25   C31   A    
C14   H10   S    
C26   C32   A    
C18   O9    S    
C34   C37   S    
C31   H15   S    
C51   H29   S    
C47   H19   S    
C35   H1    S    
C55   H38   S    
C48   H20   S    
C24   O6    A    
O11   C49   S    
C16   O12   S    
O15   C53   S    
C34   C40   S    
C28   C29   A    
C35   C37   S    
C47   H18   S    
C2    O4    A    
C56   H41   S    
C49   H24   S    
C15   C25   A    
O16   C54   S    
O2    Zn2   S    
O1    Zn1   S    
O18   C56   S    
C53   H33   S    
C42   C46   A    
C23   O5    A    
C1    O3    A    
O17   C55   S    
C19   N1    A    
C4    H11   S    
O6    Zn2   S    
C1    O1    A    
N2    Zn1   S    
O5    Zn1   S    
C7    C43   A    
C9    C10   A    
C43   H13   S    
C15   O11   S    
C21   C27   A    
C38   C40   S    
C22   C28   A    
C27   C30   A    
C54   H35   S    
C55   H37   S    
C48   H21   S    
C44   C46   A    
C16   C26   A    
C37   C39   S    
C46   O15   S    
C11   O17   S    
C23   O7    A    
C47   H17   S    
C4    C6    A    
C56   H42   S    
C50   H26   S    
C5    C7    A    
C49   H23   S    
O10   C48   S    
C6    C8    A    
C3    C5    A    
O4    Zn1   S    
C17   O10   S    
C40   H8    S    
C20   N2    A    
O9    C47   S    
C5    C9    A    
C20   H3    S    
C50   H27   S    
C54   H34   S    
C24   C37   S    
O3    Zn2   S    
C33   C39   S    
C44   H14   S    
C53   H32   S    
C43   C45   A    
C1    C41   S    
C12   C14   A    
C52   O14   D    
C54   H36   S    
C48   H22   S    
C45   O16   S    
C24   O8    A    
C29   C51   S    
C15   C17   A    
C21   C25   A    
C3    C41   A    
C8    C14   A    
C19   C21   A    
C36   C39   S    
C8    C44   A    
C20   C22   A    
O8    Zn1   S    
C2    O2    A    
C49   H25   S    
C6    C10   A    
O7    Zn2   S    
C51   O13   D    
N1    Zn2   S    
C33   H5    S    
C23   C38   S    
C30   C52   S    
C34   H6    S    
C33   C38   S    
C36   C38   S    
C35   C40   S    
C32   H16   S    
C29   C31   A    
C56   H40   S    
C17   N1    A    
C50   H28   S    
C30   C32   A    
C11   C13   A    
C19   H4    S    
C18   N2    A    
O12   C50   S    
C39   H7    S    
C4    C42   A    
C2    C42   S    
C33   C35   S    
C36   H2    S    
C34   C36   S    
C53   H31   S    
C9    C12   A    
C10   C11   A    
C3    H12   S    
C7    C13   A    
C16   C18   A    
C52   H30   S    
C22   C26   A    
C27   C28   A    
C41   C45   A    
C13   H9    S    
C55   H39   S    
C12   O18   S    
