data_mof_unit_40051.cif
_audit_creation_date              2012-12-10T17:11:59-0500
_audit_creation_method            fapswitch 2.2
_symmetry_space_group_name_H-M    P1
_symmetry_Int_Tables_number       1
_space_group_crystal_system       triclinic
_cell_length_a                    11.656326
_cell_length_b                    13.015355
_cell_length_c                    15.658605
_cell_angle_alpha                 92.196907
_cell_angle_beta                  74.216926
_cell_angle_gamma                 99.901399
_cell_volume                      2251.88345258

loop_
_atom_site_label
_atom_site_type_symbol
_atom_type_description
_atom_site_fract_x
_atom_site_fract_y
_atom_site_fract_z
_atom_type_partial_charge
C1    C     C_R   0.520837 0.700886 0.501357 0.832849
C2    C     C_R   0.479134 0.299125 0.498708 0.836555
C3    C     C_R   0.351037 0.399480 0.087175 0.376609
C4    C     C_R   0.637496 0.428607 0.908794 0.365413
C5    C     C_R   0.264186 0.394276 0.038583 0.317570
C6    C     C_R   0.725033 0.441754 0.957264 0.317588
C7    C     C_R   0.466995 0.185765 0.497788 -0.128394
C8    C     C_R   0.532892 0.814273 0.502458 -0.130312
C9    C     C_R   0.651629 0.985063 0.512225 0.416596
C10   C     C_R   0.348180 0.014996 0.488174 0.417063
C11   C     C_R   0.639953 0.876191 0.511045 -0.292763
C12   C     C_R   0.359954 0.123867 0.489161 -0.297393
C13   C     C_R   0.436501 0.860634 0.495004 -0.220042
C14   C     C_R   0.563277 0.139412 0.505469 -0.222459
C15   C     C_R   0.445654 0.968715 0.495892 0.057317
C16   C     C_R   0.554116 0.031335 0.504590 0.056595
C17   C     C_R   0.939914 0.594441 0.584401 -0.311461
C18   C     C_R   0.060079 0.405374 0.415628 -0.309958
C19   C     C_R   0.821660 0.585636 0.575998 0.111694
C20   C     C_R   0.178358 0.414271 0.424030 0.104296
C21   C     C_R   0.859879 0.459296 0.463263 0.033305
C22   C     C_R   0.140060 0.540593 0.536773 0.031247
C23   C     C_R   0.426735 0.493144 0.668783 0.826957
C24   C     C_R   0.572941 0.503479 0.331172 0.833910
C25   C     C_R   0.979791 0.465619 0.469284 0.058513
C26   C     C_R   0.020149 0.534176 0.530764 0.065409
C27   C     C_R   0.381617 0.474383 0.765263 -0.158202
C28   C     C_R   0.615785 0.494612 0.234018 -0.158681
C29   C     C_R   0.217795 0.415187 0.895679 0.525648
C30   C     C_R   0.775856 0.477591 0.100187 0.540962
C31   C     C_R   0.258518 0.444054 0.805822 -0.311251
C32   C     C_R   0.736946 0.490602 0.192177 -0.312589
C33   C     C_R   0.464236 0.477479 0.815506 -0.142918
C34   C     C_R   0.532583 0.482858 0.183572 -0.148985
C35   C     C_R   0.427988 0.442093 0.904047 -0.026316
C36   C     C_R   0.565037 0.456034 0.093363 -0.026988
C37   C     C_R   0.302227 0.417436 0.946806 -0.087004
C38   C     C_R   0.689686 0.458512 0.049662 -0.078264
C39   C     C_R   0.514723 0.436331 0.951684 -0.121525
C40   C     C_R   0.476367 0.432328 0.045213 -0.116827
Cu1   Cu    Cu3+1 0.386820 0.492450 0.493500 0.943088
Cu2   Cu    Cu3+1 0.613180 0.507550 0.506500 0.946620
H1    H     H_    0.239741 0.367584 0.382507 0.146524
H2    H     H_    0.760322 0.632356 0.617529 0.120145
H3    H     H_    0.968251 0.647917 0.632367 0.142394
H4    H     H_    0.031826 0.351912 0.367612 0.152525
H5    H     H_    0.442321 0.496894 0.215571 0.215960
H6    H     H_    0.557316 0.510636 0.784941 0.209776
H7    H     H_    0.802444 0.498200 0.230592 0.174227
H8    H     H_    0.193147 0.441916 0.767814 0.176686
H9    H     H_    0.645716 0.187928 0.512163 0.213922
H10   H     H_    0.354020 0.812119 0.488394 0.214953
H11   H     H_    0.285469 0.160063 0.483082 0.154137
H12   H     H_    0.714530 0.840007 0.516942 0.155440
H13   H     H_    0.172327 0.593066 0.583732 0.123247
H14   H     H_    0.827588 0.406848 0.416294 0.123451
N1    N     N_R   0.216750 0.481110 0.483710 -0.188402
N2    N     N_R   0.783250 0.518890 0.516290 -0.182842
O1    O     O_R   0.419950 0.645670 0.495380 -0.589906
O2    O     O_R   0.580050 0.354330 0.504620 -0.588662
O3    O     O_R   0.611110 0.658410 0.506370 -0.590446
O4    O     O_R   0.388890 0.341590 0.493630 -0.590763
O5    O     O_R   0.350820 0.490050 0.621260 -0.585258
O6    O     O_R   0.649180 0.509950 0.378740 -0.584778
O7    O     O_R   0.541970 0.502800 0.632250 -0.580053
O8    O     O_R   0.458030 0.497200 0.367750 -0.582412
O9    O     O_3   0.141860 0.367210 0.079789 -0.670396
H15   H     H_    0.127511 0.363890 0.144954 0.357154
O10   O     O_3   0.845408 0.438607 0.915453 -0.672438
H16   H     H_    0.859165 0.436091 0.850267 0.355042
O11   O     O_3   0.094699 0.389111 0.933630 -0.483660
C41   C     C_3   0.055370 0.286335 0.909309 -0.141554
H17   H     H_    0.106699 0.230183 0.928092 0.126665
H18   H     H_    0.061868 0.281344 0.837128 0.111969
H19   H     H_    0.958799 0.262836 0.945620 0.206626
O12   O     O_3   0.897134 0.475261 0.061590 -0.482229
C42   C     C_3   0.961605 0.578119 0.055352 -0.156936
H20   H     H_    0.960514 0.611141 0.122079 0.111205
H21   H     H_    0.925875 0.629566 0.017192 0.130227
H22   H     H_    0.057400 0.576751 0.019145 0.207136
O13   O     O_3   0.312342 0.364613 0.174422 -0.614099
C43   C     C_3   0.326464 0.259337 0.176336 -0.342558
H23   H     H_    0.423251 0.250507 0.152068 0.178334
H24   H     H_    0.271986 0.209489 0.137181 0.171230
H25   H     H_    0.293247 0.231020 0.246093 0.185364
O14   O     O_3   0.672066 0.400917 0.820355 -0.604415
C44   C     C_3   0.645290 0.291433 0.814505 -0.307415
H26   H     H_    0.546349 0.262589 0.838580 0.166905
H27   H     H_    0.695115 0.252419 0.851588 0.160293
H28   H     H_    0.674862 0.269345 0.743754 0.203177
O15   O     O_3   0.756778 0.047171 0.520695 -0.756304
H29   H     H_    0.815490 0.002183 0.525220 0.320838
O16   O     O_3   0.243015 0.952900 0.479727 -0.753968
H30   H     H_    0.184358 0.997901 0.475106 0.320471

loop_
_geom_bond_atom_site_label_1
_geom_bond_atom_site_label_2
_ccdc_geom_bond_type
C6    O10   S    
C44   H26   S    
O16   H30   S    
C5    C37   A    
C1    C8    S    
Cu1   Cu2   S    
C2    C7    S    
C5    O9    S    
Cu2   N2    S    
C22   N1    A    
O13   C43   S    
C42   H20   S    
C27   C33   A    
C8    C13   A    
C17   C26   A    
C35   C37   A    
C9    C16   A    
C17   H3    S    
C10   C15   A    
C1    O1    A    
C2    O2    A    
C4    O14   S    
C15   C16   A    
C30   C38   A    
C17   C19   A    
C7    C14   A    
C3    O13   S    
Cu2   O7    S    
C6    C38   A    
C23   C27   S    
C18   C20   A    
C12   H11   S    
C24   O8    A    
C23   O5    A    
C28   C34   A    
C24   O6    A    
C9    O15   S    
C18   C25   A    
Cu1   O4    S    
C41   H19   S    
C18   H4    S    
C42   H21   S    
C19   N2    A    
C7    C12   A    
C27   C31   A    
O9    H15   S    
C28   C32   A    
O12   C42   S    
Cu1   O1    S    
C41   H18   S    
Cu2   O2    S    
O15   H29   S    
O14   C44   S    
C10   O16   S    
C25   C26   A    
C35   C39   A    
C13   H10   S    
C30   O12   S    
C14   H9    S    
C4    C39   A    
C36   C40   A    
C9    C11   A    
Cu2   O3    S    
C22   H13   S    
C11   H12   S    
C10   C12   A    
C4    C6    A    
C3    C40   A    
C43   H24   S    
C44   H27   S    
C14   C16   A    
Cu1   O5    S    
C31   H8    S    
Cu2   O6    S    
C39   C40   A    
C20   H1    S    
C19   H2    S    
C42   H22   S    
C21   C25   A    
C24   C28   S    
C41   H17   S    
C3    C5    A    
C1    O3    A    
C21   H14   S    
Cu1   O8    S    
C43   H25   S    
C23   O7    A    
C13   C15   A    
Cu1   N1    S    
C21   N2    A    
C29   C31   A    
C30   C32   A    
C8    C11   A    
C36   C38   A    
C33   C35   A    
C34   C36   A    
O10   H16   S    
C32   H7    S    
O11   C41   S    
C43   H23   S    
C22   C26   A    
C44   H28   S    
C29   C37   A    
C33   H6    S    
C34   H5    S    
C20   N1    A    
C2    O4    A    
C29   O11   S    
