data_mof_unit_18468.cif
_audit_creation_date              2013-03-05T15:48:30-0500
_audit_creation_method            fapswitch 2.2
_symmetry_space_group_name_H-M    P1
_symmetry_Int_Tables_number       1
_space_group_crystal_system       triclinic
_cell_length_a                    20.146796
_cell_length_b                    7.127857
_cell_length_c                    13.668415
_cell_angle_alpha                 89.999977
_cell_angle_beta                  103.547716
_cell_angle_gamma                 89.999981
_cell_volume                      1908.21650564

loop_
_atom_site_label
_atom_site_type_symbol
_atom_site_description
_atom_site_fract_x
_atom_site_fract_y
_atom_site_fract_z
_atom_type_partial_charge
O1    O     O_R   0.449830 0.506740 0.599960 -0.571716
O2    O     O_R   0.550170 0.006740 0.400040 -0.571698
O3    O     O_R   0.588980 0.179860 0.596720 -0.538404
O4    O     O_R   0.411020 0.679860 0.403280 -0.538420
C1    C     C_R   0.616064 0.344242 0.619253 1.044015
C2    C     C_R   0.383936 0.844242 0.380746 1.043954
O5    O     O_R   0.452740 0.177340 0.612040 -0.606787
O6    O     O_R   0.547260 0.677340 0.387960 -0.606783
O7    O     O_R   0.412960 0.002070 0.415460 -0.609920
O8    O     O_R   0.587040 0.502070 0.584540 -0.609917
C3    C     C_R   0.436404 0.345753 0.637520 0.933881
C4    C     C_R   0.563596 0.845753 0.362480 0.933896
O9    O     O_3   0.487110 0.337570 0.435490 -0.257719
O10   O     O_3   0.512890 0.837570 0.564510 -0.257711
V1    V     V_3+5 0.502390 0.064650 0.511970 1.276545
V2    V     V_3+5 0.497610 0.564650 0.488030 1.276536
C5    C     C_R   0.606361 0.864603 0.111391 -0.080875
C6    C     C_R   0.393640 0.364599 0.888610 -0.080868
H1    H     H_    0.513564 0.859404 0.162326 0.151942
H2    H     H_    0.486436 0.359399 0.837675 0.151928
H3    H     H_    0.685545 0.871258 0.985778 0.187916
H4    H     H_    0.314456 0.371254 0.014223 0.187905
H5    H     H_    0.579267 0.868447 0.032890 0.149985
H6    H     H_    0.420733 0.368441 0.967111 0.149986
C7    C     C_R   0.602639 0.854132 0.285763 -0.088976
C8    C     C_R   0.397362 0.354132 0.714237 -0.088960
C9    C     C_R   0.931114 0.855877 0.315332 -0.206679
C10   C     C_R   0.068886 0.355873 0.684669 -0.206678
C11   C     C_R   0.896061 0.852078 0.391309 -0.080830
C12   C     C_R   0.103940 0.352071 0.608691 -0.080810
C13   C     C_R   0.825051 0.853089 0.368174 -0.148640
C14   C     C_R   0.174950 0.353083 0.631826 -0.148673
C15   C     C_R   0.786614 0.857422 0.267026 0.028871
C16   C     C_R   0.213386 0.357420 0.732974 0.028847
C17   C     C_R   0.822739 0.860813 0.188431 0.021568
C18   C     C_R   0.177262 0.360812 0.811570 0.021572
C19   C     C_R   0.713545 0.858528 0.241715 0.071891
C20   C     C_R   0.286456 0.358526 0.758286 0.071899
C21   C     C_R   0.678024 0.863704 0.139018 0.133478
C22   C     C_R   0.321977 0.363701 0.860983 0.133491
C23   C     C_R   0.713723 0.867140 0.063834 -0.338631
C24   C     C_R   0.286277 0.367138 0.936166 -0.338628
C25   C     C_R   0.785138 0.864775 0.086690 0.422902
C26   C     C_R   0.214863 0.364776 0.913311 0.422895
C27   C     C_R   0.673988 0.854093 0.314596 -0.207589
C28   C     C_R   0.326012 0.354093 0.685405 -0.207697
C29   C     C_R   0.568859 0.859533 0.184532 -0.163701
C30   C     C_R   0.431142 0.359529 0.815468 -0.163706
C31   C     C_R   0.895694 0.860251 0.214457 -0.160394
C32   C     C_R   0.104307 0.360250 0.785543 -0.160382
H7    H     H_    0.696550 0.849372 0.394226 0.119721
H8    H     H_    0.303450 0.349375 0.605774 0.119729
H9    H     H_    0.986457 0.855874 0.335347 0.125495
H10   H     H_    0.013543 0.355869 0.664654 0.125416
H11   H     H_    0.802023 0.850663 0.431698 0.118374
H12   H     H_    0.197978 0.350654 0.568302 0.118413
H13   H     H_    0.924230 0.848831 0.469189 0.122845
H14   H     H_    0.075770 0.348822 0.530811 0.122851
C33   C     C_3   0.229014 0.697636 0.161102 -0.726341
C34   C     C_3   0.770980 0.197659 0.838911 -0.726334
H15   H     H_    0.200390 0.565777 0.163206 0.266506
H16   H     H_    0.799602 0.065792 0.836814 0.266502
H17   H     H_    0.234771 0.717012 0.082697 0.209803
H18   H     H_    0.765225 0.217054 0.917315 0.209787
C35   C     C_3   0.300555 0.682292 0.234536 0.473833
C36   C     C_3   0.699440 0.182315 0.765478 0.473809
H19   H     H_    0.339731 0.687196 0.189597 0.151104
H20   H     H_    0.660263 0.187250 0.810415 0.151111
H21   H     H_    0.165116 0.678484 0.307603 0.109451
H22   H     H_    0.834881 0.178437 0.692419 0.109305
C37   C     C_3   0.183546 0.825064 0.302357 0.228840
C38   C     C_3   0.816454 0.325028 0.697649 0.228542
C39   C     C_3   0.227431 0.046251 0.182862 0.305768
C40   C     C_3   0.772572 0.546265 0.817125 0.305772
C41   C     C_3   0.186816 0.860873 0.190701 -0.152940
C42   C     C_3   0.813183 0.360874 0.809301 -0.152804
H23   H     H_    0.229624 0.059644 0.102790 0.150801
H24   H     H_    0.770376 0.559671 0.897194 0.150788
C43   C     C_3   0.312763 0.850158 0.311190 -0.332203
C44   C     C_3   0.687238 0.350159 0.688809 -0.332337
C45   C     C_3   0.256526 0.846944 0.373900 0.218357
C46   C     C_3   0.743476 0.346899 0.626101 0.218563
C47   C     C_3   0.301831 0.037339 0.249715 -0.059062
C48   C     C_3   0.698174 0.537359 0.750266 -0.059023
H25   H     H_    0.308400 0.153209 0.305584 0.165205
H26   H     H_    0.691611 0.653209 0.694387 0.165148
H27   H     H_    0.259099 0.983163 0.414986 0.084325
H28   H     H_    0.740908 0.483090 0.584993 0.084523
O11   O     O_R   0.912980 0.203550 0.915410 -0.600538
O12   O     O_R   0.087020 0.703550 0.084590 -0.600540
O13   O     O_R   0.047270 0.535570 0.887960 -0.590888
O14   O     O_R   0.952730 0.035570 0.112040 -0.590888
C49   C     C_R   0.063139 0.368057 0.861126 1.063913
C50   C     C_R   0.936861 0.868057 0.138874 1.063931
O15   O     O_R   0.911030 0.532970 0.903270 -0.527082
O16   O     O_R   0.088970 0.032970 0.096730 -0.527076
O17   O     O_R   0.949820 0.708150 0.099970 -0.593373
O18   O     O_R   0.050180 0.208150 0.900030 -0.593376
C51   C     C_R   0.884211 0.365227 0.880726 1.009288
C52   C     C_R   0.115788 0.865227 0.119275 1.009323
O19   O     O_3   0.012900 0.375230 0.064480 -0.275848
O20   O     O_3   0.987100 0.875230 0.935520 -0.275852
V3    V     V_3+5 0.997610 0.648190 0.988040 1.257458
V4    V     V_3+5 0.002390 0.148190 0.011960 1.257460
O21   O     O_3   0.309121 0.506835 0.283050 -0.693521
H29   H     H_    0.269441 0.483343 0.312444 0.352272
O22   O     O_3   0.690868 0.006844 0.716979 -0.693483
H30   H     H_    0.730547 0.983330 0.687585 0.352259
O23   O     O_3   0.269043 0.702611 0.446035 -0.768923
H31   H     H_    0.238699 0.725764 0.492478 0.310038
O24   O     O_3   0.730953 0.202552 0.553976 -0.768770
H32   H     H_    0.761457 0.225418 0.507693 0.309904
O25   O     O_3   0.193059 0.206304 0.206330 -0.729254
H33   H     H_    0.196734 0.209319 0.279834 0.341952
O26   O     O_3   0.806949 0.706306 0.793655 -0.729257
H34   H     H_    0.803277 0.709312 0.720152 0.341961
N1    N     N_R   0.353001 0.066666 0.189861 0.229043
O27   O     O_R   0.349395 0.977794 0.105571 -0.472930
O28   O     O_R   0.398633 0.197916 0.215719 -0.362065
N2    N     N_R   0.647002 0.566729 0.810113 0.229058
O29   O     O_R   0.650599 0.477878 0.894406 -0.472945
O30   O     O_R   0.601377 0.697992 0.784243 -0.362001
O31   O     O_3   0.136811 0.947336 0.331174 -0.787520
H35   H     H_    0.129545 0.899932 0.396185 0.304738
O32   O     O_3   0.863187 0.447295 0.668822 -0.787512
H36   H     H_    0.870559 0.399665 0.603919 0.304706
O33   O     O_3   0.818444 0.865804 0.009528 -0.756316
H37   H     H_    0.784092 0.861400 0.945048 0.347600
O34   O     O_3   0.181557 0.365809 0.990472 -0.756310
H38   H     H_    0.215909 0.361412 0.054953 0.347610

loop_
_geom_bond_atom_site_label_1
_geom_bond_atom_site_label_2
_geom_bond_distance
_ccdc_geom_bond_type
C36   H20   1.108423 S    
C35   C43   1.571373 S    
C7    C27   1.398642 A    
C9    C11   1.386199 A    
C23   C25   1.399064 A    
O24   H32   0.993277 S    
O1    C3    1.310925 A    
C36   O22   1.407110 S    
C44   C48   1.564585 S    
O2    C4    1.310926 A    
C2    O7    1.304850 A    
O3    V1    2.028002 S    
O31   H35   0.993048 S    
C21   C23   1.385718 A    
C42   C51   1.532086 S    
O5    C3    1.313137 A    
C5    H5    1.084248 S    
C40   C42   1.570999 S    
O11   C51   1.326646 A    
C6    H6    1.084248 S    
C37   O31   1.405351 S    
C48   H26   1.111493 S    
O34   H38   0.985378 S    
N1    O28   1.301192 A    
C40   C48   1.563357 S    
O15   C51   1.318503 A    
C27   H7    1.077319 S    
O26   H34   0.990196 S    
C28   H8    1.077319 S    
C39   O25   1.409957 S    
C34   H16   1.106583 S    
C5    C21   1.404175 A    
O12   C52   1.326648 A    
H21   C37   1.116739 S    
C6    C22   1.404177 A    
C12   H14   1.082926 S    
C10   C32   1.396534 A    
O15   V3    2.027986 S    
C35   H19   1.108427 S    
C17   C31   1.428958 A    
O22   H30   0.989466 S    
C13   C15   1.417892 A    
C31   C50   1.469611 S    
C12   C14   1.390968 A    
C17   C25   1.419502 A    
C7    C29   1.392116 A    
C46   H28   1.116745 S    
C8    C30   1.392116 A    
O5    V1    2.039031 S    
C34   C36   1.555318 S    
O6    V2    2.039032 S    
C37   C41   1.563894 S    
C39   C41   1.571003 S    
C24   C26   1.399064 A    
C35   O21   1.407111 S    
N2    O30   1.301182 A    
C33   H15   1.106588 S    
C11   H13   1.082926 S    
C44   C46   1.572860 S    
C25   O33   1.376302 S    
C43   C45   1.572854 S    
C10   H10   1.084033 S    
C3    C8    1.451991 S    
C26   O34   1.376301 S    
C34   C42   1.549639 S    
C15   C19   1.431177 A    
C14   C16   1.417892 A    
O4    V2    2.028002 S    
O13   C49   1.310472 A    
O14   V4    2.039074 S    
C48   N2    1.473406 S    
O14   C50   1.310471 A    
H1    C29   1.083845 S    
C38   C42   1.563881 S    
O1    V2    2.031649 S    
H2    C30   1.083843 S    
C1    C44   1.524159 S    
O20   V4    2.195718 S    
O2    V1    2.031649 S    
O17   V3    2.034799 S    
H3    C23   1.085206 S    
O4    C2    1.298743 A    
C47   H25   1.111491 S    
C45   O23   1.406287 S    
O19   V4    1.762917 S    
O16   V4    2.027986 S    
O11   V4    2.007066 S    
O32   H36   0.992993 S    
C18   C26   1.419502 A    
C19   C27   1.414357 A    
O33   H37   0.985376 S    
C33   C41   1.549640 S    
C18   C32   1.428958 A    
N2    O29   1.301794 A    
O25   H33   0.990194 S    
O19   V3    2.195717 S    
C16   C20   1.431175 A    
C5    C29   1.387622 A    
O13   V3    2.039073 S    
O3    C1    1.298745 A    
C6    C30   1.387622 A    
C9    H9    1.084035 S    
C32   C49   1.469610 S    
C36   C44   1.571376 S    
O21   H29   0.989467 S    
C4    C7    1.451991 S    
C33   H17   1.113205 S    
C50   O17   1.309615 A    
C38   O32   1.405358 S    
C34   H18   1.113205 S    
C46   O24   1.406272 S    
C47   N1    1.473403 S    
C10   C12   1.386197 A    
O7    V1    2.017869 S    
C1    O8    1.304848 A    
C19   C21   1.418885 A    
O8    V2    2.017872 S    
O23   H31   0.992853 S    
C33   C35   1.555316 S    
C20   C22   1.418886 A    
C45   H27   1.116768 S    
C2    C43   1.524159 S    
H4    C24   1.085208 S    
O18   V4    2.034799 S    
C40   O26   1.409957 S    
O16   C52   1.318504 A    
C22   C24   1.385718 A    
C41   C52   1.532086 S    
C15   C17   1.432003 A    
C14   H12   1.076182 S    
C16   C18   1.432004 A    
O20   V3    1.762916 S    
O12   V3    2.007065 S    
C20   C28   1.414356 A    
C8    C28   1.398642 A    
C43   C47   1.564586 S    
C9    C31   1.396532 A    
C11   C13   1.390968 A    
C40   H24   1.109751 S    
O9    V2    1.763276 S    
C39   H23   1.109754 S    
O10   V1    1.763276 S    
H22   C38   1.116754 S    
C13   H11   1.076182 S    
N1    O27   1.301799 A    
C49   O18   1.309614 A    
C39   C47   1.563363 S    
C38   C46   1.571234 S    
O6    C4    1.313138 A    
C37   C45   1.571232 S    
