data_mof_unit_31705.cif
_audit_creation_date              2012-12-10T18:57:04-0500
_audit_creation_method            fapswitch 2.2
_symmetry_space_group_name_H-M    P1
_symmetry_Int_Tables_number       1
_space_group_crystal_system       triclinic
_cell_length_a                    10.713341
_cell_length_b                    9.834242
_cell_length_c                    10.684525
_cell_angle_alpha                 89.9226
_cell_angle_beta                  90.147861
_cell_angle_gamma                 90.00776
_cell_volume                      1125.69099778

loop_
_atom_site_label
_atom_site_type_symbol
_atom_type_description
_atom_site_fract_x
_atom_site_fract_y
_atom_site_fract_z
_atom_type_partial_charge
C1    C     C_R   0.259887 0.499946 0.500069 0.870299
C2    C     C_R   0.740123 0.499952 0.500157 0.858720
C3    C     C_R   0.578613 0.071869 0.576919 -0.082464
C4    C     C_R   0.421204 0.072065 0.423276 -0.081712
C5    C     C_R   0.578631 0.927914 0.576901 -0.080201
C6    C     C_R   0.421041 0.928125 0.423464 -0.046891
C7    C     C_R   0.503903 0.500161 0.259898 0.880084
C8    C     C_R   0.503436 0.499964 0.740105 0.907083
C9    C     C_R   0.524234 0.623840 0.063850 0.103881
C10   C     C_R   0.521737 0.623327 0.936051 0.056621
C11   C     C_R   0.523823 0.500953 0.128699 -0.117173
C12   C     C_R   0.522291 0.500464 0.871473 -0.091991
C13   C     C_R   0.547003 0.378891 0.065001 -0.225056
C14   C     C_R   0.546577 0.378725 0.935560 -0.236260
C15   C     C_3   0.435612 0.743646 0.929129 -0.145272
C16   C     C_3   0.438796 0.744333 0.072267 -0.152906
C17   C     C_R   0.063858 0.379643 0.472518 -0.200075
C18   C     C_R   0.935981 0.379637 0.472584 -0.198033
C19   C     C_R   0.872563 0.499924 0.500395 -0.007284
C20   C     C_R   0.127454 0.499923 0.500320 -0.012505
C21   C     C_R   0.936154 0.620165 0.528387 -0.198994
C22   C     C_R   0.064049 0.620162 0.528360 -0.197514
H1    H     H_    0.556857 0.282994 0.114081 0.170739
H2    H     H_    0.556620 0.282827 0.886813 0.165430
H3    H     H_    0.478868 0.833394 0.882837 0.164747
H4    H     H_    0.348629 0.721684 0.119484 0.157871
H5    H     H_    0.112545 0.286309 0.449868 0.151983
H6    H     H_    0.887152 0.286289 0.450010 0.156600
H7    H     H_    0.887446 0.713490 0.551023 0.152007
H8    H     H_    0.112905 0.713483 0.550988 0.158470
H9    H     H_    0.641416 0.126386 0.638410 0.122566
H10   H     H_    0.358282 0.126715 0.361888 0.120452
H11   H     H_    0.641428 0.873216 0.638390 0.118224
H12   H     H_    0.357874 0.873595 0.362364 0.128012
N1    N     N_R   0.500000 0.857200 0.500000 -0.075353
N2    N     N_R   0.500000 0.142810 0.500000 -0.077591
O1    O     O_R   0.316770 0.614620 0.499990 -0.626767
O2    O     O_R   0.683230 0.614620 0.500010 -0.628772
O3    O     O_R   0.316800 0.385290 0.500000 -0.626266
O4    O     O_R   0.683200 0.385290 0.500000 -0.630067
O5    O     O_R   0.500000 0.614690 0.316780 -0.601012
O6    O     O_R   0.500000 0.614690 0.683220 -0.605935
O7    O     O_R   0.500020 0.385360 0.316780 -0.628219
O8    O     O_R   0.499980 0.385360 0.683220 -0.630353
Zn1   Zn    Zn3+2 0.500000 0.653120 0.500000 0.958199
Zn2   Zn    Zn3+2 0.500000 0.346880 0.500000 0.939411
N3    N     N_3   0.312677 0.709454 0.877523 -0.433990
H13   H     H_    0.275088 0.625571 0.924656 0.186382
H14   H     H_    0.253414 0.791893 0.894085 0.183629
N4    N     N_3   0.502194 0.863327 0.124705 -0.435229
H15   H     H_    0.585942 0.881501 0.077253 0.188242
H16   H     H_    0.444789 0.947793 0.109713 0.174233

loop_
_geom_bond_atom_site_label_1
_geom_bond_atom_site_label_2
_ccdc_geom_bond_type
N4    H16   S    
C4    N2    A    
N2    Zn2   S    
C1    O1    A    
C11   C13   A    
C9    C10   A    
C2    O2    A    
N3    H13   S    
C15   N3    S    
C8    C12   S    
C17   C18   A    
C12   C14   A    
N3    H14   S    
C13   C14   A    
C3    H9    S    
C9    C11   A    
C8    O8    A    
C4    H10   S    
C10   C12   A    
C3    N2    A    
O3    Zn2   S    
C5    N1    A    
C1    C20   S    
C19   C21   A    
C9    C16   S    
C20   C22   A    
C7    C11   S    
C7    O7    A    
C10   C15   S    
C7    O5    A    
C16   H4    S    
C16   N4    S    
O7    Zn2   S    
C15   H3    S    
O4    Zn2   S    
O1    Zn1   S    
C15   C16   S    
N1    Zn1   S    
C5    H11   S    
C2    O4    A    
C17   C20   A    
C18   H6    S    
C6    N1    A    
C13   H1    S    
C4    C6    A    
C18   C19   A    
C14   H2    S    
C1    O3    A    
O2    Zn1   S    
O5    Zn1   S    
C22   H8    S    
N4    H15   S    
C2    C19   S    
C21   C22   A    
C21   H7    S    
O8    Zn2   S    
C6    H12   S    
C8    O6    A    
C3    C5    A    
O6    Zn1   S    
C17   H5    S    
