data_mof_unit_17136.cif
_audit_creation_date              2012-12-11T15:32:41-0500
_audit_creation_method            fapswitch 2.2
_symmetry_space_group_name_H-M    P1
_symmetry_Int_Tables_number       1
_space_group_crystal_system       triclinic
_cell_length_a                    6.953444
_cell_length_b                    20.451586
_cell_length_c                    24.399683
_cell_angle_alpha                 89.573802
_cell_angle_beta                  90.467461
_cell_angle_gamma                 89.441336
_cell_volume                      3469.47500295

loop_
_atom_site_label
_atom_site_type_symbol
_atom_type_description
_atom_site_fract_x
_atom_site_fract_y
_atom_site_fract_z
_atom_type_partial_charge
O1    O     O_R   0.507320 0.423560 0.460500 -0.536273
O2    O     O_R   0.170760 0.556250 0.437010 -0.536876
O3    O     O_R   0.004030 0.576440 0.539500 -0.536476
C1    C     C_R   0.338773 0.576416 0.421038 0.724414
O4    O     O_R   0.177370 0.422820 0.454110 -0.538058
O5    O     O_R   0.010680 0.442050 0.556720 -0.535227
C2    C     C_R   0.346304 0.398909 0.443450 0.693874
O6    O     O_R   0.500680 0.557950 0.443280 -0.535194
O7    O     O_3   0.340380 0.506470 0.533650 -0.366797
V1    V     V_3+5 0.064130 0.498800 0.493760 1.423868
O8    O     O_R   0.681160 0.443750 0.562990 -0.537720
C3    C     C_R   0.850911 0.423669 0.578882 0.725962
O9    O     O_R   0.674560 0.577180 0.545890 -0.537869
C4    C     C_R   0.842647 0.601090 0.556564 0.693908
V2    V     V_3+5 0.564560 0.501200 0.506240 1.424138
O10   O     O_3   0.838180 0.493530 0.466350 -0.366864
C5    C     C_R   0.976625 0.838153 0.911228 -0.041766
C6    C     C_R   0.847272 0.661793 0.588754 -0.041818
C7    C     C_R   0.043050 0.722173 0.905988 -0.163838
C8    C     C_R   0.033257 0.779449 0.936284 -0.168672
C9    C     C_R   0.930298 0.839324 0.854984 -0.215580
C10   C     C_R   0.942496 0.781564 0.822703 0.086492
C11   C     C_R   0.999692 0.722718 0.849700 0.141192
C12   C     C_R   0.902759 0.780107 0.764784 0.058397
C13   C     C_R   0.921044 0.719835 0.735203 0.058398
C14   C     C_R   0.977791 0.663061 0.764559 -0.188295
C15   C     C_R   0.015722 0.664659 0.820460 -0.203766
C16   C     C_R   0.845967 0.836877 0.735430 -0.188307
C17   C     C_R   0.808009 0.835277 0.679531 -0.203763
C18   C     C_R   0.824075 0.777220 0.650289 0.141192
C19   C     C_R   0.881326 0.718379 0.677283 0.086496
C20   C     C_R   0.780701 0.777763 0.594001 -0.163839
C21   C     C_R   0.790553 0.720491 0.563702 -0.168629
C22   C     C_R   0.893607 0.660624 0.644998 -0.215555
H1    H     H_    0.059453 0.619697 0.841061 0.120335
H2    H     H_    0.933834 0.613775 0.662229 0.093367
H3    H     H_    0.752487 0.721845 0.520551 0.105190
H4    H     H_    0.764232 0.880235 0.658932 0.120334
H5    H     H_    0.087466 0.677289 0.926556 0.110840
H6    H     H_    0.071320 0.778093 0.979436 0.105150
H7    H     H_    0.890164 0.886179 0.837747 0.093356
H8    H     H_    0.995035 0.616104 0.745507 0.122003
H9    H     H_    0.828680 0.883831 0.754485 0.122002
H10   H     H_    0.736234 0.822644 0.573437 0.110843
C23   C     C_3   0.915816 0.311123 0.769607 -0.138756
C24   C     C_3   0.079484 0.259578 0.776469 -0.137066
H11   H     H_    0.217809 0.267213 0.798443 0.106108
H12   H     H_    0.918608 0.361792 0.785563 0.107522
H13   H     H_    0.179376 0.234619 0.686211 0.105167
C25   C     C_1   0.960705 0.121795 0.875256 -0.194796
C26   C     C_1   0.863612 0.378153 0.624715 -0.194802
C27   C     C_3   0.765806 0.258533 0.784829 -0.137367
C28   C     C_3   0.929252 0.207617 0.791077 0.169732
C29   C     C_3   0.744849 0.240370 0.723502 -0.137069
C30   C     C_3   0.895081 0.292331 0.708893 0.169732
C31   C     C_3   0.908517 0.188825 0.730364 -0.138762
C32   C     C_3   0.058527 0.241415 0.715141 -0.137370
C33   C     C_1   0.947480 0.160308 0.837217 -0.066034
C34   C     C_1   0.876847 0.339640 0.662754 -0.066033
H14   H     H_    0.905724 0.138156 0.714408 0.107519
H15   H     H_    0.606523 0.232735 0.701527 0.106105
H16   H     H_    0.644957 0.265329 0.813760 0.105172
C35   C     C_3   0.593549 0.745868 0.231814 -0.139282
C36   C     C_3   0.447091 0.689132 0.232350 -0.136693
H17   H     H_    0.475690 0.638673 0.217848 0.107310
H18   H     H_    0.743514 0.742558 0.216727 0.106952
H19   H     H_    0.188423 0.724732 0.175122 0.106222
C37   C     C_1   0.348668 0.622075 0.375044 -0.195225
C38   C     C_1   0.475518 0.878028 0.125022 -0.195210
C39   C     C_3   0.534569 0.764007 0.290999 -0.139549
C40   C     C_3   0.388358 0.707863 0.290954 0.169957
C41   C     C_3   0.377074 0.810996 0.267733 -0.136684
C42   C     C_3   0.435807 0.792264 0.209129 0.169957
C43   C     C_3   0.230616 0.754259 0.268269 -0.139279
C44   C     C_3   0.289596 0.736120 0.209084 -0.139552
C45   C     C_1   0.364057 0.660592 0.337023 -0.064945
C46   C     C_1   0.460115 0.839526 0.163055 -0.064949
H20   H     H_    0.080650 0.757569 0.283357 0.106953
H21   H     H_    0.348475 0.861454 0.282234 0.107316
H22   H     H_    0.635742 0.775395 0.324961 0.106229
C47   C     C_R   0.472042 0.161847 0.088756 -0.041601
C48   C     C_R   0.352591 0.338204 0.411268 -0.041744
C49   C     C_R   0.531819 0.277847 0.093947 -0.163779
C50   C     C_R   0.523519 0.220564 0.063660 -0.168744
C51   C     C_R   0.429436 0.160665 0.145026 -0.215446
C52   C     C_R   0.440234 0.218431 0.177294 0.086453
C53   C     C_R   0.492115 0.277295 0.150259 0.141180
C54   C     C_R   0.404139 0.219879 0.235234 0.058398
C55   C     C_R   0.420595 0.280166 0.264795 0.058394
C56   C     C_R   0.472002 0.336959 0.235402 -0.188252
C57   C     C_R   0.506477 0.335365 0.179484 -0.203712
C58   C     C_R   0.352782 0.163083 0.264629 -0.188241
C59   C     C_R   0.318340 0.164675 0.320549 -0.203720
C60   C     C_R   0.332662 0.222748 0.349772 0.141178
C61   C     C_R   0.384480 0.281616 0.322734 0.086483
C62   C     C_R   0.292979 0.222193 0.406085 -0.163775
C63   C     C_R   0.301214 0.279479 0.436368 -0.168752
C64   C     C_R   0.395186 0.339388 0.354997 -0.215487
H23   H     H_    0.546155 0.380340 0.158854 0.120307
H24   H     H_    0.431321 0.386259 0.337732 0.093344
H25   H     H_    0.278713 0.119695 0.341182 0.120310
H26   H     H_    0.572187 0.322745 0.073350 0.110882
H27   H     H_    0.558684 0.221928 0.020485 0.105231
H28   H     H_    0.393194 0.113801 0.162285 0.093410
H29   H     H_    0.487613 0.383925 0.254440 0.121958
H30   H     H_    0.337220 0.116113 0.245594 0.121966
H31   H     H_    0.252670 0.177290 0.426685 0.110876
O11   O     O_R   0.323550 0.942140 0.056770 -0.535203
O12   O     O_R   0.647080 0.077200 0.045890 -0.538018
O13   O     O_R   0.813610 0.057920 0.943260 -0.535227
C65   C     C_R   0.478194 0.101144 0.056568 0.694106
O14   O     O_R   0.653470 0.943760 0.063000 -0.536891
O15   O     O_R   0.820050 0.923540 0.960490 -0.536505
C66   C     C_R   0.485442 0.923653 0.079006 0.724364
O16   O     O_R   0.317110 0.076520 0.039540 -0.536403
O17   O     O_3   0.483830 0.993580 0.966380 -0.366835
V3    V     V_3+5 0.760140 0.001190 0.006240 1.423881
O18   O     O_R   0.149510 0.922740 0.954070 -0.538082
C67   C     C_R   0.981374 0.898860 0.943412 0.693716
O19   O     O_R   0.143120 0.056170 0.936970 -0.537730
C68   C     C_R   0.973385 0.076280 0.921090 0.725984
V4    V     V_3+5 0.259690 0.998700 0.993700 1.424235
O20   O     O_3   0.986130 0.006420 0.033620 -0.366809
H32   H     H_    0.266057 0.278113 0.479544 0.105202

loop_
_geom_bond_atom_site_label_1
_geom_bond_atom_site_label_2
_ccdc_geom_bond_type
C13   C19   A    
C49   C53   A    
C59   C60   A    
C49   H26   S    
C53   C57   A    
C48   C64   A    
C4    C6    S    
C38   C46   T    
C7    C8    A    
C1    O6    A    
C3    C26   S    
O14   C66   A    
C61   C64   A    
O12   V3    S    
V1    O10   S    
C23   C24   S    
C31   C32   S    
C14   C15   A    
O17   V4    S    
C16   C17   A    
C41   H21   S    
C30   C34   S    
O12   C65   A    
O13   C68   A    
O5    C3    A    
C18   C19   A    
C8    H6    S    
C52   C54   A    
C28   C31   S    
V2    O10   S    
C5    C8    A    
H13   C32   S    
O17   V3    S    
O18   V4    S    
C36   C40   S    
O11   C66   A    
O18   C67   A    
O15   C67   A    
O8    V2    S    
C47   C65   S    
O19   V4    S    
C17   H4    S    
C39   C40   S    
O1    V2    S    
C11   C15   A    
O7    V1    S    
C22   H2    S    
C35   H18   S    
O16   V4    S    
O9    C4    A    
C42   C44   S    
C25   C68   S    
O13   V3    S    
C27   C29   S    
C29   C31   S    
C38   C66   S    
C43   C44   S    
C39   H22   S    
C25   C33   T    
C54   C58   A    
C12   C13   A    
C41   C43   S    
C59   H25   S    
C1    C37   S    
C52   C53   A    
C35   C42   S    
C23   C27   S    
C15   H1    S    
C13   C14   A    
C51   C52   A    
C21   H3    S    
C31   H14   S    
C55   C61   A    
O2    C1    A    
C17   C18   A    
C49   C50   A    
C35   C39   S    
C28   C33   S    
C62   C63   A    
C20   H10   S    
C19   C22   A    
C24   H11   S    
C27   C28   S    
C60   C62   A    
C6    C22   A    
C51   H28   S    
C7    H5    S    
O15   V3    S    
C58   H30   S    
C62   H31   S    
O6    V2    S    
C64   H24   S    
O9    V2    S    
C24   C32   S    
C48   C63   A    
C9    H7    S    
C26   C34   T    
O2    V1    S    
C47   C50   A    
O19   C68   A    
C14   H8    S    
O4    C2    A    
C23   H12   S    
C29   C30   S    
O1    C2    A    
C12   C16   A    
C56   H29   S    
O11   V4    S    
C41   C42   S    
O5    V1    S    
C40   C43   S    
C65   O16   A    
O8    C3    A    
C29   H15   S    
O3    C4    A    
C37   C45   T    
C16   H9    S    
O14   V3    S    
C20   C21   A    
C30   C32   S    
V3    O20   S    
O4    V1    S    
O3    V1    S    
C27   H16   S    
C36   H17   S    
C18   C20   A    
C56   C57   A    
C40   C45   S    
C24   C28   S    
C58   C59   A    
C36   C44   S    
C10   C12   A    
C63   H32   S    
O7    V2    S    
C60   C61   A    
C6    C21   A    
C5    C9    A    
C5    C67   S    
C35   C36   S    
C7    C11   A    
C2    C48   S    
H19   C44   S    
C54   C55   A    
C23   C30   S    
C43   H20   S    
V4    O20   S    
C50   H27   S    
C42   C46   S    
C10   C11   A    
C39   C41   S    
C57   H23   S    
C55   C56   A    
C9    C10   A    
C47   C51   A    
