data_mof_unit_56536.cif
_audit_creation_date              2012-12-10T19:15:17-0500
_audit_creation_method            fapswitch 2.2
_symmetry_space_group_name_H-M    P1
_symmetry_Int_Tables_number       1
_space_group_crystal_system       triclinic
_cell_length_a                    10.640413
_cell_length_b                    9.669557
_cell_length_c                    23.399966
_cell_angle_alpha                 89.429182
_cell_angle_beta                  90.043056
_cell_angle_gamma                 90.21449
_cell_volume                      2407.44061023

loop_
_atom_site_label
_atom_site_type_symbol
_atom_type_description
_atom_site_fract_x
_atom_site_fract_y
_atom_site_fract_z
_atom_type_partial_charge
C1    C     C_R   0.257473 0.499976 0.499364 0.920204
C2    C     C_R   0.236842 0.534737 0.968549 -0.176637
C3    C     C_R   0.231258 0.527550 0.028249 -0.040821
C4    C     C_R   0.343381 0.502186 0.059925 -0.095743
C5    C     C_R   0.455404 0.469710 0.030208 -0.016963
C6    C     C_R   0.565903 0.434648 0.060380 -0.014256
C7    C     C_R   0.676341 0.402089 0.030756 -0.134973
C8    C     C_R   0.678777 0.407321 0.971477 -0.135000
C9    C     C_R   0.351011 0.513950 0.119876 0.542701
C10   C     C_R   0.564210 0.436255 0.119773 0.573768
C11   C     C_R   0.427763 0.380573 0.241762 -0.062461
C12   C     C_R   0.501019 0.500691 0.389073 0.962716
C13   C     C_R   0.440634 0.385024 0.300408 -0.145169
C14   C     C_R   0.493700 0.501232 0.326589 -0.140449
C15   C     C_R   0.533592 0.616124 0.292981 -0.107462
C16   C     C_R   0.515995 0.612943 0.233244 -0.042285
C17   C     C_R   0.465666 0.492785 0.208265 0.211277
C18   C     C_R   0.461672 0.360914 0.760560 -0.003160
C19   C     C_R   0.474589 0.367747 0.701268 -0.222847
C20   C     C_R   0.490599 0.495325 0.673013 -0.055252
C21   C     C_R   0.494323 0.617857 0.704261 -0.176364
C22   C     C_R   0.482901 0.612728 0.763261 -0.099757
C23   C     C_R   0.741506 0.500247 0.505616 0.942763
C24   C     C_R   0.467019 0.485656 0.791475 0.237590
C25   C     C_3   0.073403 0.645260 0.519747 -0.438220
C26   C     C_3   0.075861 0.392629 0.545763 -0.436601
C27   C     C_3   0.930305 0.644024 0.528253 -0.197009
C28   C     C_3   0.931296 0.379954 0.545218 -0.182678
C29   C     C_3   0.064607 0.464730 0.439000 -0.100494
C30   C     C_3   0.120608 0.500376 0.499854 -0.013874
C31   C     C_3   0.877737 0.501075 0.507432 -0.053343
C32   C     C_3   0.919464 0.479716 0.444226 -0.471647
C33   C     C_3   0.400052 0.081828 0.460977 -0.217394
C34   C     C_3   0.400178 0.918972 0.460891 -0.227397
C35   C     C_3   0.621449 0.082422 0.478440 -0.223877
C36   C     C_3   0.621433 0.919743 0.478525 -0.233825
C37   C     C_3   0.477594 0.079955 0.556833 -0.236739
C38   C     C_3   0.477405 0.917324 0.556820 -0.229829
C39   C     C_R   0.498779 0.499122 0.610820 0.948076
C40   C     C_R   0.571445 0.450876 0.881273 0.552836
C41   C     C_R   0.354457 0.514178 0.879672 0.577693
C42   C     C_R   0.349082 0.509108 0.939387 -0.033249
C43   C     C_R   0.458063 0.473729 0.970137 -0.005122
C44   C     C_R   0.570479 0.443840 0.940836 -0.010204
H1    H     H_    0.151569 0.555919 0.944665 0.216566
H2    H     H_    0.506400 0.717303 0.683222 0.171775
H3    H     H_    0.487740 0.707584 0.787411 0.149683
H4    H     H_    0.097210 0.726598 0.487667 0.202883
H5    H     H_    0.116335 0.288407 0.538295 0.183246
H6    H     H_    0.124251 0.676334 0.559099 0.220988
H7    H     H_    0.112609 0.425988 0.587924 0.236217
H8    H     H_    0.892840 0.727885 0.500072 0.127333
H9    H     H_    0.907603 0.280937 0.523852 0.180338
H10   H     H_    0.885675 0.570417 0.418843 0.208367
H11   H     H_    0.869985 0.389682 0.425080 0.224487
H12   H     H_    0.413297 0.121497 0.416622 0.192388
H13   H     H_    0.413720 0.881578 0.416546 0.198809
H14   H     H_    0.765824 0.383276 0.949818 0.202773
N1    N     N_R   0.464212 0.484344 0.852272 -0.348007
N2    N     N_R   0.459583 0.480047 0.147763 -0.363768
N3    N     N_3   0.499750 0.138610 0.498760 -0.057452
N4    N     N_3   0.499750 0.861390 0.498760 -0.052024
O1    O     O_R   0.314910 0.616040 0.499990 -0.603890
O2    O     O_R   0.314910 0.383960 0.499990 -0.635057
O3    O     O_R   0.500080 0.616070 0.416130 -0.604300
O4    O     O_R   0.500080 0.383930 0.416130 -0.619171
O5    O     O_R   0.685320 0.616040 0.499970 -0.611317
O6    O     O_R   0.685320 0.383960 0.499970 -0.618326
O7    O     O_R   0.500150 0.616010 0.583820 -0.623579
O8    O     O_R   0.500150 0.383990 0.583820 -0.614993
O9    O     O_2   0.678152 0.423918 0.852319 -0.539380
O10   O     O_2   0.251038 0.547120 0.849076 -0.527938
O11   O     O_2   0.253803 0.563790 0.150199 -0.477371
O12   O     O_2   0.667359 0.398347 0.149641 -0.498066
Zn1   Zn    Zn3+2 0.500150 0.654960 0.499970 0.967724
Zn2   Zn    Zn3+2 0.500150 0.345040 0.499970 0.958955
H15   H     H_    0.470036 0.273263 0.676858 0.196827
C45   C     C_2   0.891279 0.680547 0.589052 0.916324
O13   O     O_2   0.782909 0.714781 0.598608 -0.643381
O14   O     O_R   0.977763 0.676898 0.634116 -0.772720
H16   H     H_    0.938916 0.703228 0.672014 0.367683
C46   C     C_2   0.875142 0.366373 0.605049 0.901973
O15   O     O_2   0.764801 0.333553 0.610593 -0.635896
O16   O     O_R   0.949001 0.384679 0.653905 -0.759524
H17   H     H_    0.899587 0.371619 0.690610 0.370659
C47   C     C_2   0.108945 0.560929 0.390227 0.889922
O17   O     O_2   0.064025 0.546600 0.342444 -0.543330
O18   O     O_R   0.201173 0.662045 0.398531 -0.829066
H18   H     H_    0.222078 0.715554 0.362268 0.357025
C48   C     C_2   0.100237 0.316986 0.421881 0.911035
O19   O     O_2   0.198886 0.296296 0.396531 -0.647238
O20   O     O_R   0.022147 0.204583 0.435409 -0.838057
H19   H     H_    0.057776 0.113157 0.422261 0.342761
C49   C     C_2   0.104687 0.537128 0.054395 1.003417
O21   O     O_2   0.071260 0.452301 0.090458 -0.544224
O22   O     O_R   0.020683 0.638130 0.035033 -0.781320
H20   H     H_    0.936221 0.632133 0.054967 0.366934
H21   H     H_    0.306502 0.118735 0.475275 0.172816
H22   H     H_    0.306562 0.880187 0.474917 0.169005
H23   H     H_    0.641665 0.122458 0.434652 0.173619
H24   H     H_    0.641509 0.882127 0.434853 0.171692
H25   H     H_    0.551599 0.117400 0.586574 0.193763
H26   H     H_    0.551215 0.879126 0.586656 0.195356
H27   H     H_    0.386488 0.118154 0.573701 0.150883
H28   H     H_    0.386129 0.877850 0.573612 0.151822
H29   H     H_    0.699130 0.119642 0.506213 0.173840
H30   H     H_    0.699037 0.881961 0.506297 0.175303
H31   H     H_    0.761900 0.374912 0.053273 0.211103
H32   H     H_    0.389187 0.288903 0.221992 0.166947
H33   H     H_    0.409100 0.296579 0.325354 0.198925
C50   C     C_2   0.607680 0.729689 0.318845 0.939710
O23   O     O_2   0.571063 0.849154 0.315522 -0.606530
O24   O     O_R   0.720142 0.698647 0.346995 -0.799491
H34   H     H_    0.765473 0.784148 0.361079 0.333846
C51   C     C_2   0.552672 0.732202 0.196493 0.948161
O25   O     O_2   0.634263 0.719059 0.160227 -0.589191
O26   O     O_R   0.492551 0.859276 0.203091 -0.735124
H35   H     H_    0.525260 0.932664 0.175599 0.357829
C52   C     C_2   0.442485 0.223119 0.788466 0.952168
O27   O     O_2   0.405353 0.213987 0.837794 -0.611679
O28   O     O_R   0.465296 0.102431 0.757688 -0.812274
H36   H     H_    0.448475 0.015269 0.780939 0.351274

loop_
_geom_bond_atom_site_label_1
_geom_bond_atom_site_label_2
_ccdc_geom_bond_type
C1    O2    A    
C40   O9    S    
C11   H32   S    
C11   C13   A    
C41   C42   A    
C35   C36   S    
C27   C45   S    
C7    C8    A    
C13   H33   S    
O1    Zn1   S    
C18   C24   A    
C21   C22   A    
C37   C38   S    
C18   C19   A    
C29   C32   S    
C5    C6    A    
C45   O14   S    
C15   C16   A    
C34   N4    S    
C33   H21   S    
C23   O5    A    
C19   H15   S    
C25   H6    S    
C1    C30   S    
C8    H14   S    
C19   C20   A    
C16   C17   A    
C51   O26   S    
C34   H13   S    
C29   C30   S    
C32   H11   S    
C33   H12   S    
C22   H3    S    
C5    C43   A    
N3    Zn2   S    
C40   N1    A    
C13   C14   A    
C36   H30   S    
C9    O11   S    
C36   N4    S    
C1    O1    A    
C32   H10   S    
C29   C48   S    
C33   C34   S    
C52   O28   S    
C2    H1    S    
C39   O7    A    
O28   H36   S    
C28   C46   S    
C15   C50   S    
O16   H17   S    
C41   N1    A    
C50   O24   S    
C26   H5    S    
C20   C39   S    
C45   O13   D    
C4    C5    A    
C27   C31   S    
C36   H24   S    
C23   C31   S    
C23   O6    A    
C10   N2    A    
C43   C44   A    
C38   H26   S    
C48   O20   S    
C31   C32   S    
C14   C15   A    
C28   H9    S    
O4    Zn2   S    
O22   H20   S    
C34   H22   S    
O2    Zn2   S    
C35   N3    S    
C20   C21   A    
C49   O22   S    
C25   H4    S    
C29   C47   S    
C41   O10   S    
C12   C14   S    
C26   C30   S    
C46   O16   S    
O8    Zn2   S    
C22   C24   A    
N4    Zn1   S    
O6    Zn2   S    
C42   C43   A    
C3    C4    A    
C16   C51   S    
C27   H8    S    
O24   H34   S    
C25   C30   S    
C11   C17   A    
C50   O23   D    
C47   O17   D    
C28   C31   S    
C8    C44   A    
O14   H16   S    
C6    C10   A    
C37   H27   S    
C37   N3    S    
C52   O27   D    
C6    C7    A    
C25   C27   S    
C12   O3    A    
C26   C28   S    
O3    Zn1   S    
C9    N2    A    
C38   H28   S    
C2    C3    A    
C35   H29   S    
C26   H7    S    
C10   O12   S    
C48   O19   D    
C37   H25   S    
C12   O4    A    
C2    C42   A    
C24   N1    S    
O20   H19   S    
C39   O8    A    
O7    Zn1   S    
C3    C49   S    
C47   O18   S    
C49   O21   D    
C17   N2    S    
C21   H2    S    
C40   C44   A    
O5    Zn1   S    
O18   H18   S    
C33   N3    S    
C46   O15   D    
C7    H31   S    
C51   O25   D    
C4    C9    A    
O26   H35   S    
C18   C52   S    
C35   H23   S    
C38   N4    S    
