data_mof_unit_12877.cif
_audit_creation_date              2012-12-10T20:32:42-0500
_audit_creation_method            fapswitch 2.2
_symmetry_space_group_name_H-M    P1
_symmetry_Int_Tables_number       1
_space_group_crystal_system       triclinic
_cell_length_a                    11.541914
_cell_length_b                    10.756416
_cell_length_c                    9.912165
_cell_angle_alpha                 89.033477
_cell_angle_beta                  91.261434
_cell_angle_gamma                 90.76015
_cell_volume                      1230.01596645

loop_
_atom_site_label
_atom_site_type_symbol
_atom_type_description
_atom_site_fract_x
_atom_site_fract_y
_atom_site_fract_z
_atom_type_partial_charge
C1    C     C_R   0.499609 0.260187 0.500585 0.893161
C2    C     C_R   0.504818 0.128221 0.498385 -0.151026
C3    C     C_R   0.462383 0.066291 0.383764 -0.280464
C4    C     C_R   0.462219 0.937995 0.381936 0.586837
C5    C     C_R   0.506544 0.871697 0.494488 -0.240895
C6    C     C_R   0.562052 0.934753 0.599652 -0.093787
C7    C     C_3   0.549509 0.920212 0.748776 0.244222
C8    C     C_3   0.546333 0.063211 0.752876 0.863950
C9    C     C_R   0.399800 0.513985 0.067921 0.083216
C10   C     C_R   0.600802 0.500980 0.075739 -0.272901
C11   C     C_R   0.602645 0.500747 0.930711 0.505260
C12   C     C_R   0.282010 0.500931 0.498969 0.893423
C13   C     C_R   0.399739 0.513720 0.926343 0.005834
C14   C     C_3   0.293588 0.433616 0.919909 0.337932
C15   C     C_3   0.292109 0.436279 0.074045 0.210921
C16   C     C_R   0.499870 0.739719 0.498744 0.932898
C17   C     C_R   0.718012 0.500180 0.501238 0.882455
C18   C     C_1   0.161516 0.503017 0.498045 -0.148848
C19   C     C_1   0.059352 0.503613 0.500034 0.022191
C20   C     C_1   0.940735 0.502789 0.502650 -0.008414
C21   C     C_1   0.838546 0.501526 0.503416 -0.178607
C22   C     C_R   0.561120 0.061982 0.601866 -0.137338
H1    H     H_    0.423256 0.116425 0.299048 0.204639
H2    H     H_    0.308336 0.341155 0.875478 0.124280
H3    H     H_    0.220491 0.489432 0.117632 0.122732
H4    H     H_    0.467858 0.868865 0.772468 0.071746
H5    H     H_    0.679713 0.503968 0.135475 0.173321
N1    N     N_R   0.499240 0.499140 0.142800 -0.084090
N2    N     N_R   0.499240 0.499180 0.857150 -0.148579
O1    O     O_R   0.500010 0.316790 0.614690 -0.598878
O2    O     O_R   0.500000 0.316760 0.385350 -0.591443
O3    O     O_R   0.334450 0.500030 0.614670 -0.567479
O4    O     O_R   0.334440 0.500000 0.385330 -0.606791
O5    O     O_R   0.500000 0.683240 0.614650 -0.611240
O6    O     O_R   0.499990 0.683210 0.385310 -0.578009
O7    O     O_R   0.665560 0.500000 0.614670 -0.552373
O8    O     O_R   0.665550 0.499970 0.385330 -0.639670
Zn1   Zn    Zn3+2 0.500010 0.500020 0.653130 1.027959
Zn2   Zn    Zn3+2 0.499990 0.499980 0.346870 0.993076
O9    O     O_3   0.313476 0.319555 0.136639 -0.638595
C23   C     C_3   0.210474 0.246655 0.138247 0.028600
H6    H     H_    0.235985 0.147873 0.139869 0.172963
H7    H     H_    0.154568 0.260660 0.046133 0.132049
C24   C     C_3   0.142200 0.268810 0.265854 -0.322526
H8    H     H_    0.198068 0.249344 0.356359 0.229797
H9    H     H_    0.115091 0.367036 0.267680 0.217811
C25   C     C_3   0.034049 0.185869 0.270553 -0.958117
H10   H     H_    0.976789 0.204559 0.181108 0.262479
H11   H     H_    0.985322 0.205598 0.362789 0.268634
H12   H     H_    0.058437 0.086278 0.272782 0.273228
F1    F     F_    0.410682 0.879634 0.275583 -0.697461
O10   O     O_3   0.652417 0.870868 0.807569 -0.615344
C26   C     C_3   0.635343 0.826882 0.941395 0.127767
H13   H     H_    0.679564 0.737096 0.950724 0.188771
H14   H     H_    0.543258 0.807465 0.966946 0.106193
C27   C     C_3   0.691848 0.914809 0.044927 -0.344888
H15   H     H_    0.780349 0.942039 0.012954 0.232912
H16   H     H_    0.639686 0.999987 0.052543 0.251783
C28   C     C_3   0.700336 0.854612 0.185279 -0.935365
H17   H     H_    0.617555 0.807384 0.210260 0.313787
H18   H     H_    0.719748 0.926889 0.261560 0.266706
H19   H     H_    0.770824 0.785683 0.190577 0.251841
O11   O     O_3   0.437105 0.113431 0.783927 -0.667088
C29   C     C_3   0.394002 0.067285 0.907952 0.050952
H20   H     H_    0.381959 0.147115 0.974722 0.187410
H21   H     H_    0.453983 0.004664 0.964532 0.150892
C30   C     C_3   0.276677 0.002006 0.881586 -0.426697
H22   H     H_    0.206666 0.072038 0.879521 0.213603
H23   H     H_    0.276152 0.957383 0.781203 0.243643
C31   C     C_3   0.250565 0.901499 0.987751 -0.836985
H24   H     H_    0.315971 0.826793 0.984872 0.274792
H25   H     H_    0.163708 0.859764 0.966503 0.260420
H26   H     H_    0.251014 0.941161 0.090180 0.286623
O12   O     O_3   0.637850 0.113336 0.835488 -0.667867
C32   C     C_3   0.727294 0.177459 0.766669 0.092225
H27   H     H_    0.767605 0.240286 0.840781 0.156546
H28   H     H_    0.695351 0.237333 0.682110 0.151152
C33   C     C_3   0.822664 0.089962 0.722103 -0.348358
H29   H     H_    0.852461 0.031584 0.809168 0.243755
H30   H     H_    0.789478 0.027682 0.641690 0.245584
C34   C     C_3   0.926177 0.163687 0.668212 -0.977538
H31   H     H_    0.898126 0.225074 0.582809 0.264022
H32   H     H_    0.992309 0.098734 0.632140 0.277116
H33   H     H_    0.966159 0.221494 0.749053 0.268352
O13   O     O_3   0.705315 0.516531 0.860602 -0.612087
C35   C     C_3   0.805447 0.468053 0.926726 0.036400
H34   H     H_    0.859850 0.427175 0.848201 0.176804
H35   H     H_    0.786296 0.390963 0.999669 0.118527
C36   C     C_3   0.878186 0.571729 0.992011 -0.330933
H36   H     H_    0.916371 0.632146 0.911997 0.250752
H37   H     H_    0.823830 0.629901 0.055026 0.201152
C37   C     C_3   0.974492 0.518053 0.081716 -0.927330
H38   H     H_    0.936784 0.466975 0.169009 0.257609
H39   H     H_    0.030828 0.594565 0.120395 0.267926
H40   H     H_    0.027334 0.453304 0.023552 0.291642
F2    F     F_    0.201232 0.496849 0.861374 -0.675262

loop_
_geom_bond_atom_site_label_1
_geom_bond_atom_site_label_2
_ccdc_geom_bond_type
C10   H5    S    
C23   H6    S    
C3    H1    S    
C19   C20   S    
C34   H31   S    
C7    C8    S    
C25   H11   S    
C26   H13   S    
C24   H8    S    
C12   O4    A    
O4    Zn2   S    
C7    H4    S    
C13   N2    A    
C7    O10   S    
C1    C2    S    
C16   O6    A    
C5    C6    A    
C35   H35   S    
C15   H3    S    
C6    C22   A    
C1    O2    A    
C27   H15   S    
O1    Zn1   S    
C18   C19   T    
C14   H2    S    
C9    C13   A    
C37   H38   S    
C5    C16   S    
C16   O5    A    
C27   H16   S    
N2    Zn1   S    
C2    C22   A    
C8    C22   S    
C31   H24   S    
C17   O7    A    
O3    Zn1   S    
C36   H37   S    
C24   C25   S    
C28   H17   S    
O5    Zn1   S    
C13   C14   S    
C12   O3    A    
C23   H7    S    
C14   F2    S    
C34   H32   S    
C24   H9    S    
C25   H12   S    
C26   H14   S    
C28   H18   S    
O12   C32   S    
C4    F1    S    
C30   H22   S    
C29   C30   S    
C35   H34   S    
N1    Zn2   S    
O13   C35   S    
C37   H40   S    
C17   C21   S    
C30   H23   S    
C29   H21   S    
O6    Zn2   S    
C32   H27   S    
C25   H10   S    
C31   H26   S    
C8    O12   S    
C17   O8    A    
C36   C37   S    
C32   H28   S    
O9    C23   S    
C23   C24   S    
C3    C4    A    
C34   H33   S    
O10   C26   S    
C26   C27   S    
C10   N1    A    
C28   H19   S    
C33   H29   S    
C4    C5    A    
C35   C36   S    
C6    C7    S    
C27   C28   S    
C30   C31   S    
C29   H20   S    
O7    Zn1   S    
C2    C3    A    
C9    C15   S    
O8    Zn2   S    
C33   C34   S    
C37   H39   S    
C11   O13   S    
C1    O1    A    
O2    Zn2   S    
C33   H30   S    
C32   C33   S    
C15   O9    S    
C10   C11   A    
C8    O11   S    
O11   C29   S    
C20   C21   T    
C11   N2    A    
C12   C18   S    
C14   C15   S    
C31   H25   S    
C36   H36   S    
C9    N1    A    
