data_mof_unit_66213.cif
_audit_creation_date              2012-12-10T18:09:44-0500
_audit_creation_method            fapswitch 2.2
_symmetry_space_group_name_H-M    P1
_symmetry_Int_Tables_number       1
_space_group_crystal_system       triclinic
_cell_length_a                    21.606487
_cell_length_b                    21.606493
_cell_length_c                    32.137007
_cell_angle_alpha                 89.983104
_cell_angle_beta                  90.01638
_cell_angle_gamma                 90.000025
_cell_volume                      15002.8522625

loop_
_atom_site_label
_atom_site_type_symbol
_atom_type_description
_atom_site_fract_x
_atom_site_fract_y
_atom_site_fract_z
_atom_type_partial_charge
C1    C     C_R   0.313527 0.500011 0.999985 -0.017571
C2    C     C_R   0.540186 0.217991 0.973417 -0.169112
C3    C     C_1   0.499980 0.999966 0.661807 -0.100951
C4    C     C_1   0.499966 0.999977 0.838193 -0.100861
C5    C     C_1   0.999064 0.500446 0.838194 -0.098166
C6    C     C_1   0.500418 0.998934 0.161806 -0.098600
C7    C     C_1   0.999979 0.499964 0.161807 -0.101220
C8    C     C_1   0.999990 0.499974 0.124573 -0.171445
C9    C     C_1   0.500121 0.999463 0.124574 -0.170094
C10   C     C_1   0.999526 0.500129 0.875427 -0.169962
C11   C     C_1   0.499975 0.999989 0.875428 -0.171339
C12   C     C_1   0.499990 0.999974 0.624573 -0.171447
C13   C     C_R   0.782010 0.540185 0.973401 -0.173147
C14   C     C_1   0.000126 0.499506 0.624573 -0.170087
C15   C     C_1   0.499571 0.000133 0.375427 -0.169973
C16   C     C_1   0.999974 0.499990 0.375428 -0.171364
C17   C     C_2   0.082888 0.418888 0.204064 0.506124
C18   C     C_2   0.586138 0.076803 0.203769 0.507438
C19   C     C_2   0.917034 0.581017 0.203985 0.505908
C20   C     C_2   0.408434 0.928516 0.203757 0.513456
C21   C     C_2   0.085730 0.577261 0.796232 0.506962
C22   C     C_2   0.575167 0.911689 0.796013 0.505645
C23   C     C_2   0.919212 0.416516 0.796244 0.513605
C24   C     C_R   0.459823 0.782034 0.973384 -0.169081
C25   C     C_2   0.424760 0.088242 0.795940 0.506065
C26   C     C_2   0.587125 0.923465 0.704060 0.506022
C27   C     C_2   0.080206 0.582977 0.703768 0.507065
C28   C     C_2   0.412815 0.076468 0.703987 0.505607
C29   C     C_2   0.913819 0.422097 0.703757 0.513498
C30   C     C_2   0.591230 0.070703 0.296233 0.506724
C31   C     C_2   0.070301 0.407771 0.296016 0.505594
C32   C     C_2   0.413409 0.922559 0.296245 0.513605
C33   C     C_2   0.929598 0.592152 0.295939 0.505845
C34   C     C_R   0.217991 0.540182 0.026584 -0.169438
C35   C     C_R   0.540193 0.782009 0.026592 -0.173221
C36   C     C_R   0.782034 0.459827 0.026617 -0.169049
C37   C     C_R   0.459824 0.217967 0.026599 -0.168300
C38   C     C_R   0.717965 0.959860 0.473375 -0.168121
C39   C     C_R   0.040160 0.717990 0.473400 -0.169073
C40   C     C_R   0.282012 0.040160 0.473384 -0.173189
C41   C     C_R   0.500011 0.313527 0.000014 -0.017617
C42   C     C_R   0.959849 0.282036 0.473367 -0.168973
C43   C     C_R   0.717989 0.040154 0.526603 -0.169355
C44   C     C_R   0.040166 0.282011 0.526610 -0.173298
C45   C     C_R   0.282036 0.959851 0.526633 -0.168929
C46   C     C_R   0.959850 0.717965 0.526617 -0.168273
C47   C     C_R   0.281899 0.460527 0.972927 -0.170363
C48   C     C_R   0.539499 0.281923 0.972957 -0.170724
C49   C     C_R   0.718078 0.539497 0.972941 -0.172905
C50   C     C_R   0.460519 0.718102 0.972916 -0.171181
C51   C     C_R   0.281922 0.539494 0.027045 -0.171375
C52   C     C_R   0.686473 0.500011 0.000014 -0.016964
C53   C     C_R   0.539505 0.718078 0.027053 -0.173356
C54   C     C_R   0.718102 0.460524 0.027085 -0.171552
C55   C     C_R   0.460521 0.281898 0.027068 -0.171030
C56   C     C_R   0.781897 0.960557 0.472907 -0.169894
C57   C     C_R   0.039473 0.781921 0.472940 -0.170270
C58   C     C_R   0.218080 0.039473 0.472924 -0.172572
C59   C     C_R   0.960546 0.218104 0.472899 -0.170740
C60   C     C_R   0.781920 0.039466 0.527063 -0.170927
C61   C     C_R   0.039478 0.218080 0.527070 -0.173065
C62   C     C_R   0.218104 0.960548 0.527102 -0.171101
C63   C     C_R   0.500012 0.686473 0.999985 -0.017045
C64   C     C_R   0.960547 0.781897 0.527085 -0.170567
C65   C     C_R   0.120277 0.500000 0.999998 0.859265
C66   C     C_R   0.500000 0.120277 0.000001 0.859392
C67   C     C_R   0.879723 0.500000 0.000001 0.857119
C68   C     C_R   0.500000 0.879723 0.999997 0.857048
C69   C     C_R   0.620277 0.000000 0.499998 0.859234
C70   C     C_R   1.000000 0.620277 0.500001 0.859357
C71   C     C_R   0.379723 0.000000 0.500001 0.857196
C72   C     C_R   0.000000 0.379723 0.499997 0.857106
C73   C     C_R   0.000000 0.499992 0.080444 0.906357
C74   C     C_R   0.813526 0.000011 0.499985 -0.017790
C75   C     C_R   0.500016 0.999953 0.080445 0.905172
C76   C     C_R   0.999957 0.500017 0.919555 0.904798
C77   C     C_R   0.499992 1.000000 0.919556 0.906081
C78   C     C_R   0.500000 0.999992 0.580444 0.906237
C79   C     C_R   0.000017 0.499955 0.580445 0.905030
C80   C     C_R   0.499959 0.000018 0.419555 0.904658
C81   C     C_R   0.999992 0.500000 0.419556 0.905939
C82   C     C_R   0.036518 0.456255 0.271987 -0.026087
C83   C     C_R   0.543434 0.036316 0.271991 -0.027610
C84   C     C_R   0.963390 0.543667 0.271948 -0.026333
C85   C     C_R   0.000011 0.813526 0.500014 -0.017812
C86   C     C_R   0.455868 0.963332 0.271993 -0.030206
C87   C     C_R   0.040883 0.539154 0.728010 -0.027892
C88   C     C_R   0.541065 0.960492 0.728052 -0.026440
C89   C     C_R   0.958915 0.459935 0.728008 -0.030464
C90   C     C_R   0.458866 0.039434 0.728015 -0.026227
C91   C     C_R   0.538821 0.958284 0.771985 -0.026207
C92   C     C_R   0.040577 0.539471 0.771990 -0.027790
C93   C     C_R   0.461104 0.041643 0.771948 -0.026428
C94   C     C_R   0.958580 0.460282 0.771992 -0.030405
C95   C     C_R   0.543715 0.035975 0.228011 -0.028173
C96   C     C_R   0.186474 0.000011 0.500014 -0.017026
C97   C     C_R   0.038882 0.458338 0.228053 -0.026634
C98   C     C_R   0.456175 0.962959 0.228009 -0.030694
C99   C     C_R   0.961037 0.541576 0.228015 -0.026399
C100  C     C_R   0.999955 0.499966 0.293480 -0.057432
C101  C     C_R   0.498692 0.000978 0.293470 -0.057086
C102  C     C_R   0.000935 0.498474 0.706531 -0.057239
C103  C     C_R   0.499968 0.999962 0.706521 -0.057519
C104  C     C_R   0.499961 0.999965 0.793479 -0.057503
C105  C     C_R   0.998543 0.500951 0.793469 -0.057189
C106  C     C_R   0.500894 0.998329 0.206531 -0.057351
C107  C     C_R   0.000012 0.186474 0.499985 -0.017103
C108  C     C_R   0.999965 0.499957 0.206521 -0.057603
C109  C     C_R   0.186358 0.500003 0.999993 -0.013388
C110  C     C_R   0.500002 0.186359 0.000005 -0.013452
C111  C     C_R   0.813642 0.500002 0.000005 -0.012150
C112  C     C_R   0.500003 0.813642 0.999992 -0.012316
C113  C     C_R   0.686357 0.000003 0.499992 -0.013652
C114  C     C_R   0.000002 0.686357 0.500005 -0.013685
C115  C     C_R   0.313643 0.000002 0.500005 -0.012196
C116  C     C_R   0.000003 0.313643 0.499992 -0.012372
C117  C     C_R   0.500002 0.620398 0.999995 0.859453
C118  C     C_R   0.217967 0.459831 0.973395 -0.168103
C119  C     C_R   0.379602 0.500002 0.999995 0.859651
C120  C     C_R   0.500002 0.379602 0.000005 0.859688
C121  C     C_R   0.620399 0.500002 0.000005 0.859480
C122  C     C_R   0.000002 0.120399 0.499995 0.859139
C123  C     C_R   0.879601 0.000002 0.499995 0.859355
C124  C     C_R   0.000002 0.879601 0.500005 0.859398
C125  C     C_R   0.120399 0.000002 0.500005 0.859174
C126  C     C_1   0.999963 0.499979 0.338194 -0.100649
C127  C     C_1   0.499156 0.000459 0.338194 -0.097920
C128  C     C_1   0.000438 0.499022 0.661806 -0.098318
H1    H     H_    0.193197 0.428932 0.952699 0.152002
H2    H     H_    0.071040 0.693239 0.452690 0.151212
H3    H     H_    0.306763 0.071039 0.452662 0.149536
H4    H     H_    0.928963 0.306807 0.452650 0.151156
H5    H     H_    0.693238 0.071027 0.547317 0.151006
H6    H     H_    0.071049 0.306762 0.547329 0.149629
H7    H     H_    0.306807 0.928968 0.547352 0.151057
H8    H     H_    0.928966 0.693194 0.547323 0.151949
H9    H     H_    0.306653 0.429797 0.952118 0.152433
H10   H     H_    0.570234 0.306695 0.952152 0.151724
H11   H     H_    0.693306 0.570230 0.952122 0.151614
H12   H     H_    0.571086 0.193241 0.952721 0.151100
H13   H     H_    0.429782 0.693348 0.952101 0.152244
H14   H     H_    0.306694 0.570224 0.047853 0.151335
H15   H     H_    0.570242 0.693306 0.047868 0.151459
H16   H     H_    0.693348 0.429791 0.047904 0.151996
H17   H     H_    0.429786 0.306652 0.047874 0.152170
H18   H     H_    0.806650 0.929848 0.452084 0.152654
H19   H     H_    0.070188 0.806693 0.452121 0.152037
H20   H     H_    0.193308 0.070187 0.452093 0.151732
H21   H     H_    0.929828 0.193350 0.452069 0.152431
H22   H     H_    0.806691 0.070174 0.547887 0.151646
H23   H     H_    0.806761 0.571083 0.952691 0.149642
H24   H     H_    0.070196 0.193308 0.547900 0.151585
H25   H     H_    0.193350 0.929834 0.547933 0.152201
H26   H     H_    0.929832 0.806650 0.547905 0.152367
H27   H     H_    0.070168 0.401348 0.173605 0.062064
H28   H     H_    0.604915 0.061214 0.174263 0.060819
H29   H     H_    0.929762 0.598563 0.173528 0.061879
H30   H     H_    0.420434 0.907249 0.174256 0.055320
H31   H     H_    0.072254 0.597602 0.825739 0.059968
H32   H     H_    0.593514 0.923177 0.826480 0.061228
H33   H     H_    0.899345 0.430735 0.825741 0.054487
H34   H     H_    0.428916 0.806804 0.952681 0.151142
H35   H     H_    0.406352 0.076734 0.826385 0.061310
H36   H     H_    0.575353 0.905241 0.673612 0.061445
H37   H     H_    0.100071 0.568807 0.674261 0.060215
H38   H     H_    0.424573 0.094639 0.673519 0.061349
H39   H     H_    0.927343 0.401756 0.674258 0.054747
H40   H     H_    0.579279 0.091974 0.325742 0.059275
H41   H     H_    0.089257 0.418261 0.326478 0.060601
H42   H     H_    0.394624 0.938197 0.325738 0.053956
H43   H     H_    0.910644 0.581668 0.326399 0.060731
H44   H     H_    0.193240 0.571078 0.047283 0.150871
H45   H     H_    0.571096 0.806760 0.047298 0.149712
H46   H     H_    0.806804 0.428924 0.047323 0.151038
H47   H     H_    0.428919 0.193196 0.047291 0.151967
H48   H     H_    0.693194 0.928983 0.452664 0.152009
O1    O     O_R   0.091640 0.551640 0.999920 -0.619166
O2    O     O_R   0.948360 0.591640 0.499920 -0.618998
O3    O     O_R   0.408360 0.948360 0.499920 -0.619196
O4    O     O_R   0.051640 0.408360 0.499920 -0.619497
O5    O     O_R   0.591640 0.948360 0.500080 -0.618965
O6    O     O_R   0.948360 0.408360 0.500080 -0.619369
O7    O     O_R   0.408360 0.051640 0.500080 -0.619481
O8    O     O_R   0.051640 0.591640 0.500080 -0.619056
O9    O     O_R   0.000010 0.551640 0.060910 -0.613725
O10   O     O_R   0.448360 0.000010 0.060910 -0.610157
O11   O     O_R   0.999990 0.448360 0.060910 -0.613676
O12   O     O_R   0.448360 0.091640 0.999920 -0.618854
O13   O     O_R   0.551640 0.999990 0.060910 -0.615280
O14   O     O_R   0.000010 0.448360 0.939090 -0.609721
O15   O     O_R   0.448360 0.999990 0.939090 -0.613571
O16   O     O_R   0.999990 0.551640 0.939090 -0.615323
O17   O     O_R   0.551640 0.000010 0.939090 -0.613559
O18   O     O_R   0.500010 0.051640 0.560910 -0.613614
O19   O     O_R   0.948360 0.500010 0.560910 -0.609894
O20   O     O_R   0.499990 0.948360 0.560910 -0.613636
O21   O     O_R   0.051640 0.499990 0.560910 -0.615334
O22   O     O_R   0.500010 0.948360 0.439090 -0.609504
O23   O     O_R   0.908360 0.448360 0.999920 -0.619283
O24   O     O_R   0.948360 0.499990 0.439090 -0.613516
O25   O     O_R   0.499990 0.051640 0.439090 -0.615349
O26   O     O_R   0.051640 0.500010 0.439090 -0.613455
O27   O     O_R   0.500000 0.591640 0.965510 -0.617700
O28   O     O_R   0.408360 0.500000 0.965510 -0.617633
O29   O     O_R   0.500000 0.408360 0.965510 -0.618014
O30   O     O_R   0.591640 0.500000 0.965510 -0.618793
O31   O     O_R   0.500000 0.408360 0.034490 -0.618170
O32   O     O_R   0.408360 0.500000 0.034490 -0.618540
O33   O     O_R   0.500000 0.591640 0.034490 -0.619290
O34   O     O_R   0.551640 0.908360 0.999920 -0.619375
O35   O     O_R   0.591640 0.500000 0.034490 -0.618194
O36   O     O_R   0.000000 0.091640 0.465510 -0.617535
O37   O     O_R   0.908360 0.000000 0.465510 -0.617413
O38   O     O_R   0.000000 0.908360 0.465510 -0.617804
O39   O     O_R   0.091640 0.000000 0.465510 -0.618578
O40   O     O_R   0.000000 0.908360 0.534490 -0.617941
O41   O     O_R   0.908360 0.000000 0.534490 -0.618331
O42   O     O_R   0.000000 0.091640 0.534490 -0.619095
O43   O     O_R   0.091640 0.000000 0.534490 -0.618027
O44   O     O_2   0.134776 0.407981 0.217221 -0.527137
O45   O     O_R   0.091640 0.448360 0.000080 -0.618826
O46   O     O_2   0.598114 0.129204 0.215491 -0.526444
O47   O     O_2   0.865136 0.591912 0.217109 -0.527316
O48   O     O_2   0.354729 0.926106 0.215462 -0.524838
O49   O     O_2   0.139112 0.583539 0.784507 -0.526290
O50   O     O_2   0.582524 0.859180 0.782878 -0.527040
O51   O     O_2   0.911064 0.363375 0.784546 -0.525413
O52   O     O_2   0.417474 0.140772 0.782802 -0.526830
O53   O     O_2   0.639536 0.915392 0.717204 -0.526935
O54   O     O_2   0.088320 0.636112 0.715491 -0.526332
O55   O     O_2   0.360423 0.084608 0.717124 -0.527150
O56   O     O_R   0.448360 0.908360 0.000080 -0.619456
O57   O     O_2   0.860430 0.415778 0.715458 -0.525325
O58   O     O_2   0.644928 0.073062 0.284509 -0.526047
O59   O     O_2   0.074799 0.354936 0.282889 -0.526708
O60   O     O_2   0.401411 0.870150 0.284550 -0.525789
O61   O     O_2   0.925089 0.644982 0.282781 -0.526554
O62   O     O_R   0.908360 0.551640 0.000080 -0.619343
O63   O     O_R   0.551640 0.091640 0.000080 -0.618961
O64   O     O_R   0.591640 0.051640 0.499920 -0.619250
Zn1   Zn    Zn3+2 0.000000 0.568980 0.000000 0.987143
Zn2   Zn    Zn3+2 0.500000 0.500000 0.046050 0.991118
Zn3   Zn    Zn3+2 0.000000 0.000000 0.453950 0.995121
Zn4   Zn    Zn3+2 0.000000 0.000000 0.546050 0.992735
Zn5   Zn    Zn3+2 0.431020 0.000000 0.000000 0.991610
Zn6   Zn    Zn3+2 0.000000 0.431020 0.000000 0.991898
Zn7   Zn    Zn3+2 0.568980 0.000000 0.000000 0.987452
Zn8   Zn    Zn3+2 0.500000 0.068980 0.500000 0.986616
Zn9   Zn    Zn3+2 0.931020 0.500000 0.500000 0.991250
Zn10  Zn    Zn3+2 0.500000 0.931020 0.500000 0.991480
Zn11  Zn    Zn3+2 0.068980 0.500000 0.500000 0.986887
Zn12  Zn    Zn3+2 0.500000 0.500000 0.953950 0.993471

loop_
_geom_bond_atom_site_label_1
_geom_bond_atom_site_label_2
_ccdc_geom_bond_type
O40   Zn4   S    
O1    Zn1   S    
C94   C105  A    
C36   H46   S    
C79   O21   A    
C66   O12   A    
C66   O63   A    
C35   C53   A    
C125  O39   A    
C54   H16   S    
C24   C112  A    
C17   C97   S    
C91   C104  A    
C37   C55   A    
C68   O34   A    
C6    C9    T    
C29   C89   S    
C79   O19   A    
C7    C8    T    
C57   H19   S    
C5    C105  S    
C70   C114  S    
C87   C102  A    
C25   C93   S    
C99   C108  A    
O62   Zn1   S    
C69   C113  S    
C34   C51   A    
C31   C82   S    
C22   H32   S    
C100  C126  S    
C120  O29   A    
C121  O30   A    
C16   C81   S    
C61   H24   S    
C75   O13   A    
O6    Zn9   S    
O32   Zn2   S    
O36   Zn3   S    
C62   C96   A    
O5    Zn10  S    
C32   C86   S    
C78   O18   A    
C63   C117  S    
O4    Zn11  S    
C58   H20   S    
C55   H17   S    
C40   C115  A    
O13   Zn7   S    
O45   Zn6   S    
O21   Zn11  S    
C3    C103  S    
C39   C57   A    
C64   H26   S    
C45   C62   A    
C30   C83   S    
C14   C128  T    
O43   Zn4   S    
C85   C124  S    
O63   Zn7   S    
O56   Zn5   S    
C1    C119  S    
C71   O3    A    
C89   C94   A    
C43   H5    S    
C58   C96   A    
C41   C55   A    
C77   O17   A    
C3    C12   T    
C11   C77   S    
O23   Zn6   S    
C97   C108  A    
C10   C76   S    
C47   C118  A    
C80   O25   A    
C12   C78   S    
C22   C91   S    
O42   Zn4   S    
O30   Zn12  S    
C36   C111  A    
C1    C47   A    
C50   H13   S    
C28   H38   S    
C49   C52   A    
O26   Zn11  S    
C123  O41   A    
O14   Zn6   S    
C80   O22   A    
O25   Zn8   S    
C20   H30   S    
C87   C92   A    
C24   C50   A    
C50   C63   A    
C21   H31   S    
O35   Zn2   S    
O34   Zn7   S    
C81   O24   A    
C86   C98   A    
C93   C104  A    
C65   O45   A    
C73   O11   A    
C52   C54   A    
C109  C118  A    
C59   H21   S    
C26   O53   D    
O17   Zn7   S    
C68   C112  S    
C45   H7    S    
C56   C74   A    
C26   H36   S    
C46   C114  A    
C19   H29   S    
O8    Zn11  S    
C71   O7    A    
O37   Zn3   S    
C40   C58   A    
C13   H23   S    
C33   C84   S    
O31   Zn2   S    
C38   C113  A    
C19   C99   S    
C70   O2    A    
C124  O38   A    
C31   H41   S    
C2    C48   A    
C31   O59   D    
C59   C107  A    
C46   C64   A    
O38   Zn3   S    
C53   H15   S    
C46   H8    S    
C35   H45   S    
C42   C59   A    
C76   O16   A    
C95   C106  A    
O24   Zn9   S    
C37   H47   S    
C18   C95   S    
C1    C51   A    
C52   C121  S    
O22   Zn10  S    
C27   O54   D    
C38   H48   S    
C15   C80   S    
C28   O55   D    
C88   C91   A    
C39   C114  A    
C83   C95   A    
C47   H9    S    
C89   C102  A    
C20   O48   D    
C71   C115  S    
O12   Zn5   S    
C78   O20   A    
C14   C79   S    
C30   O58   D    
C4    C11   T    
C27   C87   S    
C6    C106  S    
C44   H6    S    
C65   C109  S    
C37   C110  A    
C60   H22   S    
C17   O44   D    
C43   C60   A    
C28   C90   S    
C33   O61   D    
C13   C49   A    
C125  O43   A    
O18   Zn8   S    
C70   O8    A    
C40   H3    S    
C27   H37   S    
O39   Zn3   S    
C49   H11   S    
C123  O37   A    
O15   Zn5   S    
C82   C97   A    
C122  O36   A    
C75   O10   A    
C72   O4    A    
C42   C116  A    
C17   H27   S    
C64   C85   A    
C88   C103  A    
C34   H44   S    
C90   C93   A    
O64   Zn8   S    
C124  O40   A    
C51   H14   S    
C67   C111  S    
O3    Zn10  S    
C42   H4    S    
C32   H42   S    
C2    C110  A    
O16   Zn1   S    
C122  O42   A    
C120  O31   A    
C82   C100  A    
C24   H34   S    
C119  O28   A    
C18   H28   S    
C45   C115  A    
C74   C123  S    
O33   Zn2   S    
C84   C100  A    
C73   O9    A    
C62   H25   S    
C81   O26   A    
C22   O50   D    
C39   H2    S    
C48   H10   S    
C44   C61   A    
O11   Zn6   S    
C38   C56   A    
C21   O49   D    
C72   C116  S    
C67   O62   A    
C102  C128  S    
C98   C106  A    
C23   C94   S    
C84   C99   A    
C2    H12   S    
C23   O51   D    
C29   H39   S    
C25   O52   D    
C117  O33   A    
C77   O15   A    
C30   H40   S    
C5    C10   T    
C13   C111  A    
O29   Zn12  S    
C43   C113  A    
C29   O57   D    
C53   C63   A    
C32   O60   D    
O2    Zn9   S    
C65   O1    A    
C25   H35   S    
O19   Zn9   S    
C60   C74   A    
C8    C73   S    
C101  C127  S    
C41   C48   A    
C57   C85   A    
C96   C125  S    
C4    C104  S    
C67   O23   A    
O7    Zn8   S    
C121  O35   A    
C41   C120  S    
C56   H18   S    
C18   O46   D    
C69   O64   A    
C90   C103  A    
O41   Zn4   S    
C36   C54   A    
C72   O6    A    
O27   Zn12  S    
O28   Zn12  S    
C19   O47   D    
C92   C105  A    
C20   C98   S    
C44   C116  A    
C26   C88   S    
C61   C107  A    
O20   Zn10  S    
C118  H1    S    
C34   C109  A    
C83   C101  A    
C7    C108  S    
C66   C110  S    
C15   C127  T    
C119  O32   A    
C9    C75   S    
C107  C122  S    
C76   O14   A    
C117  O27   A    
C86   C101  A    
C16   C126  T    
O10   Zn5   S    
O9    Zn1   S    
C35   C112  A    
C68   O56   A    
C69   O5    A    
C23   H33   S    
C21   C92   S    
C33   H43   S    
