data_mof_unit_43329.cif
_audit_creation_date              2012-12-10T20:55:44-0500
_audit_creation_method            fapswitch 2.2
_symmetry_space_group_name_H-M    P1
_symmetry_Int_Tables_number       1
_space_group_crystal_system       triclinic
_cell_length_a                    15.892933
_cell_length_b                    15.032572
_cell_length_c                    10.587091
_cell_angle_alpha                 89.16335
_cell_angle_beta                  90.304387
_cell_angle_gamma                 90.889926
_cell_volume                      2528.77203704

loop_
_atom_site_label
_atom_site_type_symbol
_atom_type_description
_atom_site_fract_x
_atom_site_fract_y
_atom_site_fract_z
_atom_type_partial_charge
C1    C     C_1   0.250919 0.498171 0.501463 -0.207994
C2    C     C_1   0.749079 0.501821 0.498538 -0.207996
C3    C     C_R   0.472643 0.497454 0.875901 -0.209383
C4    C     C_R   0.527326 0.502548 0.124089 -0.209373
C5    C     C_R   0.499606 0.904990 0.502223 -0.047572
C6    C     C_R   0.500378 0.095015 0.497807 -0.047575
C7    C     C_R   0.429562 0.951669 0.453003 -0.038786
C8    C     C_R   0.570421 0.048338 0.547026 -0.038795
C9    C     C_R   0.570044 0.953410 0.549049 -0.043328
C10   C     C_R   0.429939 0.046598 0.450982 -0.043325
C11   C     C_R   0.957294 0.565300 0.569728 0.155694
C12   C     C_R   0.042699 0.434677 0.430191 0.155687
C13   C     C_R   0.045611 0.562898 0.573551 0.152198
C14   C     C_R   0.954382 0.437081 0.426366 0.152208
C15   C     C_R   0.338945 0.499399 0.500007 0.905833
C16   C     C_R   0.661055 0.500599 0.499996 0.905854
C17   C     C_R   0.513997 0.500902 0.260202 0.881011
C18   C     C_R   0.485993 0.499098 0.739793 0.881013
C19   C     C_R   0.912817 0.501998 0.496948 0.036906
C20   C     C_R   0.087176 0.497979 0.502991 0.036907
C21   C     C_1   0.500205 0.807014 0.500677 0.081888
C22   C     C_1   0.499787 0.192988 0.499337 0.081888
C23   C     C_1   0.823697 0.502203 0.497377 -0.011636
C24   C     C_1   0.176300 0.497778 0.502607 -0.011607
C25   C     C_R   0.536743 0.667291 0.105684 -0.188131
C26   C     C_R   0.463222 0.332716 0.894295 -0.188133
C27   C     C_R   0.440072 0.657997 0.887056 -0.190502
C28   C     C_R   0.559882 0.342002 0.112933 -0.190497
C29   C     C_R   0.508035 0.746170 0.049150 0.237791
C30   C     C_R   0.491925 0.253837 0.950823 0.237793
C31   C     C_R   0.454583 0.741001 0.942813 0.238337
C32   C     C_R   0.545369 0.259002 0.057168 0.238325
C33   C     C_R   0.474928 0.579522 0.939172 0.038328
C34   C     C_R   0.525032 0.420479 0.060821 0.038317
C35   C     C_R   0.513567 0.583189 0.057352 0.039107
C36   C     C_R   0.486397 0.416814 0.942637 0.039107
H1    H     H_    0.578322 0.671859 0.186757 0.163615
H2    H     H_    0.421652 0.328152 0.813213 0.163613
H3    H     H_    0.399857 0.654361 0.804261 0.156403
H4    H     H_    0.600097 0.345629 0.195724 0.156425
N1    N     N_1   0.500000 0.270550 0.500000 -0.089150
N2    N     N_1   0.500000 0.729450 0.500000 -0.089147
O1    O     O_R   0.378020 0.573650 0.500040 -0.613501
O2    O     O_R   0.621980 0.426350 0.499960 -0.613490
O3    O     O_R   0.621980 0.573650 0.499960 -0.609099
O4    O     O_R   0.378020 0.426350 0.500040 -0.609105
O5    O     O_R   0.499990 0.573670 0.316780 -0.609420
O6    O     O_R   0.500010 0.426330 0.683220 -0.609421
O7    O     O_R   0.500010 0.573670 0.683220 -0.611334
O8    O     O_R   0.499990 0.426330 0.316780 -0.611342
Zn1   Zn    Zn3+2 0.500000 0.598370 0.500000 0.971641
Zn2   Zn    Zn3+2 0.500000 0.401630 0.500000 0.971641
C37   C     C_3   0.094075 0.629882 0.653651 -0.907577
H5    H     H_    0.163186 0.621861 0.652659 0.236545
H6    H     H_    0.081311 0.698487 0.619297 0.234770
H7    H     H_    0.074434 0.623065 0.753829 0.244307
C38   C     C_3   0.905915 0.370078 0.346295 -0.907574
H8    H     H_    0.836814 0.378187 0.347136 0.236561
H9    H     H_    0.925637 0.376767 0.246141 0.244332
H10   H     H_    0.918586 0.301492 0.380816 0.234715
C39   C     C_3   0.911916 0.636160 0.643261 -0.894307
H11   H     H_    0.842596 0.633986 0.632756 0.250461
H12   H     H_    0.925863 0.628583 0.745671 0.237202
H13   H     H_    0.933048 0.703180 0.610007 0.235364
C40   C     C_3   0.088077 0.363844 0.356602 -0.894299
H14   H     H_    0.157395 0.365951 0.367205 0.250456
H15   H     H_    0.066880 0.296809 0.389700 0.235397
H16   H     H_    0.074198 0.371531 0.254188 0.237178
C41   C     C_3   0.587726 0.177584 0.110741 -0.952150
H17   H     H_    0.624148 0.192920 0.197731 0.229636
H18   H     H_    0.540743 0.124795 0.134390 0.242418
H19   H     H_    0.631831 0.151432 0.039894 0.244756
C42   C     C_3   0.412225 0.822420 0.889229 -0.952077
H20   H     H_    0.375790 0.807074 0.802256 0.229630
H21   H     H_    0.368129 0.848588 0.960080 0.244745
H22   H     H_    0.459213 0.875205 0.865552 0.242410
C43   C     C_3   0.465620 0.165565 0.896462 -0.928840
H23   H     H_    0.425197 0.173757 0.811289 0.237196
H24   H     H_    0.521807 0.128054 0.868962 0.250695
H25   H     H_    0.429604 0.126212 0.968034 0.236624
C44   C     C_3   0.534350 0.834445 0.103492 -0.928849
H26   H     H_    0.574778 0.826260 0.188661 0.237195
H27   H     H_    0.570362 0.873787 0.031906 0.236630
H28   H     H_    0.478168 0.871965 0.130996 0.250690
C45   C     C_R   0.355872 0.095279 0.400392 0.115760
C46   C     C_R   0.276417 0.083935 0.456515 -0.127185
C47   C     C_R   0.205916 0.124566 0.402843 -0.130398
C48   C     C_R   0.214314 0.177020 0.293408 -0.126264
C49   C     C_R   0.293395 0.190540 0.238971 -0.120912
C50   C     C_R   0.363907 0.149960 0.292234 -0.158755
H29   H     H_    0.268980 0.042514 0.540397 0.124384
H30   H     H_    0.144639 0.114668 0.445334 0.125292
H31   H     H_    0.159556 0.206959 0.250416 0.131182
H32   H     H_    0.299967 0.231649 0.154687 0.137228
H33   H     H_    0.424419 0.160044 0.248162 0.137315
C51   C     C_R   0.644121 0.904735 0.599614 0.115761
C52   C     C_R   0.723562 0.916090 0.543460 -0.127177
C53   C     C_R   0.794077 0.875453 0.597078 -0.130412
C54   C     C_R   0.785707 0.822979 0.706487 -0.126271
C55   C     C_R   0.706638 0.809453 0.760962 -0.120902
C56   C     C_R   0.636112 0.850041 0.707758 -0.158745
H34   H     H_    0.730981 0.957520 0.459587 0.124385
H35   H     H_    0.855344 0.885356 0.554558 0.125286
H36   H     H_    0.840476 0.793036 0.749437 0.131192
H37   H     H_    0.700089 0.768327 0.845222 0.137228
H38   H     H_    0.575609 0.839952 0.751862 0.137297
C57   C     C_R   0.643382 0.099405 0.599793 0.125436
C58   C     C_R   0.666667 0.088847 0.727371 -0.134881
C59   C     C_R   0.733911 0.138330 0.777178 -0.132388
C60   C     C_R   0.778449 0.198686 0.700229 -0.103598
C61   C     C_R   0.756226 0.209132 0.573097 -0.122327
C62   C     C_R   0.689355 0.159402 0.522716 -0.153477
H39   H     H_    0.632748 0.042385 0.788197 0.120806
H40   H     H_    0.751424 0.129979 0.875508 0.124719
H41   H     H_    0.830291 0.237218 0.739015 0.126524
H42   H     H_    0.790740 0.255843 0.513617 0.137506
H43   H     H_    0.673126 0.167878 0.423875 0.117972
C63   C     C_R   0.356604 0.900608 0.400217 0.125422
C64   C     C_R   0.310626 0.840604 0.477271 -0.153474
C65   C     C_R   0.243749 0.790892 0.426871 -0.122335
C66   C     C_R   0.221519 0.801366 0.299747 -0.103619
C67   C     C_R   0.266062 0.861727 0.222822 -0.132393
C68   C     C_R   0.333317 0.911187 0.272643 -0.134854
H44   H     H_    0.326854 0.832111 0.576108 0.117979
H45   H     H_    0.209230 0.744177 0.486329 0.137512
H46   H     H_    0.169669 0.762852 0.260948 0.126525
H47   H     H_    0.248541 0.870102 0.124500 0.124720
H48   H     H_    0.367243 0.957650 0.211830 0.120814

loop_
_geom_bond_atom_site_label_1
_geom_bond_atom_site_label_2
_ccdc_geom_bond_type
C7    C10   A    
C47   C48   A    
C10   C45   S    
C39   H13   S    
C11   C13   A    
C57   C62   A    
C61   C62   A    
C52   C53   A    
C38   H8    S    
C50   H33   S    
C43   H23   S    
C27   C33   A    
C29   C44   S    
C11   C19   A    
C55   H37   S    
C46   H29   S    
C45   C46   A    
C62   H43   S    
C53   C54   A    
C38   H9    S    
C22   N1    T    
O3    Zn1   S    
C53   H35   S    
C6    C22   S    
O4    Zn2   S    
C49   H32   S    
C58   C59   A    
C3    C18   S    
C39   H12   S    
C42   H20   S    
C67   H47   S    
C41   H18   S    
C63   C64   A    
C25   H1    S    
C60   C61   A    
C30   C43   S    
C20   C24   S    
C27   H3    S    
C8    C9    A    
C40   H15   S    
O8    Zn2   S    
C57   C58   A    
C61   H42   S    
C1    C15   S    
C2    C16   S    
C16   O2    A    
N1    Zn2   S    
C52   H34   S    
N2    Zn1   S    
O2    Zn2   S    
C37   H6    S    
C54   H36   S    
C4    C35   A    
C28   C34   A    
C47   H30   S    
C42   H21   S    
C7    C63   S    
C41   H17   S    
C44   H27   S    
C44   H26   S    
C13   C37   S    
C43   H24   S    
C25   C29   A    
C4    C34   A    
C27   C31   A    
C28   C32   A    
C5    C7    A    
C65   H45   S    
C26   H2    S    
C38   H10   S    
C6    C8    A    
O7    Zn1   S    
C64   H44   S    
C58   H39   S    
C16   O3    A    
C41   H19   S    
C19   C23   S    
C28   H4    S    
C5    C9    A    
C54   C55   A    
C64   C65   A    
C40   H16   S    
C51   C52   A    
C12   C20   A    
C9    C51   S    
C66   C67   A    
C59   H40   S    
C25   C35   A    
C4    C17   S    
C26   C36   A    
C12   C14   A    
C26   C30   A    
C42   H22   S    
C8    C57   S    
C44   H28   S    
C65   C66   A    
C37   H7    S    
C56   H38   S    
C14   C38   S    
C48   H31   S    
C13   C20   A    
C46   C47   A    
C14   C19   A    
C17   O5    A    
C11   C39   S    
C18   O6    A    
C17   O8    A    
C6    C10   A    
O5    Zn1   S    
C45   C50   A    
C37   H5    S    
C32   C41   S    
C12   C40   S    
C49   C50   A    
C15   O1    A    
C66   H46   S    
C29   C31   A    
C59   C60   A    
C30   C32   A    
C43   H25   S    
O1    Zn1   S    
C68   H48   S    
C3    C36   A    
C55   C56   A    
C33   C35   A    
C34   C36   A    
C63   C68   A    
C39   H11   S    
C31   C42   S    
C21   N2    T    
O6    Zn2   S    
C5    C21   S    
C48   C49   A    
C1    C24   T    
C40   H14   S    
C2    C23   T    
C3    C33   A    
C15   O4    A    
C67   C68   A    
C51   C56   A    
C60   H41   S    
C18   O7    A    
