data_mof_unit_16365.cif
_audit_creation_date              2012-12-10T16:55:20-0500
_audit_creation_method            fapswitch 2.2
_symmetry_space_group_name_H-M    P1
_symmetry_Int_Tables_number       1
_space_group_crystal_system       triclinic
_cell_length_a                    18.565207
_cell_length_b                    18.746759
_cell_length_c                    51.210435
_cell_angle_alpha                 90.114115
_cell_angle_beta                  89.711332
_cell_angle_gamma                 90.278642
_cell_volume                      17822.6783379

loop_
_atom_site_label
_atom_site_type_symbol
_atom_type_description
_atom_site_fract_x
_atom_site_fract_y
_atom_site_fract_z
_atom_type_partial_charge
C1    C     C_R   0.000113 0.500047 0.070721 0.850637
C2    C     C_R   0.499878 0.000120 0.070736 0.865046
C3    C     C_R   0.501317 0.000065 0.570847 0.841110
C4    C     C_R   0.999932 0.499329 0.570883 0.851618
C5    C     C_R   0.098122 0.408712 0.764786 0.376066
C6    C     C_R   0.626719 0.067387 0.764021 0.368447
C7    C     C_R   0.866953 0.532021 0.764805 0.361929
C8    C     C_R   0.412442 0.914815 0.765110 0.371292
C9    C     C_R   0.623702 0.951247 0.263873 0.373621
C10   C     C_R   0.117825 0.545607 0.264076 0.361244
C11   C     C_R   0.370993 0.023091 0.264851 0.361865
C12   C     C_R   0.874602 0.443773 0.263643 0.363342
C13   C     C_R   0.039863 0.438827 0.778806 -0.179836
C14   C     C_R   0.572712 0.030682 0.778296 -0.177239
C15   C     C_R   0.923892 0.500472 0.778818 -0.183885
C16   C     C_R   0.464415 0.955413 0.778781 -0.178005
C17   C     C_R   0.560897 0.969377 0.278112 -0.175819
C18   C     C_R   0.056918 0.519894 0.277905 -0.163606
C19   C     C_R   0.434719 0.006960 0.278568 -0.164953
C20   C     C_R   0.934343 0.470351 0.277691 -0.168415
C21   C     C_R   0.982757 0.470857 0.764977 -0.145153
C22   C     C_R   0.518541 0.992497 0.764724 -0.142785
C23   C     C_R   0.497280 0.987070 0.264507 -0.138630
C24   C     C_R   0.995953 0.495161 0.264013 -0.147925
C25   C     C_R   0.037321 0.438636 0.806359 0.606470
C26   C     C_R   0.571258 0.030527 0.805841 0.615437
C27   C     C_R   0.924824 0.499465 0.806380 0.623135
C28   C     C_R   0.463818 0.960165 0.806207 0.603706
C29   C     C_R   0.559499 0.969917 0.305679 0.614616
C30   C     C_R   0.055258 0.517256 0.305337 0.622656
C31   C     C_R   0.438085 0.010785 0.306055 0.613790
C32   C     C_R   0.934279 0.473486 0.305133 0.630038
C33   C     C_R   0.000220 0.545027 0.858277 0.359603
C34   C     C_R   0.466064 0.044548 0.859580 0.368032
C35   C     C_R   0.976307 0.418014 0.863559 0.380772
C36   C     C_R   0.559984 0.954187 0.861490 0.373671
C37   C     C_R   0.526012 0.054228 0.359814 0.383221
C38   C     C_R   0.980569 0.560424 0.359304 0.350213
C39   C     C_R   0.474321 0.934448 0.361160 0.359931
C40   C     C_R   0.009338 0.433984 0.359741 0.333475
C41   C     C_R   0.002913 0.553236 0.885518 0.264983
C42   C     C_R   0.459610 0.043077 0.886835 0.279276
C43   C     C_R   0.988584 0.424490 0.890513 0.274763
C44   C     C_R   0.557418 0.956064 0.888835 0.302624
C45   C     C_R   0.521994 0.058106 0.387178 0.268308
C46   C     C_R   0.979689 0.561501 0.386751 0.289692
C47   C     C_R   0.479267 0.934789 0.388512 0.294786
C48   C     C_R   0.018257 0.436950 0.386940 0.293186
C49   C     C_R   0.999387 0.492588 0.901572 -0.344533
C50   C     C_R   0.505878 0.999561 0.901532 -0.361024
C51   C     C_R   0.500624 0.997559 0.401515 -0.356736
C52   C     C_R   0.999592 0.499683 0.400859 -0.356397
C53   C     C_R   0.985468 0.477630 0.847307 -0.032908
C54   C     C_R   0.515047 0.999084 0.846954 -0.028074
C55   C     C_R   0.500038 0.993246 0.346840 -0.002486
C56   C     C_R   0.993537 0.496394 0.346083 0.023862
C57   C     C_R   0.483486 0.927290 0.139572 0.410386
C58   C     C_R   0.033095 0.442708 0.140689 0.408339
C59   C     C_R   0.511404 0.054462 0.142051 0.408772
C60   C     C_R   0.965339 0.553867 0.141221 0.408454
C61   C     C_R   0.952859 0.439678 0.640099 0.415724
C62   C     C_R   0.541987 0.938183 0.640083 0.420058
C63   C     C_R   0.040882 0.535955 0.642529 0.416498
C64   C     C_R   0.484061 0.053937 0.642665 0.406256
C65   C     C_R   0.485177 0.930549 0.112002 -0.155789
C66   C     C_R   0.033915 0.443308 0.113256 -0.168100
C67   C     C_R   0.513929 0.058414 0.114502 -0.164046
C68   C     C_R   0.966524 0.555755 0.113771 -0.170813
C69   C     C_R   0.953974 0.442934 0.612507 -0.155326
C70   C     C_R   0.538327 0.940043 0.612691 -0.164368
C71   C     C_R   0.045997 0.536963 0.615085 -0.175159
C72   C     C_R   0.482297 0.058059 0.615230 -0.176864
C73   C     C_R   0.000067 0.500173 0.929977 0.946708
C74   C     C_R   0.500689 0.999876 0.930056 0.887269
C75   C     C_R   0.500185 0.999823 0.430012 0.916800
C76   C     C_R   0.000282 0.499981 0.429823 0.878718
C77   C     C_R   0.499543 0.996502 0.099487 -0.191863
C78   C     C_R   0.000293 0.499868 0.099588 -0.219314
C79   C     C_R   0.999739 0.493315 0.599823 -0.215977
C80   C     C_R   0.506731 0.999475 0.599872 -0.223933
C81   C     C_R   0.496393 0.989191 0.154368 0.105037
C82   C     C_R   0.998403 0.497495 0.154403 0.110102
C83   C     C_R   0.994125 0.487500 0.654922 0.076915
C84   C     C_R   0.513653 0.994210 0.654891 0.083815
C85   C     C_R   0.863183 0.639491 0.999419 0.807731
C86   C     C_R   0.361336 0.861294 0.000402 0.779434
C87   C     C_R   0.136989 0.360619 0.999345 0.811525
C88   C     C_R   0.638567 0.138647 0.000305 0.762220
C89   C     C_R   0.138205 0.638854 0.999518 0.779487
C90   C     C_R   0.639886 0.862701 0.000154 0.734838
C91   C     C_R   0.862329 0.360732 0.999372 0.776440
C92   C     C_R   0.360127 0.137534 0.000313 0.741828
C93   C     C_R   0.362518 0.138588 0.499961 0.815079
C94   C     C_R   0.859720 0.362651 0.499585 0.797634
C95   C     C_R   0.637669 0.861584 0.499841 0.809058
C96   C     C_R   0.137344 0.638404 0.500640 0.789323
C97   C     C_R   0.637672 0.139511 0.499228 0.767039
C98   C     C_R   0.139480 0.362941 0.499637 0.752399
C99   C     C_R   0.360903 0.863677 0.500669 0.826492
C100  C     C_R   0.860912 0.637104 0.499932 0.782433
C101  C     C_2   0.696005 0.247687 0.982844 0.303642
C102  C     C_2   0.746211 0.691486 0.993795 0.318077
C103  C     C_2   0.306608 0.749781 0.984154 0.318958
C104  C     C_2   0.255071 0.310237 0.994408 0.316279
C105  C     C_2   0.303783 0.249801 0.987218 0.311036
C106  C     C_2   0.254883 0.689615 0.986971 0.274976
C107  C     C_2   0.698872 0.752185 0.986308 0.307320
C108  C     C_2   0.747166 0.308447 0.985422 0.273925
C109  C     C_2   0.193932 0.751468 0.507747 0.277810
C110  C     C_2   0.247512 0.195632 0.498399 0.287233
C111  C     C_2   0.805232 0.250422 0.484582 0.296646
C112  C     C_2   0.753676 0.807736 0.501258 0.293766
C113  C     C_2   0.809538 0.754286 0.494357 0.298263
C114  C     C_2   0.746035 0.196349 0.480562 0.289962
C115  C     C_2   0.198756 0.250728 0.487295 0.307529
C116  C     C_2   0.243518 0.811007 0.500998 0.295620
C117  C     C_2   0.693621 0.194864 0.001073 0.220389
C118  C     C_2   0.818372 0.701445 0.993519 0.281171
C119  C     C_2   0.305289 0.806064 0.001022 0.203003
C120  C     C_2   0.183008 0.299299 0.993519 0.287569
C121  C     C_2   0.300955 0.189846 0.001741 0.262961
C122  C     C_2   0.184042 0.699954 0.992669 0.263633
C123  C     C_2   0.699873 0.811547 0.001149 0.264447
C124  C     C_2   0.816779 0.299033 0.992873 0.260171
C125  C     C_2   0.197283 0.685915 0.497165 0.251012
C126  C     C_2   0.319096 0.200839 0.494621 0.275695
C127  C     C_2   0.795556 0.317936 0.494118 0.185197
C128  C     C_2   0.683693 0.800809 0.494715 0.272170
C129  C     C_2   0.798773 0.683072 0.496928 0.266571
C130  C     C_2   0.678446 0.203148 0.490971 0.212835
C131  C     C_2   0.202824 0.317905 0.496359 0.252235
C132  C     C_2   0.314997 0.803958 0.496072 0.242169
C133  C     C_R   0.433112 0.998461 0.195693 0.597677
C134  C     C_R   0.938705 0.470117 0.195047 0.598050
C135  C     C_R   0.558664 0.972415 0.195297 0.591070
C136  C     C_R   0.056282 0.521994 0.195365 0.600387
C137  C     C_R   0.933428 0.511389 0.695995 0.592034
C138  C     C_R   0.466009 0.952654 0.696043 0.590548
C139  C     C_R   0.045970 0.450604 0.696067 0.593618
C140  C     C_R   0.569171 0.028981 0.695525 0.594410
C141  C     C_R   0.559526 0.967556 0.222780 -0.181019
C142  C     C_R   0.058515 0.519069 0.222765 -0.154609
C143  C     C_R   0.432690 0.002591 0.223217 -0.161508
C144  C     C_R   0.935424 0.471402 0.222501 -0.157028
C145  C     C_R   0.043029 0.442994 0.723474 -0.196727
C146  C     C_R   0.572778 0.028015 0.722993 -0.172660
C147  C     C_R   0.929570 0.508979 0.723524 -0.166522
C148  C     C_R   0.464189 0.953280 0.723541 -0.168410
C149  C     C_R   0.496432 0.985550 0.236841 -0.137454
C150  C     C_R   0.996596 0.495266 0.236433 -0.140750
C151  C     C_R   0.985015 0.474124 0.737316 -0.139237
C152  C     C_R   0.518507 0.991266 0.737088 -0.138725
C153  C     C_R   0.621825 0.946401 0.236540 0.404571
C154  C     C_R   0.120606 0.539506 0.236719 0.364610
C155  C     C_R   0.370919 0.024031 0.237395 0.372611
C156  C     C_R   0.873223 0.449128 0.236282 0.366048
C157  C     C_R   0.096677 0.405733 0.737420 0.401975
C158  C     C_R   0.628854 0.062748 0.736661 0.372525
C159  C     C_R   0.872159 0.540486 0.737592 0.376206
C160  C     C_R   0.409793 0.917167 0.737774 0.373711
N1    N     N_R   0.495821 0.985717 0.182450 -0.313027
N2    N     N_R   0.997745 0.496481 0.182313 -0.315993
N3    N     N_R   0.991419 0.483553 0.683028 -0.319800
N4    N     N_R   0.516678 0.991516 0.682851 -0.322467
N5    N     N_R   0.981452 0.470121 0.819375 -0.305938
N6    N     N_R   0.516967 0.996497 0.818962 -0.305922
N7    N     N_R   0.499200 0.991249 0.318821 -0.295987
N8    N     N_R   0.994303 0.495642 0.318140 -0.295122
O1    O     O_3   0.000000 0.500000 0.000300 -0.482909
O2    O     O_3   0.500000 0.000000 0.000300 -0.490657
O3    O     O_3   0.500000 1.000000 0.500300 -0.484853
O4    O     O_3   1.000000 0.500000 0.500300 -0.490702
O5    O     O_R   1.000000 0.439910 0.058350 -0.631031
O6    O     O_R   0.560090 0.000000 0.058350 -0.643350
O7    O     O_R   1.000000 0.560090 0.058350 -0.629063
O8    O     O_R   0.439910 0.000000 0.058350 -0.644671
O9    O     O_R   0.500000 0.939910 0.558350 -0.628883
O10   O     O_R   0.060090 0.500000 0.558350 -0.638585
O11   O     O_R   0.500000 0.060090 0.558350 -0.631678
O12   O     O_R   0.939910 0.500000 0.558350 -0.626298
O13   O     O_R   0.939640 0.500000 0.942260 -0.655373
O14   O     O_R   0.500000 0.939640 0.942260 -0.639227
O15   O     O_R   0.060360 0.500000 0.942260 -0.661817
O16   O     O_R   0.500000 0.060360 0.942260 -0.632565
O17   O     O_R   0.439640 0.000000 0.442260 -0.645230
O18   O     O_R   1.000000 0.439640 0.442260 -0.619991
O19   O     O_R   0.560360 0.000000 0.442260 -0.657351
O20   O     O_R   1.000000 0.560360 0.442260 -0.608216
O21   O     O_R   0.915140 0.644610 0.015520 -0.662366
O22   O     O_R   0.355390 0.915140 0.015520 -0.635083
O23   O     O_R   0.084860 0.355390 0.015520 -0.661064
O24   O     O_R   0.644610 0.084860 0.015520 -0.633229
O25   O     O_R   0.084860 0.644610 0.015520 -0.660033
O26   O     O_R   0.644610 0.915140 0.015520 -0.661500
O27   O     O_R   0.915140 0.355390 0.015520 -0.654421
O28   O     O_R   0.355390 0.084860 0.015520 -0.667096
O29   O     O_R   0.415140 0.144610 0.515520 -0.666052
O30   O     O_R   0.855390 0.415140 0.515520 -0.662869
O31   O     O_R   0.584860 0.855390 0.515520 -0.649198
O32   O     O_R   0.144610 0.584860 0.515520 -0.658325
O33   O     O_R   0.584860 0.144610 0.515520 -0.650723
O34   O     O_R   0.144610 0.415140 0.515520 -0.646560
O35   O     O_R   0.415140 0.855390 0.515520 -0.657715
O36   O     O_R   0.855390 0.584860 0.515520 -0.651890
O37   O     O_R   0.144340 0.415480 0.985090 -0.661571
O38   O     O_R   0.584520 0.144340 0.985090 -0.619717
O39   O     O_R   0.855660 0.584520 0.985090 -0.658963
O40   O     O_R   0.415480 0.855660 0.985090 -0.623686
O41   O     O_R   0.855660 0.415480 0.985090 -0.637795
O42   O     O_R   0.415480 0.144340 0.985090 -0.589317
O43   O     O_R   0.144340 0.584520 0.985090 -0.640389
O44   O     O_R   0.584520 0.855660 0.985090 -0.596829
O45   O     O_R   0.644340 0.915480 0.485090 -0.682557
O46   O     O_R   0.084520 0.644340 0.485090 -0.665067
O47   O     O_R   0.355660 0.084520 0.485090 -0.639382
O48   O     O_R   0.915480 0.355660 0.485090 -0.637694
O49   O     O_R   0.355660 0.915480 0.485090 -0.661108
O50   O     O_R   0.915480 0.644340 0.485090 -0.648812
O51   O     O_R   0.644340 0.084520 0.485090 -0.641565
O52   O     O_R   0.084520 0.355660 0.485090 -0.614134
O53   O     O_2   0.371679 0.007293 0.182145 -0.533059
O54   O     O_2   0.883914 0.442428 0.181019 -0.546060
O55   O     O_2   0.620202 0.965326 0.181436 -0.547392
O56   O     O_2   0.111507 0.550812 0.181698 -0.541375
O57   O     O_2   0.879906 0.541331 0.682138 -0.526857
O58   O     O_2   0.417489 0.914075 0.682399 -0.532155
O59   O     O_2   0.103053 0.425965 0.682441 -0.531131
O60   O     O_2   0.617263 0.067153 0.681415 -0.533694
O61   O     O_2   0.090601 0.408285 0.820218 -0.539243
O62   O     O_2   0.623210 0.064114 0.819567 -0.533036
O63   O     O_2   0.870457 0.528621 0.820269 -0.531190
O64   O     O_2   0.410515 0.929135 0.820221 -0.534469
O65   O     O_2   0.617495 0.949058 0.319415 -0.555230
O66   O     O_2   0.114153 0.535084 0.319275 -0.547639
O67   O     O_2   0.381186 0.034194 0.320084 -0.550777
O68   O     O_2   0.874663 0.455693 0.318858 -0.545727
Zn1   Zn    Zn3+2 0.913860 0.500000 0.978560 0.952517
Zn2   Zn    Zn3+2 0.500000 0.913860 0.978560 0.968293
Zn3   Zn    Zn3+2 0.086140 0.500000 0.978560 0.948560
Zn4   Zn    Zn3+2 0.500000 0.086140 0.978560 0.972775
Zn5   Zn    Zn3+2 0.413860 0.000000 0.478560 0.959585
Zn6   Zn    Zn3+2 1.000000 0.413860 0.478560 0.969445
Zn7   Zn    Zn3+2 0.586140 0.000000 0.478560 0.925076
Zn8   Zn    Zn3+2 1.000000 0.586140 0.478560 0.954786
Zn9   Zn    Zn3+2 1.000000 0.585830 0.022050 0.960903
Zn10  Zn    Zn3+2 0.414170 0.000000 0.022050 0.952744
Zn11  Zn    Zn3+2 1.000000 0.414170 0.022050 0.960655
Zn12  Zn    Zn3+2 0.585830 0.000000 0.022050 0.950127
Zn13  Zn    Zn3+2 0.500000 0.085830 0.522050 0.957595
Zn14  Zn    Zn3+2 0.914170 0.500000 0.522050 0.960673
Zn15  Zn    Zn3+2 0.500000 0.914170 0.522050 0.967301
Zn16  Zn    Zn3+2 0.085830 0.500000 0.522050 0.959546
O69   O     O_3   0.639430 0.255792 0.965511 -0.629559
C161  C     C_3   0.656404 0.221324 0.941709 0.063708
H1    H     H_    0.673222 0.164993 0.944921 0.123830
H2    H     H_    0.700100 0.250473 0.931351 0.101339
C162  C     C_3   0.589734 0.221510 0.924326 -0.271251
H3    H     H_    0.544358 0.194750 0.934649 0.269496
H4    H     H_    0.573787 0.277488 0.920295 0.198704
C163  C     C_3   0.603753 0.183256 0.898487 -0.952188
H5    H     H_    0.647441 0.210547 0.887444 0.269043
H6    H     H_    0.554125 0.183871 0.886552 0.257840
H7    H     H_    0.619089 0.126945 0.901968 0.260342
O70   O     O_3   0.718710 0.630270 0.006042 -0.686939
C164  C     C_3   0.651354 0.607398 0.996204 0.105722
H8    H     H_    0.649001 0.548585 0.998580 0.162970
H9    H     H_    0.645756 0.616729 0.974897 0.161152
C165  C     C_3   0.588374 0.638383 0.012051 -0.348797
H10   H     H_    0.590503 0.617789 0.032370 0.206747
H11   H     H_    0.591880 0.697296 0.012996 0.229077
C166  C     C_3   0.516151 0.617979 0.999933 -0.877023
H12   H     H_    0.512284 0.639870 0.979839 0.288156
H13   H     H_    0.471514 0.640371 0.011847 0.268062
H14   H     H_    0.510002 0.559054 0.999182 0.239705
O71   O     O_3   0.366738 0.738266 0.968512 -0.636764
C167  C     C_3   0.355406 0.768804 0.943637 0.078355
H15   H     H_    0.336836 0.825109 0.945190 0.139233
H16   H     H_    0.314958 0.737360 0.932576 0.104184
C168  C     C_3   0.426321 0.767787 0.928348 -0.277979
H17   H     H_    0.468845 0.795333 0.939815 0.276091
H18   H     H_    0.443322 0.711636 0.925189 0.193865
C169  C     C_3   0.418956 0.804692 0.901961 -0.948192
H19   H     H_    0.377487 0.777367 0.889941 0.258713
H20   H     H_    0.471222 0.802759 0.891405 0.262257
H21   H     H_    0.403703 0.861456 0.904696 0.261924
O72   O     O_3   0.279822 0.373416 0.006217 -0.690113
C170  C     C_3   0.353154 0.390109 0.001592 0.101525
H22   H     H_    0.358996 0.448753 0.003964 0.163419
H23   H     H_    0.370302 0.379470 0.981217 0.169406
C171  C     C_3   0.402642 0.355344 0.021770 -0.352643
H24   H     H_    0.389935 0.376908 0.041487 0.210326
H25   H     H_    0.394268 0.296860 0.022360 0.216930
C172  C     C_3   0.481698 0.370173 0.015349 -0.904407
H26   H     H_    0.495648 0.348031 0.995833 0.296812
H27   H     H_    0.516512 0.344487 0.030108 0.251834
H28   H     H_    0.492570 0.428478 0.015491 0.250068
O73   O     O_3   0.357096 0.257997 0.968322 -0.655803
C173  C     C_3   0.325969 0.277234 0.944293 0.032511
H29   H     H_    0.302539 0.331524 0.945505 0.133603
H30   H     H_    0.282930 0.238642 0.938705 0.154160
C174  C     C_3   0.384892 0.277003 0.923329 -0.292795
H31   H     H_    0.427464 0.316164 0.928739 0.216452
H32   H     H_    0.409739 0.223243 0.922310 0.262475
C175  C     C_3   0.355451 0.296170 0.896496 -0.971143
H33   H     H_    0.316172 0.255225 0.889885 0.274715
H34   H     H_    0.400460 0.298501 0.882177 0.260877
H35   H     H_    0.328939 0.349094 0.897067 0.265058
O74   O     O_3   0.282016 0.620738 0.984839 -0.640958
C176  C     C_3   0.284352 0.601055 0.958071 0.138250
H36   H     H_    0.334343 0.621783 0.948821 0.164669
H37   H     H_    0.236867 0.621464 0.947100 0.119918
C177  C     C_3   0.285950 0.519891 0.955442 -0.302181
H38   H     H_    0.340204 0.500292 0.960840 0.184558
H39   H     H_    0.245868 0.495584 0.968863 0.289357
C178  C     C_3   0.269179 0.496575 0.927521 -0.975892
H40   H     H_    0.214773 0.515052 0.921740 0.281665
H41   H     H_    0.269852 0.437646 0.926166 0.253168
H42   H     H_    0.309985 0.518643 0.913767 0.258049
O75   O     O_3   0.648550 0.744237 0.966565 -0.659976
C179  C     C_3   0.685063 0.734997 0.942567 0.056425
H43   H     H_    0.720861 0.687481 0.943074 0.121061
H44   H     H_    0.717650 0.783486 0.937904 0.159979
C180  C     C_3   0.629701 0.723411 0.921029 -0.299279
H45   H     H_    0.596362 0.675666 0.925735 0.208814
H46   H     H_    0.593690 0.770451 0.919943 0.261214
C181  C     C_3   0.666115 0.712383 0.894570 -0.961608
H47   H     H_    0.695583 0.761411 0.888598 0.272751
H48   H     H_    0.624577 0.700076 0.879736 0.260904
H49   H     H_    0.704401 0.667128 0.895353 0.263180
O76   O     O_3   0.719919 0.376753 0.982031 -0.636897
C182  C     C_3   0.723209 0.394839 0.955171 0.140676
H50   H     H_    0.678280 0.369135 0.944444 0.162807
H51   H     H_    0.775315 0.378590 0.946003 0.127692
C183  C     C_3   0.714656 0.475394 0.952157 -0.314023
H52   H     H_    0.658358 0.490092 0.957144 0.190067
H53   H     H_    0.751562 0.503567 0.965728 0.276672
C184  C     C_3   0.731102 0.499588 0.924314 -0.980324
H54   H     H_    0.787915 0.487501 0.919082 0.278637
H55   H     H_    0.723012 0.558048 0.922837 0.258815
H56   H     H_    0.694569 0.472416 0.910309 0.261587
O77   O     O_3   0.148911 0.762144 0.529201 -0.672575
C185  C     C_3   0.081002 0.788888 0.521748 0.135694
H57   H     H_    0.041486 0.744178 0.521416 0.150683
H58   H     H_    0.080905 0.814335 0.502221 0.126625
C186  C     C_3   0.056669 0.843612 0.542108 -0.326732
H59   H     H_    0.051076 0.817364 0.561421 0.206359
H60   H     H_    0.097880 0.886588 0.543706 0.246541
C187  C     C_3   0.984610 0.876633 0.535064 -0.962715
H61   H     H_    0.989038 0.904904 0.516116 0.251415
H62   H     H_    0.968685 0.915748 0.550317 0.260102
H63   H     H_    0.942358 0.834657 0.533888 0.310155
O78   O     O_3   0.220162 0.134106 0.510412 -0.691377
C188  C     C_3   0.155080 0.146020 0.524322 0.076899
H64   H     H_    0.132060 0.093049 0.529463 0.157997
H65   H     H_    0.113153 0.171902 0.512258 0.185429
C189  C     C_3   0.168554 0.186706 0.549899 -0.391570
H66   H     H_    0.197359 0.151310 0.563688 0.220826
H67   H     H_    0.202457 0.234692 0.546285 0.218268
C190  C     C_3   0.098021 0.210667 0.562388 -0.960967
H68   H     H_    0.070613 0.249011 0.549312 0.255704
H69   H     H_    0.109177 0.237644 0.581274 0.267185
H70   H     H_    0.062125 0.164122 0.566030 0.265086
O79   O     O_3   0.875018 0.224557 0.481581 -0.636689
C191  C     C_3   0.895782 0.226517 0.454814 0.207062
H71   H     H_    0.937971 0.267953 0.452003 0.191887
H72   H     H_    0.851452 0.240616 0.441159 0.078202
C192  C     C_3   0.929458 0.155339 0.447024 -0.337050
H73   H     H_    0.981538 0.149636 0.457298 0.217282
H74   H     H_    0.894984 0.110476 0.453413 0.249246
C193  C     C_3   0.940566 0.150156 0.417484 -1.022239
H75   H     H_    0.887898 0.149786 0.407315 0.264953
H76   H     H_    0.969114 0.099902 0.412633 0.277282
H77   H     H_    0.972920 0.196047 0.410240 0.275966
O80   O     O_3   0.772920 0.862337 0.518341 -0.685997
C194  C     C_3   0.808813 0.918018 0.504940 0.099522
H78   H     H_    0.785456 0.928495 0.485316 0.119656
H79   H     H_    0.866340 0.904456 0.502460 0.202202
C195  C     C_3   0.803612 0.986320 0.521239 -0.347917
H80   H     H_    0.749224 0.009848 0.518767 0.226598
H81   H     H_    0.810908 0.973690 0.542267 0.224771
C196  C     C_3   0.860976 0.040715 0.513181 -0.881852
H82   H     H_    0.914967 0.022789 0.519604 0.242904
H83   H     H_    0.849332 0.093109 0.522398 0.274520
H84   H     H_    0.861942 0.047025 0.491685 0.290054
O81   O     O_3   0.879229 0.779493 0.490969 -0.675653
C197  C     C_3   0.889922 0.794647 0.464208 0.077859
H85   H     H_    0.855200 0.839755 0.457992 0.109573
H86   H     H_    0.877357 0.747166 0.451937 0.148376
C198  C     C_3   0.968815 0.815082 0.459825 -0.306752
H87   H     H_    0.981172 0.864668 0.470859 0.198376
H88   H     H_    0.003788 0.771651 0.467170 0.245923
C199  C     C_3   0.985601 0.827093 0.430988 -0.972522
H89   H     H_    0.978290 0.776643 0.419936 0.288401
H90   H     H_    0.042503 0.844602 0.428721 0.258498
H91   H     H_    0.949971 0.868852 0.422830 0.261654
O82   O     O_3   0.768572 0.129658 0.471984 -0.639882
C200  C     C_3   0.745330 0.118381 0.445892 0.107250
H92   H     H_    0.777227 0.151333 0.432117 0.118289
H93   H     H_    0.687757 0.132350 0.443066 0.153068
C201  C     C_3   0.754718 0.039628 0.438724 -0.296594
H94   H     H_    0.811867 0.023816 0.441060 0.193589
H95   H     H_    0.721546 0.006181 0.452051 0.262043
C202  C     C_3   0.731790 0.024868 0.410656 -0.957542
H96   H     H_    0.674392 0.039239 0.407949 0.290845
H97   H     H_    0.738248 0.967237 0.406234 0.261639
H98   H     H_    0.765714 0.056049 0.396826 0.255896
O83   O     O_3   0.145125 0.230634 0.469893 -0.656530
C203  C     C_3   0.178703 0.195974 0.448420 0.077959
H99   H     H_    0.200589 0.143317 0.454437 0.173513
H100  H     H_    0.223344 0.229481 0.440300 0.141186
C204  C     C_3   0.124381 0.182571 0.426762 -0.343003
H101  H     H_    0.083499 0.144264 0.433893 0.237959
H102  H     H_    0.097505 0.233239 0.421488 0.249209
C205  C     C_3   0.160229 0.150486 0.402582 -0.976235
H103  H     H_    0.203478 0.186224 0.395140 0.275752
H104  H     H_    0.119420 0.143069 0.387017 0.271035
H105  H     H_    0.183864 0.097773 0.407303 0.267434
O84   O     O_3   0.216126 0.878908 0.504834 -0.647678
C206  C     C_3   0.187380 0.903127 0.480886 0.059352
H106  H     H_    0.150628 0.863073 0.471816 0.109552
H107  H     H_    0.231332 0.914640 0.466655 0.167449
C207  C     C_3   0.145545 0.971635 0.485937 -0.297864
H108  H     H_    0.103488 0.961892 0.501022 0.214609
H109  H     H_    0.183353 0.012694 0.493382 0.275075
C208  C     C_3   0.109832 0.999340 0.461240 -0.995224
H110  H     H_    0.151069 0.011208 0.446057 0.270427
H111  H     H_    0.080123 0.049012 0.465922 0.268417
H112  H     H_    0.070967 0.959442 0.453558 0.269042
O85   O     O_3   0.745038 0.190319 0.020478 -0.590526
C209  C     C_3   0.718932 0.223473 0.043347 0.100817
H113  H     H_    0.673073 0.192461 0.051700 0.159421
H114  H     H_    0.700704 0.278953 0.039321 0.084404
C210  C     C_3   0.779818 0.227733 0.063302 -0.320669
H115  H     H_    0.827268 0.254837 0.054356 0.239961
H116  H     H_    0.762158 0.260158 0.080297 0.156901
C211  C     C_3   0.801864 0.153866 0.072806 -0.775041
H117  H     H_    0.755248 0.126281 0.082081 0.240938
H118  H     H_    0.845440 0.159309 0.087457 0.227008
H119  H     H_    0.822179 0.121098 0.056263 0.285365
O86   O     O_3   0.846540 0.766783 0.984537 -0.678446
C212  C     C_3   0.922875 0.772268 0.984054 0.077557
H120  H     H_    0.937098 0.815048 0.969960 0.158698
H121  H     H_    0.948482 0.723695 0.975781 0.074255
C213  C     C_3   0.954083 0.791018 0.011224 -0.282685
H122  H     H_    0.911824 0.784721 0.026408 0.243858
H123  H     H_    0.997665 0.753060 0.016032 0.241020
C214  C     C_3   0.986087 0.866242 0.013142 -0.977926
H124  H     H_    0.039680 0.868943 0.003592 0.289802
H125  H     H_    0.993205 0.880760 0.034008 0.255750
H126  H     H_    0.950768 0.906058 0.003940 0.272433
O87   O     O_3   0.247750 0.816836 0.017890 -0.614913
C215  C     C_3   0.263544 0.788735 0.042701 0.068526
H127  H     H_    0.303959 0.823196 0.052642 0.166695
H128  H     H_    0.284342 0.733114 0.041263 0.118768
C216  C     C_3   0.193924 0.787931 0.058809 -0.288421
H129  H     H_    0.173170 0.843251 0.060680 0.226706
H130  H     H_    0.152645 0.755309 0.048543 0.247750
C217  C     C_3   0.205310 0.757137 0.086001 -0.979860
H131  H     H_    0.225581 0.701604 0.084615 0.263190
H132  H     H_    0.153267 0.756454 0.096787 0.271716
H133  H     H_    0.244236 0.790497 0.097058 0.266134
O88   O     O_3   0.156137 0.233849 0.984099 -0.680847
C218  C     C_3   0.079807 0.227000 0.984026 0.068506
H134  H     H_    0.065763 0.184716 0.969699 0.148744
H135  H     H_    0.053237 0.275318 0.976204 0.063719
C219  C     C_3   0.049377 0.207542 0.011363 -0.266995
H136  H     H_    0.091596 0.215720 0.026292 0.242422
H137  H     H_    0.005079 0.244727 0.016428 0.236776
C220  C     C_3   0.019342 0.131346 0.013714 -0.972586
H138  H     H_    0.959923 0.131143 0.011581 0.285324
H139  H     H_    0.031135 0.109871 0.033419 0.250261
H140  H     H_    0.042277 0.094747 0.998899 0.267559
O89   O     O_3   0.245638 0.183826 0.020482 -0.679933
C221  C     C_3   0.216942 0.114025 0.024787 0.177918
H141  H     H_    0.165573 0.120772 0.035567 0.138727
H142  H     H_    0.250224 0.083908 0.038864 0.164966
C222  C     C_3   0.199897 0.070163 0.999874 -0.367594
H143  H     H_    0.161275 0.099177 0.987524 0.255625
H144  H     H_    0.248368 0.060790 0.987712 0.208144
C223  C     C_3   0.168359 0.997215 0.006877 -0.924410
H145  H     H_    0.208434 0.965512 0.017863 0.306856
H146  H     H_    0.154224 0.967839 0.988753 0.271488
H147  H     H_    0.118995 0.003017 0.018999 0.257273
O90   O     O_3   0.152177 0.765932 0.988485 -0.598416
C224  C     C_3   0.108180 0.763499 0.965864 0.093732
H148  H     H_    0.065185 0.803585 0.968036 0.155378
H149  H     H_    0.079944 0.711524 0.963031 0.056761
C225  C     C_3   0.150622 0.782227 0.941111 -0.373735
H150  H     H_    0.194927 0.743732 0.938363 0.181564
H151  H     H_    0.114407 0.777143 0.923986 0.192424
C226  C     C_3   0.180344 0.858271 0.941982 -0.854379
H152  H     H_    0.135473 0.897167 0.943031 0.253780
H153  H     H_    0.212306 0.868927 0.924012 0.234775
H154  H     H_    0.215675 0.865935 0.959178 0.274010
O91   O     O_3   0.754946 0.818966 0.019698 -0.671126
C227  C     C_3   0.784866 0.888959 0.022508 0.190154
H155  H     H_    0.837338 0.882940 0.032446 0.142216
H156  H     H_    0.753143 0.920841 0.036709 0.166055
C228  C     C_3   0.799497 0.930480 0.996805 -0.386445
H157  H     H_    0.839339 0.901806 0.984621 0.249833
H158  H     H_    0.750476 0.936341 0.984808 0.193923
C229  C     C_3   0.827660 0.005638 0.002514 -0.934776
H159  H     H_    0.786020 0.036984 0.013041 0.307050
H160  H     H_    0.840711 0.033205 0.983887 0.268601
H161  H     H_    0.876949 0.003817 0.014662 0.254790
O92   O     O_3   0.847970 0.231854 0.991965 -0.619248
C230  C     C_3   0.892381 0.225554 0.969472 0.064519
H162  H     H_    0.931067 0.182132 0.973132 0.183291
H163  H     H_    0.925071 0.274357 0.965434 0.103328
C231  C     C_3   0.848396 0.204850 0.945395 -0.391633
H164  H     H_    0.809150 0.162197 0.950624 0.221191
H165  H     H_    0.819085 0.252450 0.938448 0.188690
C232  C     C_3   0.896518 0.178166 0.923254 -0.941587
H166  H     H_    0.934459 0.220895 0.917112 0.287592
H167  H     H_    0.862742 0.162750 0.906317 0.271291
H168  H     H_    0.927439 0.130681 0.929551 0.259536
O93   O     O_3   0.251191 0.664834 0.480296 -0.640392
C233  C     C_3   0.286380 0.602954 0.489866 0.172995
H169  H     H_    0.333968 0.593043 0.477197 0.156192
H170  H     H_    0.250014 0.557533 0.487238 0.114131
C234  C     C_3   0.312723 0.608004 0.518665 -0.350437
H171  H     H_    0.348073 0.654805 0.521525 0.267571
H172  H     H_    0.266848 0.614339 0.532341 0.229840
C235  C     C_3   0.354146 0.541973 0.527035 -1.018451
H173  H     H_    0.316741 0.496051 0.529212 0.281930
H174  H     H_    0.379515 0.551915 0.546302 0.267022
H175  H     H_    0.397293 0.529191 0.512701 0.259327
O94   O     O_3   0.348085 0.257852 0.480562 -0.683357
C236  C     C_3   0.419482 0.276492 0.487824 0.108139
H176  H     H_    0.437203 0.320090 0.474618 0.127596
H177  H     H_    0.457215 0.231789 0.484148 0.125403
C237  C     C_3   0.425078 0.305578 0.515999 -0.307171
H178  H     H_    0.397393 0.357308 0.517846 0.230623
H179  H     H_    0.399195 0.268804 0.530098 0.235723
C238  C     C_3   0.503121 0.317441 0.523927 -0.923181
H180  H     H_    0.531890 0.265936 0.524500 0.316717
H181  H     H_    0.505003 0.341659 0.543710 0.249732
H182  H     H_    0.530442 0.353955 0.509956 0.266675
O95   O     O_3   0.729940 0.351446 0.489869 -0.637271
C239  C     C_3   0.704648 0.395414 0.510490 0.163221
H183  H     H_    0.650447 0.414202 0.504645 0.149694
H184  H     H_    0.736491 0.444955 0.512554 0.144836
C240  C     C_3   0.695973 0.355838 0.536507 -0.361284
H185  H     H_    0.660610 0.308507 0.533941 0.248927
H186  H     H_    0.749225 0.337442 0.543150 0.221284
C241  C     C_3   0.663625 0.404435 0.557396 -0.960084
H187  H     H_    0.701272 0.449060 0.561796 0.278148
H188  H     H_    0.653780 0.373577 0.575545 0.258375
H189  H     H_    0.611489 0.426571 0.550732 0.259429
O96   O     O_3   0.660039 0.746412 0.478192 -0.670471
C242  C     C_3   0.586890 0.726469 0.482729 0.123371
H190  H     H_    0.572214 0.685821 0.467875 0.127940
H191  H     H_    0.549855 0.771753 0.479201 0.106851
C243  C     C_3   0.574411 0.692476 0.509912 -0.312463
H192  H     H_    0.601964 0.640725 0.511350 0.234764
H193  H     H_    0.595860 0.726811 0.525659 0.241283
C244  C     C_3   0.495092 0.678673 0.515316 -0.968440
H194  H     H_    0.465703 0.729795 0.516068 0.318608
H195  H     H_    0.488730 0.651810 0.534505 0.260327
H196  H     H_    0.472019 0.643657 0.499949 0.263436
O97   O     O_3   0.730480 0.653118 0.499737 -0.645812
C245  C     C_3   0.721413 0.591314 0.483607 0.114997
H197  H     H_    0.666911 0.568917 0.487174 0.135996
H198  H     H_    0.758441 0.547740 0.488971 0.131272
C246  C     C_3   0.728316 0.606901 0.454195 -0.375404
H199  H     H_    0.689458 0.648276 0.448185 0.273251
H200  H     H_    0.783313 0.626374 0.449754 0.186288
C247  C     C_3   0.714132 0.539899 0.438068 -1.007569
H201  H     H_    0.751175 0.496449 0.443921 0.270006
H202  H     H_    0.722840 0.551355 0.417042 0.270882
H203  H     H_    0.657458 0.522270 0.440853 0.271882
O98   O     O_3   0.637583 0.263203 0.485859 -0.612524
C248  C     C_3   0.603286 0.256289 0.461190 0.132145
H204  H     H_    0.551651 0.285193 0.462151 0.139857
H205  H     H_    0.588047 0.200273 0.456386 0.053975
C249  C     C_3   0.648740 0.288175 0.438810 -0.335512
H206  H     H_    0.707084 0.280937 0.442248 0.213865
H207  H     H_    0.635793 0.259653 0.420379 0.175767
C250  C     C_3   0.633647 0.367345 0.434959 -0.850693
H208  H     H_    0.577063 0.375178 0.428657 0.235279
H209  H     H_    0.670112 0.389017 0.419631 0.251383
H210  H     H_    0.642671 0.397035 0.453413 0.295155
O99   O     O_3   0.269540 0.346576 0.502460 -0.649911
C251  C     C_3   0.284411 0.406897 0.486344 0.117870
H211  H     H_    0.338629 0.427559 0.491142 0.149973
H212  H     H_    0.246496 0.449467 0.491055 0.144455
C252  C     C_3   0.283332 0.392982 0.456596 -0.378057
H213  H     H_    0.324950 0.353867 0.450969 0.268986
H214  H     H_    0.230148 0.371998 0.450466 0.199652
C253  C     C_3   0.298357 0.461739 0.441555 -1.023572
H215  H     H_    0.253620 0.500083 0.444454 0.261550
H216  H     H_    0.303145 0.450020 0.420430 0.280561
H217  H     H_    0.349797 0.486326 0.448054 0.259609
O100  O     O_3   0.348261 0.741519 0.488468 -0.647835
C254  C     C_3   0.386807 0.750390 0.464586 0.136568
H218  H     H_    0.420577 0.702271 0.461675 0.150042
H219  H     H_    0.426277 0.794979 0.465667 0.058442
C255  C     C_3   0.336595 0.760545 0.440854 -0.321988
H220  H     H_    0.280162 0.770271 0.447140 0.229549
H221  H     H_    0.354243 0.808387 0.429738 0.217606
C256  C     C_3   0.337479 0.696403 0.422420 -0.871219
H222  H     H_    0.392642 0.687996 0.414548 0.238443
H223  H     H_    0.300465 0.706098 0.405860 0.258673
H224  H     H_    0.319389 0.647525 0.432785 0.283791
O101  O     O_3   0.682787 0.922442 0.223568 -0.595065
C257  C     C_3   0.674813 0.849081 0.217303 0.137666
H225  H     H_    0.702026 0.840031 0.198214 0.178593
H226  H     H_    0.617607 0.831829 0.214708 0.105610
C258  C     C_3   0.711223 0.802588 0.237935 -0.321809
H227  H     H_    0.767341 0.821640 0.241017 0.242198
H228  H     H_    0.681330 0.806753 0.256698 0.252892
C259  C     C_3   0.712743 0.724310 0.229723 -1.017475
H229  H     H_    0.657022 0.703539 0.227398 0.276114
H230  H     H_    0.740107 0.692389 0.244949 0.278728
H231  H     H_    0.742729 0.718031 0.211063 0.272145
O102  O     O_3   0.184103 0.555536 0.223626 -0.597815
C260  C     C_3   0.232020 0.497624 0.226275 0.128002
H232  H     H_    0.205075 0.445705 0.221732 0.109275
H233  H     H_    0.253464 0.495874 0.246516 0.179621
C261  C     C_3   0.294939 0.507377 0.207254 -0.304599
H234  H     H_    0.274842 0.502656 0.186903 0.233249
H235  H     H_    0.318831 0.561416 0.209826 0.236179
C262  C     C_3   0.353262 0.451641 0.211747 -1.004625
H236  H     H_    0.377975 0.459363 0.231264 0.274474
H237  H     H_    0.395960 0.457240 0.196617 0.273891
H238  H     H_    0.330244 0.396959 0.210614 0.267240
O103  O     O_3   0.308857 0.044818 0.224677 -0.595444
C263  C     C_3   0.306164 0.120203 0.224131 0.143490
H239  H     H_    0.344382 0.140734 0.209113 0.130007
H240  H     H_    0.320199 0.144572 0.243352 0.156179
C264  C     C_3   0.229819 0.143250 0.217178 -0.296554
H241  H     H_    0.216991 0.125323 0.197019 0.233083
H242  H     H_    0.190924 0.117699 0.230886 0.231237
C265  C     C_3   0.221446 0.224076 0.218978 -1.005593
H243  H     H_    0.233296 0.242986 0.239080 0.274672
H244  H     H_    0.165217 0.238820 0.214186 0.271443
H245  H     H_    0.258483 0.250953 0.205027 0.269135
O104  O     O_3   0.811336 0.429389 0.223079 -0.595793
C266  C     C_3   0.761713 0.486260 0.224357 0.137599
H246  H     H_    0.786804 0.537194 0.217555 0.112088
H247  H     H_    0.741667 0.493350 0.244721 0.171919
C267  C     C_3   0.697731 0.469147 0.206741 -0.299843
H248  H     H_    0.716553 0.465808 0.186131 0.238939
H249  H     H_    0.674268 0.416660 0.212347 0.230640
C268  C     C_3   0.639498 0.526070 0.208953 -1.005436
H250  H     H_    0.617690 0.528041 0.229178 0.274439
H251  H     H_    0.594778 0.513196 0.195393 0.273401
H252  H     H_    0.661798 0.579217 0.203776 0.270402
O105  O     O_3   0.150083 0.367530 0.724679 -0.594472
C269  C     C_3   0.122813 0.299628 0.717305 0.139623
H253  H     H_    0.151025 0.283438 0.699065 0.178747
H254  H     H_    0.064154 0.299965 0.712650 0.118272
C270  C     C_3   0.138079 0.243906 0.738404 -0.349020
H255  H     H_    0.196770 0.243005 0.742547 0.239441
H256  H     H_    0.108995 0.258087 0.756666 0.252434
C271  C     C_3   0.113446 0.169642 0.729895 -0.987030
H257  H     H_    0.054041 0.168437 0.727498 0.273996
H258  H     H_    0.128377 0.130071 0.745011 0.278084
H259  H     H_    0.139427 0.154282 0.711155 0.271963
O106  O     O_3   0.685745 0.094440 0.723458 -0.595071
C272  C     C_3   0.742325 0.044526 0.721515 0.150012
H260  H     H_    0.723663 0.994372 0.711858 0.117141
H261  H     H_    0.763576 0.031620 0.741255 0.155659
C273  C     C_3   0.803232 0.076678 0.705124 -0.302027
H262  H     H_    0.782663 0.090043 0.685388 0.249136
H263  H     H_    0.822584 0.126616 0.714553 0.222678
C274  C     C_3   0.866013 0.024895 0.702338 -0.997268
H264  H     H_    0.888806 0.012421 0.721807 0.272023
H265  H     H_    0.908950 0.049308 0.690071 0.274867
H266  H     H_    0.847832 0.974690 0.692836 0.265639
O107  O     O_3   0.819058 0.578583 0.724948 -0.590036
C275  C     C_3   0.835292 0.652162 0.727078 0.148292
H267  H     H_    0.882903 0.665497 0.714667 0.127351
H268  H     H_    0.846981 0.667956 0.747649 0.153297
C276  C     C_3   0.770754 0.695367 0.717802 -0.294582
H269  H     H_    0.761745 0.685138 0.696677 0.235527
H270  H     H_    0.721787 0.678363 0.728770 0.229595
C277  C     C_3   0.782794 0.775115 0.722165 -1.005880
H271  H     H_    0.790016 0.786587 0.743283 0.272819
H272  H     H_    0.735249 0.805166 0.715209 0.271282
H273  H     H_    0.831293 0.793549 0.711275 0.269660
O108  O     O_3   0.354870 0.880969 0.725173 -0.590129
C278  C     C_3   0.294347 0.926238 0.723865 0.149874
H274  H     H_    0.308366 0.977083 0.713714 0.121551
H275  H     H_    0.273674 0.938574 0.743829 0.155511
C279  C     C_3   0.234772 0.888706 0.708531 -0.299008
H276  H     H_    0.254838 0.875585 0.688612 0.249830
H277  H     H_    0.219763 0.838130 0.718518 0.223016
C280  C     C_3   0.168122 0.935609 0.706269 -0.993112
H278  H     H_    0.146295 0.948318 0.725964 0.271668
H279  H     H_    0.125983 0.906935 0.695009 0.273344
H280  H     H_    0.181677 0.986044 0.695956 0.266912
O109  O     O_3   0.155516 0.378146 0.777680 -0.598082
C281  C     C_3   0.211808 0.428958 0.779218 0.153728
H281  H     H_    0.192695 0.479187 0.788637 0.123356
H282  H     H_    0.233240 0.441364 0.759370 0.156834
C282  C     C_3   0.272675 0.398405 0.795690 -0.300506
H283  H     H_    0.251645 0.384625 0.815419 0.252572
H284  H     H_    0.293182 0.348890 0.786338 0.220406
C283  C     C_3   0.334530 0.451763 0.798524 -0.991946
H285  H     H_    0.357525 0.465134 0.779064 0.272198
H286  H     H_    0.377592 0.428190 0.810701 0.274152
H287  H     H_    0.315308 0.501368 0.808145 0.267561
O110  O     O_3   0.681064 0.104411 0.776614 -0.597228
C284  C     C_3   0.662992 0.177521 0.777303 0.151615
H288  H     H_    0.612392 0.185655 0.788728 0.134405
H289  H     H_    0.655808 0.199095 0.757221 0.154335
C285  C     C_3   0.724051 0.218751 0.790441 -0.290418
H290  H     H_    0.733299 0.196289 0.810178 0.252043
H291  H     H_    0.774319 0.212540 0.778785 0.221787
C286  C     C_3   0.706555 0.297920 0.792969 -1.030687
H292  H     H_    0.697621 0.321711 0.773408 0.273274
H293  H     H_    0.752271 0.326201 0.802397 0.266915
H294  H     H_    0.657564 0.305324 0.805201 0.268936
O111  O     O_3   0.808073 0.560730 0.777640 -0.596694
C287  C     C_3   0.751998 0.509554 0.777843 0.152835
H295  H     H_    0.768478 0.461453 0.789050 0.140659
H296  H     H_    0.737273 0.493331 0.757592 0.147730
C288  C     C_3   0.685762 0.542215 0.790936 -0.306860
H297  H     H_    0.700146 0.561293 0.810818 0.247821
H298  H     H_    0.667514 0.588671 0.779293 0.218231
C289  C     C_3   0.624225 0.488275 0.793125 -0.980518
H299  H     H_    0.609245 0.467874 0.773499 0.270883
H300  H     H_    0.576460 0.514339 0.802048 0.272165
H301  H     H_    0.640306 0.442924 0.805694 0.271767
O112  O     O_3   0.362121 0.873514 0.778240 -0.593577
C290  C     C_3   0.390044 0.803886 0.780754 0.152714
H302  H     H_    0.442079 0.804880 0.791521 0.122521
H303  H     H_    0.398596 0.779160 0.761172 0.151767
C291  C     C_3   0.336356 0.758122 0.796050 -0.306438
H304  H     H_    0.326550 0.782613 0.815527 0.244838
H305  H     H_    0.284551 0.756148 0.785308 0.229320
C292  C     C_3   0.364172 0.682321 0.799742 -0.997478
H306  H     H_    0.372699 0.656149 0.780501 0.274244
H307  H     H_    0.324140 0.650615 0.811030 0.268928
H308  H     H_    0.415717 0.683100 0.810667 0.268940
O113  O     O_3   0.686727 0.933648 0.276556 -0.605151
C293  C     C_3   0.730430 0.995266 0.278519 0.153217
H309  H     H_    0.701003 0.039351 0.288526 0.128154
H310  H     H_    0.747921 0.013552 0.258783 0.155442
C294  C     C_3   0.797166 0.976995 0.294460 -0.291740
H311  H     H_    0.780305 0.954098 0.313561 0.251054
H312  H     H_    0.829368 0.936340 0.283796 0.217880
C295  C     C_3   0.843874 0.042725 0.299406 -1.010212
H313  H     H_    0.860103 0.067905 0.280647 0.273848
H314  H     H_    0.893163 0.026895 0.310084 0.272290
H315  H     H_    0.813907 0.081927 0.311511 0.268343
O114  O     O_3   0.176574 0.573852 0.277183 -0.599391
C296  C     C_3   0.176848 0.648835 0.274109 0.129133
H316  H     H_    0.128616 0.672347 0.283749 0.132837
H317  H     H_    0.177017 0.664212 0.253110 0.172963
C297  C     C_3   0.244506 0.680009 0.286712 -0.296117
H318  H     H_    0.241611 0.672141 0.308193 0.232785
H319  H     H_    0.292731 0.651614 0.279132 0.233036
C298  C     C_3   0.252592 0.759482 0.280749 -1.013556
H320  H     H_    0.259018 0.767932 0.259400 0.278289
H321  H     H_    0.301050 0.781077 0.290669 0.270464
H322  H     H_    0.204654 0.789209 0.287711 0.268949
O115  O     O_3   0.309379 0.043967 0.278037 -0.599266
C299  C     C_3   0.263043 0.984490 0.280703 0.147536
H323  H     H_    0.290200 0.940628 0.291477 0.127837
H324  H     H_    0.245689 0.964400 0.261221 0.159370
C300  C     C_3   0.196363 0.007475 0.296083 -0.292336
H325  H     H_    0.213054 0.029484 0.315313 0.248551
H326  H     H_    0.167952 0.050008 0.285152 0.220396
C301  C     C_3   0.144897 0.945078 0.300565 -1.017323
H327  H     H_    0.127797 0.921734 0.281616 0.271469
H328  H     H_    0.096368 0.963883 0.311254 0.276752
H329  H     H_    0.171484 0.903444 0.312441 0.270954
O116  O     O_3   0.815730 0.414475 0.276496 -0.598607
C302  C     C_3   0.820638 0.339308 0.275159 0.138238
H330  H     H_    0.868714 0.320535 0.286098 0.128646
H331  H     H_    0.824635 0.320614 0.254525 0.165636
C303  C     C_3   0.753127 0.306201 0.287411 -0.295055
H332  H     H_    0.752388 0.317650 0.308717 0.233916
H333  H     H_    0.704430 0.330263 0.278542 0.233174
C304  C     C_3   0.750774 0.225621 0.283065 -1.018283
H334  H     H_    0.747475 0.213305 0.261878 0.277573
H335  H     H_    0.702646 0.202595 0.292917 0.270908
H336  H     H_    0.799751 0.200456 0.291154 0.268240
O117  O     O_3   0.006026 0.604040 0.842294 -0.602509
C305  C     C_3   0.078563 0.612395 0.834375 0.102678
H337  H     H_    0.106527 0.560476 0.831098 0.131133
H338  H     H_    0.108202 0.642929 0.849603 0.167685
C306  C     C_3   0.080467 0.653778 0.808718 -0.321501
H339  H     H_    0.050359 0.623374 0.793589 0.222169
H340  H     H_    0.053889 0.706274 0.811500 0.236542
C307  C     C_3   0.157557 0.665852 0.799262 -0.996346
H341  H     H_    0.188208 0.697040 0.813984 0.270528
H342  H     H_    0.157024 0.696076 0.780639 0.271637
H343  H     H_    0.184807 0.614036 0.795836 0.261454
O118  O     O_3   0.420558 0.086459 0.844918 -0.600233
C308  C     C_3   0.451725 0.154920 0.842190 0.092088
H344  H     H_    0.510409 0.152209 0.837413 0.145795
H345  H     H_    0.444227 0.185597 0.860607 0.171748
C309  C     C_3   0.414155 0.194099 0.820007 -0.321862
H346  H     H_    0.419575 0.162503 0.801706 0.225137
H347  H     H_    0.355903 0.199569 0.824692 0.236748
C310  C     C_3   0.446771 0.268058 0.815683 -0.991393
H348  H     H_    0.440235 0.301359 0.833490 0.267023
H349  H     H_    0.418950 0.294584 0.799235 0.274106
H350  H     H_    0.504953 0.263824 0.810767 0.263078
O119  O     O_3   0.957649 0.352683 0.852924 -0.606243
C311  C     C_3   0.883201 0.340966 0.857257 0.117555
H351  H     H_    0.851356 0.374442 0.843623 0.135835
H352  H     H_    0.866690 0.354021 0.877701 0.166644
C312  C     C_3   0.865505 0.262447 0.852302 -0.308896
H353  H     H_    0.871548 0.250507 0.831134 0.221059
H354  H     H_    0.903800 0.228508 0.863272 0.237890
C313  C     C_3   0.788866 0.244294 0.861095 -1.011198
H355  H     H_    0.782628 0.253664 0.882416 0.265772
H356  H     H_    0.777293 0.187196 0.857026 0.282519
H357  H     H_    0.749317 0.277596 0.850506 0.275281
O120  O     O_3   0.610831 0.912797 0.848857 -0.604662
C314  C     C_3   0.581066 0.844731 0.843845 0.088403
H358  H     H_    0.527638 0.848535 0.834151 0.147167
H359  H     H_    0.574786 0.814659 0.862415 0.167259
C315  C     C_3   0.632114 0.803913 0.825781 -0.316479
H360  H     H_    0.643063 0.836295 0.808016 0.232340
H361  H     H_    0.683986 0.794866 0.835979 0.232640
C316  C     C_3   0.600271 0.732190 0.817492 -0.983653
H362  H     H_    0.587550 0.698878 0.834811 0.264463
H363  H     H_    0.639799 0.703395 0.805078 0.273138
H364  H     H_    0.550397 0.740301 0.806036 0.257175
O121  O     O_3   0.550054 0.112230 0.345493 -0.624225
C317  C     C_3   0.626032 0.118092 0.347332 0.163765
H365  H     H_    0.650040 0.100325 0.328513 0.138759
H366  H     H_    0.650444 0.084903 0.363049 0.144489
C318  C     C_3   0.646715 0.196097 0.352040 -0.320785
H367  H     H_    0.630520 0.228588 0.334937 0.219136
H368  H     H_    0.617817 0.216505 0.369523 0.245192
C319  C     C_3   0.727546 0.204450 0.356420 -1.009467
H369  H     H_    0.743538 0.177412 0.374766 0.265588
H370  H     H_    0.741625 0.261918 0.358018 0.272915
H371  H     H_    0.757877 0.180936 0.339830 0.272208
O122  O     O_3   0.962125 0.619905 0.344907 -0.639609
C320  C     C_3   0.017816 0.671400 0.346097 0.114702
H372  H     H_    0.072246 0.646935 0.344306 0.171844
H373  H     H_    0.014714 0.701538 0.364765 0.183669
C321  C     C_3   0.008008 0.723729 0.323634 -0.340496
H374  H     H_    0.010613 0.694281 0.304794 0.222369
H375  H     H_    0.954172 0.749131 0.325248 0.231441
C322  C     C_3   0.065927 0.781596 0.323882 -1.009221
H376  H     H_    0.061362 0.814493 0.341874 0.277339
H377  H     H_    0.059018 0.816551 0.306629 0.279048
H378  H     H_    0.120273 0.757297 0.323023 0.274657
O123  O     O_3   0.449221 0.874445 0.348248 -0.628729
C323  C     C_3   0.373077 0.871408 0.350058 0.158040
H379  H     H_    0.349893 0.896732 0.332427 0.149230
H380  H     H_    0.350560 0.899093 0.367620 0.153055
C324  C     C_3   0.348904 0.793424 0.351030 -0.334435
H381  H     H_    0.367205 0.765449 0.333052 0.224003
H382  H     H_    0.373764 0.767064 0.368123 0.238965
C325  C     C_3   0.267159 0.787050 0.353443 -0.997795
H383  H     H_    0.248221 0.812342 0.371856 0.272017
H384  H     H_    0.251252 0.729893 0.353705 0.271063
H385  H     H_    0.240800 0.813286 0.336640 0.270395
O124  O     O_3   0.025386 0.372744 0.345796 -0.637176
C326  C     C_3   0.970425 0.321490 0.349657 0.104987
H386  H     H_    0.917362 0.342762 0.343405 0.172051
H387  H     H_    0.966732 0.305035 0.370486 0.177701
C327  C     C_3   0.988004 0.255681 0.333265 -0.334062
H388  H     H_    0.992882 0.271223 0.312385 0.226473
H389  H     H_    0.040367 0.233283 0.339661 0.228252
C328  C     C_3   0.929678 0.198662 0.335985 -1.001168
H390  H     H_    0.924082 0.181727 0.356671 0.278224
H391  H     H_    0.944309 0.151545 0.323967 0.278032
H392  H     H_    0.877499 0.219783 0.329041 0.270874
O125  O     O_3   0.011382 0.620403 0.896337 -0.633913
C329  C     C_3   0.942566 0.651509 0.899165 0.123357
H393  H     H_    0.908619 0.619628 0.912898 0.136381
H394  H     H_    0.914731 0.655071 0.879969 0.183848
C330  C     C_3   0.950956 0.726887 0.910155 -0.348526
H395  H     H_    0.980815 0.724653 0.928857 0.196992
H396  H     H_    0.982530 0.760037 0.896186 0.232435
C331  C     C_3   0.877796 0.761537 0.914945 -0.979445
H397  H     H_    0.846818 0.764472 0.896480 0.269067
H398  H     H_    0.885570 0.816488 0.922592 0.270573
H399  H     H_    0.846544 0.730260 0.929530 0.268507
O126  O     O_3   0.409443 0.086221 0.899060 -0.618587
C332  C     C_3   0.346133 0.045956 0.903673 0.138296
H400  H     H_    0.357789 0.996653 0.915008 0.102772
H401  H     H_    0.320543 0.030837 0.884806 0.172154
C333  C     C_3   0.293407 0.091337 0.919451 -0.336207
H402  H     H_    0.320049 0.110178 0.937614 0.232668
H403  H     H_    0.277823 0.138446 0.907695 0.228507
C334  C     C_3   0.225716 0.049449 0.926827 -1.015750
H404  H     H_    0.198722 0.028575 0.909057 0.278605
H405  H     H_    0.187706 0.084988 0.937378 0.272429
H406  H     H_    0.239775 0.004332 0.939825 0.266252
O127  O     O_3   0.982109 0.364657 0.906189 -0.642365
C335  C     C_3   0.051260 0.340125 0.913342 0.077905
H407  H     H_    0.045400 0.312625 0.932388 0.137682
H408  H     H_    0.091349 0.383845 0.916334 0.145383
C336  C     C_3   0.080282 0.286714 0.893252 -0.292058
H409  H     H_    0.039531 0.244290 0.889656 0.232473
H410  H     H_    0.091378 0.314587 0.874523 0.259313
C337  C     C_3   0.149768 0.252516 0.902780 -1.005877
H411  H     H_    0.191167 0.294244 0.906456 0.266358
H412  H     H_    0.170523 0.215193 0.887691 0.277333
H413  H     H_    0.139769 0.222207 0.921079 0.273191
O128  O     O_3   0.601678 0.910606 0.902741 -0.619387
C338  C     C_3   0.656825 0.949345 0.915631 0.132704
H414  H     H_    0.662473 0.926553 0.935534 0.146046
H415  H     H_    0.645383 0.007297 0.918251 0.087061
C339  C     C_3   0.728253 0.940551 0.901009 -0.317437
H416  H     H_    0.740360 0.882899 0.898700 0.224736
H417  H     H_    0.723846 0.964685 0.881284 0.257296
C340  C     C_3   0.790003 0.976484 0.915678 -1.004044
H418  H     H_    0.779433 0.034430 0.918083 0.269597
H419  H     H_    0.840917 0.969794 0.904493 0.277952
H420  H     H_    0.796633 0.951789 0.935214 0.261332
O129  O     O_3   0.541208 0.120944 0.399657 -0.647691
C341  C     C_3   0.478979 0.155668 0.409491 0.118107
H421  H     H_    0.486036 0.163720 0.430816 0.120173
H422  H     H_    0.427555 0.125140 0.406943 0.134608
C342  C     C_3   0.471096 0.228247 0.396319 -0.333797
H423  H     H_    0.521203 0.259944 0.398894 0.214229
H424  H     H_    0.462025 0.220339 0.375071 0.252840
C343  C     C_3   0.408195 0.269734 0.407956 -0.985963
H425  H     H_    0.357358 0.238816 0.405887 0.272099
H426  H     H_    0.402534 0.321452 0.397661 0.278342
H427  H     H_    0.418032 0.280519 0.428939 0.263778
O130  O     O_3   0.964285 0.624668 0.399544 -0.620564
C344  C     C_3   0.889357 0.630269 0.404248 0.142373
H428  H     H_    0.882895 0.644370 0.425120 0.158786
H429  H     H_    0.858203 0.579827 0.401072 0.110557
C345  C     C_3   0.857687 0.690139 0.387573 -0.339818
H430  H     H_    0.893105 0.737970 0.388373 0.224436
H431  H     H_    0.854078 0.672339 0.366955 0.264884
C346  C     C_3   0.782537 0.710936 0.396820 -1.000565
H432  H     H_    0.745659 0.664326 0.395667 0.280380
H433  H     H_    0.761334 0.753816 0.384103 0.281969
H434  H     H_    0.784098 0.731100 0.417210 0.256856
O131  O     O_3   0.457686 0.875059 0.402406 -0.640350
C347  C     C_3   0.518727 0.837228 0.411256 0.091035
H435  H     H_    0.504217 0.812485 0.430216 0.131956
H436  H     H_    0.566773 0.871652 0.415082 0.129731
C348  C     C_3   0.538809 0.778137 0.391928 -0.301724
H437  H     H_    0.489858 0.747705 0.386299 0.229661
H438  H     H_    0.562692 0.802347 0.374068 0.246728
C349  C     C_3   0.592766 0.726669 0.403855 -0.992414
H439  H     H_    0.640342 0.756298 0.411317 0.283500
H440  H     H_    0.610728 0.687820 0.388817 0.277836
H441  H     H_    0.567255 0.696784 0.420179 0.255179
O132  O     O_3   0.044796 0.377801 0.399759 -0.623132
C350  C     C_3   0.120526 0.384045 0.402325 0.125015
H442  H     H_    0.135099 0.357749 0.420928 0.166684
H443  H     H_    0.140163 0.440314 0.403907 0.115519
C351  C     C_3   0.158876 0.345610 0.379775 -0.315052
H444  H     H_    0.135089 0.291577 0.377239 0.241177
H445  H     H_    0.151643 0.375882 0.361399 0.267338
C352  C     C_3   0.239471 0.338913 0.384544 -1.000228
H446  H     H_    0.265537 0.392129 0.383200 0.275077
H447  H     H_    0.263709 0.303862 0.369402 0.281821
H448  H     H_    0.249755 0.315411 0.404026 0.266339
O133  O     O_3   0.463146 0.865306 0.152377 -0.630873
C353  C     C_3   0.523170 0.819859 0.154965 0.066802
H449  H     H_    0.570286 0.848309 0.163435 0.158817
H450  H     H_    0.539029 0.797341 0.135706 0.163360
C354  C     C_3   0.502506 0.758436 0.173116 -0.308290
H451  H     H_    0.490304 0.780001 0.192883 0.220223
H452  H     H_    0.453388 0.731376 0.165578 0.241109
C355  C     C_3   0.562928 0.703931 0.175143 -1.009361
H453  H     H_    0.573774 0.679395 0.155766 0.281497
H454  H     H_    0.546978 0.661209 0.189028 0.277603
H455  H     H_    0.612808 0.729909 0.182349 0.266748
O134  O     O_3   0.062323 0.386029 0.154329 -0.641427
C356  C     C_3   0.137952 0.394567 0.156535 0.111203
H456  H     H_    0.150440 0.415055 0.176363 0.167336
H457  H     H_    0.161957 0.432461 0.142058 0.139637
C357  C     C_3   0.173897 0.321849 0.153267 -0.333657
H458  H     H_    0.156332 0.286096 0.169362 0.229975
H459  H     H_    0.157083 0.297132 0.134567 0.245641
C358  C     C_3   0.255791 0.328345 0.153320 -0.993316
H460  H     H_    0.274456 0.361194 0.136547 0.272112
H461  H     H_    0.279938 0.274459 0.151591 0.273326
H462  H     H_    0.274317 0.353294 0.171763 0.273507
O135  O     O_3   0.530215 0.112627 0.157345 -0.634376
C359  C     C_3   0.470569 0.158594 0.160132 0.071317
H463  H     H_    0.423951 0.130345 0.169125 0.160443
H464  H     H_    0.453751 0.180409 0.140951 0.159968
C360  C     C_3   0.492154 0.220720 0.177841 -0.309843
H465  H     H_    0.504177 0.200074 0.197678 0.221036
H466  H     H_    0.541624 0.246629 0.169925 0.240149
C361  C     C_3   0.432654 0.276341 0.179808 -1.000007
H467  H     H_    0.421809 0.299639 0.160301 0.279551
H468  H     H_    0.449750 0.319833 0.193187 0.277331
H469  H     H_    0.382499 0.251905 0.187616 0.260924
O136  O     O_3   0.936544 0.609938 0.155482 -0.639297
C362  C     C_3   0.860564 0.603502 0.156894 0.112211
H470  H     H_    0.845525 0.578995 0.175875 0.162598
H471  H     H_    0.836769 0.569807 0.141097 0.138005
C363  C     C_3   0.827506 0.677980 0.155674 -0.329022
H472  H     H_    0.841942 0.708211 0.173609 0.221287
H473  H     H_    0.849560 0.707296 0.138582 0.247932
C364  C     C_3   0.745763 0.674401 0.153228 -0.999889
H474  H     H_    0.730426 0.647794 0.134653 0.275263
H475  H     H_    0.723567 0.729292 0.153258 0.270391
H476  H     H_    0.722145 0.644384 0.169854 0.270933
O137  O     O_3   0.911264 0.389445 0.653119 -0.629694
C365  C     C_3   0.950361 0.325128 0.655239 0.065713
H477  H     H_    0.009164 0.334145 0.658426 0.148091
H478  H     H_    0.943363 0.293096 0.637130 0.165745
C366  C     C_3   0.921008 0.282626 0.678402 -0.307726
H479  H     H_    0.931495 0.312774 0.696726 0.213297
H480  H     H_    0.861821 0.275471 0.676362 0.242347
C367  C     C_3   0.956250 0.209417 0.680108 -1.006483
H481  H     H_    0.940474 0.176079 0.663098 0.274584
H482  H     H_    0.938316 0.182364 0.698275 0.270722
H483  H     H_    0.015834 0.214627 0.680473 0.264836
O138  O     O_3   0.573102 0.880554 0.652516 -0.626158
C368  C     C_3   0.647561 0.893934 0.656046 0.095089
H484  H     H_    0.656042 0.918102 0.675621 0.147370
H485  H     H_    0.671157 0.930697 0.641086 0.135633
C369  C     C_3   0.688065 0.823246 0.654695 -0.317754
H486  H     H_    0.671235 0.788944 0.671338 0.226555
H487  H     H_    0.674354 0.795045 0.636257 0.243634
C370  C     C_3   0.769405 0.835040 0.655567 -0.977427
H488  H     H_    0.787754 0.864423 0.637910 0.267208
H489  H     H_    0.797137 0.782723 0.656135 0.275939
H490  H     H_    0.784368 0.866121 0.673210 0.262759
O139  O     O_3   0.087536 0.576793 0.657433 -0.608250
C371  C     C_3   0.052438 0.639962 0.665439 0.070541
H491  H     H_    0.995842 0.630234 0.671907 0.144995
H492  H     H_    0.051986 0.678711 0.649053 0.145226
C372  C     C_3   0.093730 0.672550 0.688311 -0.301119
H493  H     H_    0.094554 0.633856 0.704740 0.224062
H494  H     H_    0.150216 0.683663 0.682198 0.237831
C373  C     C_3   0.059155 0.741790 0.697677 -0.991326
H495  H     H_    0.058638 0.781639 0.681655 0.268054
H496  H     H_    0.090571 0.764041 0.714220 0.271592
H497  H     H_    0.003086 0.731688 0.704431 0.259420
O140  O     O_3   0.462450 0.111279 0.657810 -0.621753
C374  C     C_3   0.388232 0.104337 0.663457 0.067211
H498  H     H_    0.375406 0.051371 0.672168 0.150983
H499  H     H_    0.355946 0.111207 0.645396 0.145568
C375  C     C_3   0.367059 0.162120 0.683049 -0.293147
H500  H     H_    0.399292 0.155793 0.701134 0.224434
H501  H     H_    0.379066 0.215469 0.674593 0.238175
C376  C     C_3   0.287191 0.157852 0.690010 -0.998395
H502  H     H_    0.253782 0.164760 0.672267 0.267439
H503  H     H_    0.273817 0.200938 0.704085 0.277986
H504  H     H_    0.274278 0.105630 0.699157 0.260252
C377  C     C_R   0.476369 0.863987 0.096462 0.140932
C378  C     C_R   0.533089 0.839978 0.080429 -0.189360
C379  C     C_R   0.526822 0.775805 0.066711 -0.139997
C380  C     C_R   0.464491 0.734356 0.069199 -0.123018
C381  C     C_R   0.408367 0.757117 0.085413 -0.204772
C382  C     C_R   0.413841 0.821962 0.098852 -0.081952
H505  H     H_    0.582731 0.870278 0.078932 0.151373
H506  H     H_    0.570810 0.757807 0.054483 0.127966
H507  H     H_    0.459957 0.684261 0.058795 0.132983
H508  H     H_    0.360702 0.724290 0.087590 0.144097
H509  H     H_    0.369882 0.839001 0.111322 0.158688
C383  C     C_R   0.073285 0.385920 0.099336 0.212297
C384  C     C_R   0.139606 0.400768 0.087115 -0.181851
C385  C     C_R   0.177206 0.346580 0.074235 -0.098689
C386  C     C_R   0.148753 0.277490 0.073415 -0.121853
C387  C     C_R   0.082284 0.262564 0.085198 -0.200346
C388  C     C_R   0.044612 0.316545 0.098208 -0.064230
H510  H     H_    0.162215 0.454106 0.087749 0.115125
H511  H     H_    0.228452 0.358069 0.064941 0.152269
H512  H     H_    0.178224 0.235536 0.063650 0.159370
H513  H     H_    0.060174 0.209086 0.084364 0.136155
H514  H     H_    0.993345 0.304431 0.107401 0.137382
C389  C     C_R   0.530356 0.127955 0.101824 0.145529
C390  C     C_R   0.479692 0.159957 0.085278 -0.197437
C391  C     C_R   0.492137 0.228297 0.075336 -0.146517
C392  C     C_R   0.554502 0.265769 0.082156 -0.141035
C393  C     C_R   0.604877 0.234617 0.098716 -0.192765
C394  C     C_R   0.593512 0.165652 0.108224 -0.071248
H515  H     H_    0.429647 0.132948 0.080686 0.144115
H516  H     H_    0.452655 0.252714 0.062797 0.134887
H517  H     H_    0.563595 0.319139 0.074801 0.129880
H518  H     H_    0.652562 0.264099 0.104320 0.136009
H519  H     H_    0.633052 0.142312 0.121081 0.162150
C395  C     C_R   0.929876 0.615443 0.100377 0.213869
C396  C     C_R   0.863915 0.603792 0.087678 -0.179059
C397  C     C_R   0.829094 0.660166 0.075229 -0.096001
C398  C     C_R   0.859937 0.728300 0.075322 -0.116046
C399  C     C_R   0.925982 0.740082 0.087648 -0.197746
C400  C     C_R   0.960876 0.683903 0.100223 -0.068252
H520  H     H_    0.839497 0.551207 0.087564 0.111344
H521  H     H_    0.778193 0.651076 0.065525 0.152948
H522  H     H_    0.832687 0.771933 0.065810 0.149873
H523  H     H_    0.949982 0.792811 0.087540 0.136513
H524  H     H_    0.011886 0.693599 0.109800 0.137905
C401  C     C_R   0.913195 0.387753 0.597600 0.171219
C402  C     C_R   0.949379 0.342331 0.580032 -0.172743
C403  C     C_R   0.913127 0.284947 0.568461 -0.140207
C404  C     C_R   0.841282 0.271100 0.574859 -0.147963
C405  C     C_R   0.804762 0.315973 0.592181 -0.165288
C406  C     C_R   0.840012 0.374763 0.603147 -0.058986
H525  H     H_    0.006083 0.350151 0.575843 0.119236
H526  H     H_    0.940951 0.250284 0.554898 0.142102
H527  H     H_    0.813668 0.225947 0.566213 0.125628
H528  H     H_    0.749078 0.305090 0.597133 0.140217
H529  H     H_    0.810929 0.408809 0.616621 0.162456
C407  C     C_R   0.575601 0.882567 0.598125 0.224087
C408  C     C_R   0.643356 0.895861 0.586791 -0.190410
C409  C     C_R   0.681422 0.840542 0.574816 -0.110538
C410  C     C_R   0.651647 0.772030 0.573672 -0.125859
C411  C     C_R   0.583678 0.758692 0.584550 -0.175595
C412  C     C_R   0.545885 0.813644 0.596953 -0.049947
H530  H     H_    0.667304 0.948588 0.587819 0.110075
H531  H     H_    0.734380 0.850637 0.566736 0.179543
H532  H     H_    0.681302 0.729274 0.564387 0.144616
H533  H     H_    0.560643 0.705609 0.583608 0.137253
H534  H     H_    0.493881 0.802553 0.605760 0.135550
C413  C     C_R   0.102996 0.581291 0.602924 0.219514
C414  C     C_R   0.090476 0.653062 0.596850 -0.212617
C415  C     C_R   0.146443 0.695366 0.586906 -0.077065
C416  C     C_R   0.214365 0.665918 0.582356 -0.091026
C417  C     C_R   0.226800 0.594187 0.588051 -0.170361
C418  C     C_R   0.171476 0.552048 0.598496 -0.034349
H535  H     H_    0.038006 0.676401 0.600253 0.114438
H536  H     H_    0.137555 0.751175 0.582952 0.152863
H537  H     H_    0.257398 0.698749 0.574501 0.137262
H538  H     H_    0.279449 0.571414 0.584583 0.138376
H539  H     H_    0.181902 0.496753 0.603199 0.127282
C419  C     C_R   0.457345 0.125709 0.603526 0.215272
C420  C     C_R   0.390001 0.129782 0.591280 -0.144335
C421  C     C_R   0.365828 0.195032 0.581551 -0.122794
C422  C     C_R   0.408226 0.256406 0.584177 -0.119720
C423  C     C_R   0.475569 0.252514 0.596094 -0.156014
C424  C     C_R   0.500080 0.187447 0.605797 -0.063000
H540  H     H_    0.356274 0.082744 0.589490 0.109664
H541  H     H_    0.314159 0.198254 0.572075 0.121468
H542  H     H_    0.389015 0.306959 0.576867 0.131707
H543  H     H_    0.508589 0.299984 0.597944 0.132075
H544  H     H_    0.552062 0.185162 0.615264 0.137952

loop_
_geom_bond_atom_site_label_1
_geom_bond_atom_site_label_2
_ccdc_geom_bond_type
C4    C79   S    
C377  C382  A    
O125  C329  S    
C98   O52   A    
C35   C53   A    
C241  H189  S    
O23   Zn11  S    
C208  H110  S    
O119  C311  S    
C34   C42   A    
C348  H437  S    
C122  O90   S    
C223  H145  S    
C10   C154  A    
C303  C304  S    
C328  H390  S    
O6    Zn12  S    
C416  H537  S    
C136  N2    A    
C244  H194  S    
C26   O62   S    
C278  H275  S    
C169  H19   S    
O104  C266  S    
C361  H469  S    
O83   C203  S    
C335  H408  S    
C309  H346  S    
C346  H433  S    
C34   O118  S    
C367  H482  S    
C200  H93   S    
O85   C209  S    
C319  H369  S    
C325  H384  S    
C244  H196  S    
C7    C159  A    
C85   O21   A    
C166  H12   S    
C171  C172  S    
O3    Zn15  S    
C306  C307  S    
C96   O46   A    
C397  C398  A    
C62   C70   A    
O46   Zn8   S    
C385  C386  A    
C148  C160  A    
C238  H182  S    
C388  H514  S    
C318  H368  S    
C281  H281  S    
C87   O37   A    
C161  H2    S    
C205  H105  S    
C155  O103  S    
C417  H538  S    
C229  H159  S    
C346  H434  S    
C121  O89   S    
C175  H35   S    
C44   O128  S    
C166  H14   S    
O91   C227  S    
O94   C236  S    
C228  H158  S    
C98   C131  S    
C288  C289  S    
C315  H361  S    
C170  H23   S    
C62   O138  S    
C86   C119  S    
C55   N7    S    
C47   C51   A    
C310  H348  S    
C182  C183  S    
C243  C244  S    
C5    C13   A    
C412  H534  S    
C76   O20   A    
C28   N6    A    
C110  O78   S    
C396  C397  A    
C7    C15   A    
C179  C180  S    
C23   C149  A    
C344  H429  S    
O26   Zn12  S    
C366  H479  S    
C274  H266  S    
C421  C422  A    
C356  H457  S    
O2    Zn12  S    
C102  C118  D    
C243  H193  S    
C108  C124  D    
C321  C322  S    
C41   C49   A    
O102  C260  S    
C188  H65   S    
C299  H324  S    
C184  H54   S    
C242  C243  S    
C330  C331  S    
C63   O139  S    
C213  C214  S    
C315  C316  S    
C65   C77   A    
O76   C182  S    
C218  H134  S    
C319  H371  S    
O127  C335  S    
C276  C277  S    
C356  C357  S    
C199  H90   S    
C270  C271  S    
C144  C150  A    
C292  H308  S    
O18   Zn6   S    
C185  H57   S    
C251  H211  S    
C370  H490  S    
O8    Zn10  S    
C306  H339  S    
C257  C258  S    
C92   O28   A    
C317  H365  S    
C220  H138  S    
C343  H425  S    
O27   Zn11  S    
C353  H450  S    
C339  C340  S    
C297  C298  S    
C281  C282  S    
C345  H431  S    
C248  C249  S    
C337  H412  S    
C389  C390  A    
C210  H115  S    
O132  C350  S    
C301  H327  S    
C272  H261  S    
C73   O13   A    
C15   C27   A    
O107  C275  S    
C273  C274  S    
O29   Zn13  S    
C194  H78   S    
C210  C211  S    
C89   O25   A    
C371  H491  S    
C12   C20   A    
C181  H49   S    
C295  H314  S    
C245  H197  S    
C310  H350  S    
C13   C21   A    
C405  H528  S    
C186  H59   S    
C380  C381  A    
C186  C187  S    
C257  H226  S    
C30   O66   S    
C349  H441  S    
C29   O65   S    
C233  H169  S    
C339  H417  S    
C27   N5    A    
C71   C413  S    
C236  H177  S    
C226  H154  S    
C106  O74   S    
C163  H7    S    
C31   N7    A    
C34   C54   A    
C378  H505  S    
C32   N8    A    
C268  H250  S    
C208  H112  S    
C49   C73   S    
C36   C44   A    
C197  C198  S    
O37   Zn3   S    
C365  H477  S    
C37   C45   A    
C266  H246  S    
C351  C352  S    
C223  H147  S    
O131  C347  S    
C328  H392  S    
C369  H486  S    
C39   C47   A    
C32   O68   S    
C174  C175  S    
C127  O95   S    
C40   C48   A    
C370  H489  S    
C33   O117  S    
C409  C410  A    
C129  O97   S    
C355  H454  S    
C309  C310  S    
C374  H498  S    
C323  H379  S    
C302  H331  S    
C185  C186  S    
C334  H404  S    
C333  C334  S    
C373  H495  S    
C322  H378  S    
C224  C225  S    
C135  O55   S    
C260  H232  S    
O3    Zn13  S    
C322  H377  S    
C384  H510  S    
C301  H329  S    
C247  H203  S    
C405  C406  A    
C249  H206  S    
C344  H428  S    
C58   C82   A    
C386  H512  S    
C308  H344  S    
C232  H168  S    
C101  C117  D    
C222  H144  S    
C272  H260  S    
C383  C384  A    
O28   Zn10  S    
C374  H499  S    
C183  C184  S    
C142  C150  A    
C361  H467  S    
O93   C233  S    
C391  H516  S    
C10   C18   A    
C187  H61   S    
C319  H370  S    
C259  H230  S    
C267  H248  S    
C262  H238  S    
C255  H221  S    
C168  H18   S    
C327  H388  S    
C130  O98   S    
C3    O9    A    
C262  H236  S    
C230  H163  S    
C269  H253  S    
C48   C52   A    
C254  C255  S    
C414  C415  A    
C294  H312  S    
C280  H278  S    
C366  C367  S    
C190  H68   S    
C216  H130  S    
C160  O108  S    
C378  C379  A    
O2    Zn10  S    
C108  O76   S    
C154  O102  S    
C256  H222  S    
C343  H426  S    
C317  H366  S    
O16   Zn4   S    
C298  H320  S    
C104  O72   S    
C350  H443  S    
C94   O48   A    
C364  H475  S    
C219  H136  S    
C158  O106  S    
C353  H449  S    
C320  C321  S    
C40   C56   A    
C90   C123  S    
C147  C151  A    
C276  H269  S    
C67   C77   A    
C372  H494  S    
C372  C373  S    
C396  H520  S    
C350  H442  S    
C376  H504  S    
C373  H497  S    
C71   C79   A    
C258  H227  S    
C282  H283  S    
C338  H414  S    
C312  H354  S    
C72   C419  S    
C246  H199  S    
C261  H234  S    
C174  H31   S    
C126  O94   S    
C1    O5    A    
C172  H26   S    
C18   C24   A    
C11   O115  S    
C408  H530  S    
C387  C388  A    
O41   Zn1   S    
C331  H397  S    
C241  H187  S    
C195  C196  S    
C8    O112  S    
C290  H303  S    
C100  O50   A    
O96   C242  S    
C73   O15   A    
C253  H216  S    
C282  H284  S    
C74   O16   A    
C333  H402  S    
C357  C358  S    
O126  C332  S    
C401  C406  A    
C371  C372  S    
C415  H536  S    
C61   O137  S    
C191  H71   S    
C138  O58   S    
C162  H3    S    
O4    Zn14  S    
C320  H373  S    
C334  H406  S    
O80   C194  S    
C225  H150  S    
C44   C50   A    
C59   C67   A    
C380  H507  S    
O12   Zn14  S    
C95   C128  S    
C64   C84   A    
C254  H218  S    
C138  C148  A    
O134  C356  S    
C284  H289  S    
C60   O136  S    
C268  H252  S    
C136  C142  A    
C379  C380  A    
C165  C166  S    
C88   O38   A    
C59   O135  S    
C118  O86   S    
C192  C193  S    
C35   C43   A    
O137  C365  S    
C28   O64   S    
C109  C116  S    
C211  H119  S    
C11   C155  A    
C120  O88   S    
C298  H322  S    
C175  H34   S    
C402  C403  A    
C189  C190  S    
O4    Zn6   S    
C64   O140  S    
C368  H484  S    
C277  H272  S    
C135  N1    A    
C375  C376  S    
C56   N8    S    
O133  C353  S    
C198  H87   S    
C12   C156  A    
C285  C286  S    
C5    O109  S    
O90   C224  S    
C6    C158  A    
C418  H539  S    
C384  C385  A    
C209  H114  S    
C395  C400  A    
C176  H37   S    
O48   Zn6   S    
C394  H519  S    
C260  C261  S    
C39   C55   A    
C204  H102  S    
O22   Zn10  S    
C217  H131  S    
O2    Zn4   S    
C385  H511  S    
C249  C250  S    
C338  H415  S    
C102  C107  S    
C250  H209  S    
O118  C308  S    
C201  H95   S    
C321  H375  S    
C140  O60   S    
C417  C418  A    
C137  N3    A    
C183  H52   S    
O122  C320  S    
C300  C301  S    
C303  H333  S    
C82   N2    S    
C161  C162  S    
C354  H452  S    
C381  C382  A    
C379  H506  S    
C31   O67   S    
C392  H517  S    
C225  C226  S    
O1    Zn11  S    
O123  C323  S    
C283  H285  S    
C232  H167  S    
C275  H268  S    
C144  C156  A    
C93   O29   A    
C336  H410  S    
C224  H148  S    
C268  H251  S    
C6    C14   A    
C341  C342  S    
C304  H335  S    
C143  C155  A    
C240  H185  S    
C136  O56   S    
C237  C238  S    
C143  C149  A    
C285  H290  S    
C280  H280  S    
C106  C122  D    
C189  H67   S    
C236  H176  S    
C240  C241  S    
C189  H66   S    
C423  H543  S    
O97   C245  S    
C383  C388  A    
C237  H178  S    
C256  H224  S    
C234  H172  S    
C58   O134  S    
C181  H47   S    
C113  O81   S    
C110  C126  D    
O35   Zn15  S    
C116  O84   S    
C347  H435  S    
C324  H382  S    
C287  H296  S    
C363  H472  S    
C401  C402  A    
C289  H300  S    
C70   C407  S    
C207  H108  S    
C45   O129  S    
C69   C79   A    
C252  C253  S    
C184  H55   S    
C265  H244  S    
O139  C371  S    
C255  C256  S    
C196  H84   S    
C193  H75   S    
C274  H264  S    
C258  C259  S    
C85   O39   A    
C362  H470  S    
C286  H293  S    
C332  H400  S    
C20   C32   A    
C246  C247  S    
O31   Zn15  S    
C422  H542  S    
C96   O32   A    
C292  H307  S    
C62   C84   A    
C395  C396  A    
C1    O7    A    
C178  H42   S    
C313  H355  S    
O3    Zn7   S    
C397  H521  S    
C365  H478  S    
C311  C312  S    
C148  C152  A    
C235  H174  S    
C201  H94   S    
C52   C76   S    
C223  H146  S    
C307  H342  S    
C9    O113  S    
O115  C299  S    
C36   O120  S    
C146  C158  A    
C179  H43   S    
C140  N4    A    
C289  H301  S    
C240  H186  S    
C169  H20   S    
O24   Zn12  S    
C177  C178  S    
C184  H56   S    
C211  H117  S    
C250  H210  S    
O1    Zn9   S    
C14   C22   A    
C265  H245  S    
C69   C401  S    
C4    O12   A    
C235  H175  S    
C103  O71   S    
C85   C118  S    
C72   C80   A    
C340  H418  S    
C326  C327  S    
C141  C153  A    
C291  H304  S    
C230  C231  S    
C317  C318  S    
C95   O45   A    
C66   C383  S    
C367  H481  S    
C306  H340  S    
C333  H403  S    
C190  H70   S    
C375  H501  S    
C21   C151  A    
O2    Zn2   S    
C329  H393  S    
C304  H336  S    
C281  H282  S    
C38   C46   A    
C292  H306  S    
C36   C54   A    
O140  C374  S    
C295  H315  S    
O49   Zn5   S    
C134  C144  A    
O87   C215  S    
C37   C55   A    
C125  O93   S    
C19   C23   A    
C286  H292  S    
C38   C56   A    
C167  H15   S    
O4    Zn8   S    
C207  C208  S    
C8    C16   A    
C354  H451  S    
C392  C393  A    
C296  C297  S    
C94   O30   A    
C406  H529  S    
C288  H298  S    
C261  C262  S    
C226  H152  S    
C375  H500  S    
C335  H407  S    
C181  H48   S    
C142  C154  A    
C377  C378  A    
C264  H242  S    
C221  H141  S    
C216  C217  S    
O44   Zn2   S    
C372  H493  S    
C390  H515  S    
C338  C339  S    
C205  H104  S    
C413  C414  A    
C16   C28   A    
C422  C423  A    
C274  H265  S    
C226  H153  S    
C356  H456  S    
C111  O79   S    
C386  C387  A    
C270  H255  S    
C107  C123  D    
C91   O41   A    
C19   C31   A    
C279  H277  S    
C188  H64   S    
C362  C363  S    
C336  C337  S    
C300  H325  S    
C89   O43   A    
C2    C77   S    
C391  C392  A    
C27   O63   S    
C308  C309  S    
C330  H396  S    
C25   O61   S    
C197  H85   S    
C242  H191  S    
C173  H30   S    
C99   C132  S    
C291  C292  S    
C283  H287  S    
C239  H183  S    
C276  H270  S    
C38   O122  S    
C97   C130  S    
O84   C206  S    
C172  H28   S    
C398  C399  A    
C270  H256  S    
C65   C377  S    
C348  C349  S    
C185  H58   S    
C273  H262  S    
C212  H121  S    
C352  H447  S    
C139  C145  A    
O13   Zn1   S    
C419  C424  A    
C43   O127  S    
C236  C237  S    
C47   O131  S    
O86   C212  S    
C329  C330  S    
C139  O59   S    
C171  H24   S    
C117  O85   S    
C364  H476  S    
C248  H205  S    
C324  H381  S    
C351  H444  S    
C104  C105  S    
C301  H328  S    
C353  C354  S    
C67   C389  S    
C414  H535  S    
C316  H363  S    
C92   O42   A    
C409  H531  S    
C347  C348  S    
C35   O119  S    
C202  H96   S    
C41   O125  S    
C404  C405  A    
C210  H116  S    
O117  C305  S    
C371  H492  S    
C194  C195  S    
C358  H462  S    
C245  H198  S    
C168  H17   S    
C310  H349  S    
C275  H267  S    
C359  H463  S    
C186  H60   S    
C285  H291  S    
C109  O77   S    
C332  C333  S    
C99   O35   A    
C91   O27   A    
C101  C108  S    
C220  H139  S    
C420  H540  S    
C178  H40   S    
O1    Zn1   S    
C413  C418  A    
O3    Zn5   S    
C204  C205  S    
C112  O80   S    
C1    C78   S    
C208  H111  S    
C305  C306  S    
C9    C17   A    
C387  H513  S    
C12   O116  S    
C54   N6    S    
C201  C202  S    
C66   C78   A    
C3    C80   S    
C328  H391  S    
C369  H487  S    
C227  H156  S    
O129  C341  S    
C229  H160  S    
C244  H195  S    
C68   C78   A    
C162  C163  S    
C278  C279  S    
C196  H83   S    
C245  C246  S    
C194  H79   S    
C70   C80   A    
C250  H208  S    
C370  H488  S    
C202  H98   S    
O82   C200  S    
C323  H380  S    
C61   C83   A    
C200  C201  S    
C140  C146  A    
C312  H353  S    
C164  H9    S    
O88   C218  S    
C163  H5    S    
C352  H448  S    
C373  H496  S    
C327  C328  S    
C25   N5    A    
C399  C400  A    
C94   C127  S    
O52   Zn6   S    
C367  H483  S    
C233  H170  S    
O79   C191  S    
C180  H45   S    
C63   C83   A    
O98   C248  S    
C365  C366  S    
C249  H207  S    
C407  C412  A    
C318  C319  S    
C267  H249  S    
C252  H213  S    
C275  C276  S    
C411  H533  S    
C411  C412  A    
C75   O17   A    
C211  H118  S    
C348  H438  S    
O30   Zn14  S    
C221  H142  S    
C402  H525  S    
C90   O26   A    
C167  C168  S    
C24   C150  A    
C354  C355  S    
C360  C361  S    
C206  C207  S    
C187  H62   S    
C315  H360  S    
C421  H541  S    
C170  C171  S    
O72   C170  S    
C358  H460  S    
C192  H74   S    
C17   C23   A    
C393  H518  S    
C327  H389  S    
C279  C280  S    
C219  C220  S    
C63   C71   A    
C174  H32   S    
C269  H254  S    
C74   O14   A    
C342  C343  S    
O19   Zn7   S    
C357  H458  S    
C254  H219  S    
C237  H179  S    
O114  C296  S    
C344  C345  S    
C219  H137  S    
C366  H480  S    
C205  H103  S    
C102  O70   S    
C340  H420  S    
C267  C268  S    
C243  H192  S    
C86   O40   A    
C336  H409  S    
O100  C254  S    
C326  H386  S    
C188  C189  S    
C132  O100  S    
C390  C391  A    
C214  H124  S    
C221  C222  S    
C87   O23   A    
O81   C197  S    
C259  H231  S    
C216  H129  S    
C381  H508  S    
C88   O24   A    
C83   N3    S    
C101  O69   S    
C311  H351  S    
C16   C22   A    
C423  C424  A    
C309  H347  S    
C255  H220  S    
C81   N1    S    
C137  C147  A    
C239  C240  S    
C75   O19   A    
C59   C81   A    
C57   C65   A    
C199  H89   S    
C212  C213  S    
C325  H385  S    
C206  H106  S    
C193  H76   S    
C264  H241  S    
C263  C264  S    
C153  O101  S    
O128  C338  S    
C178  H41   S    
C97   O33   A    
C222  C223  S    
C363  C364  S    
C343  H427  S    
C10   O114  S    
C33   C41   A    
C345  H430  S    
C29   N7    A    
C161  H1    S    
C311  H352  S    
C337  H411  S    
O92   C230  S    
C214  H126  S    
C30   N8    A    
C182  H50   S    
C342  H423  S    
O32   Zn16  S    
C90   O44   A    
C100  O36   A    
C253  H217  S    
C68   C395  S    
C416  C417  A    
C410  H532  S    
C269  C270  S    
O33   Zn13  S    
C139  N3    A    
C295  H313  S    
C177  H39   S    
C331  H398  S    
C273  H263  S    
C111  C114  S    
C352  H446  S    
C403  C404  A    
C227  C228  S    
O40   Zn2   S    
C320  H372  S    
C93   C126  S    
C349  H440  S    
C112  C128  D    
C193  H77   S    
C339  H416  S    
O39   Zn1   S    
O75   C179  S    
C419  C420  A    
O99   C251  S    
C203  H99   S    
C60   C68   A    
C172  H27   S    
C284  H288  S    
O1    Zn3   S    
C231  H165  S    
C204  H101  S    
C198  H88   S    
O25   Zn9   S    
C305  H337  S    
C252  H214  S    
C278  H274  S    
C323  C324  S    
C415  C416  A    
C200  H92   S    
C110  C115  S    
C173  C174  S    
C179  H44   S    
C291  H305  S    
O103  C263  S    
C215  H127  S    
C165  H10   S    
C104  C120  D    
C229  H161  S    
C247  H201  S    
C114  C130  D    
C359  H464  S    
O34   Zn16  S    
O111  C287  S    
C322  H376  S    
C57   O133  S    
C116  C132  D    
C284  C285  S    
C297  H318  S    
C93   O47   A    
C157  O105  S    
O73   C173  S    
C197  H86   S    
C346  H432  S    
C42   C50   A    
C360  H465  S    
C302  C303  S    
C147  C159  A    
C123  O91   S    
C214  H125  S    
O124  C326  S    
C287  C288  S    
C141  C149  A    
C398  H522  S    
C290  H302  S    
C115  C131  D    
C176  H36   S    
C263  H239  S    
C260  H233  S    
O70   C164  S    
C400  H524  S    
C294  H311  S    
C238  H180  S    
C217  H132  S    
C203  H100  S    
C283  H286  S    
O130  C344  S    
C176  C177  S    
C156  O104  S    
C403  H526  S    
C294  C295  S    
C360  H466  S    
C17   C29   A    
O11   Zn13  S    
C374  C375  S    
C183  H53   S    
C300  H326  S    
O108  C278  S    
C45   C51   A    
C313  H357  S    
C228  H157  S    
O9    Zn15  S    
C46   C52   A    
C271  H257  S    
C164  H8    S    
C145  C157  A    
O138  C368  S    
C213  H123  S    
C232  H166  S    
C168  C169  S    
C314  C315  S    
C3    O11   A    
C279  H276  S    
C227  H155  S    
C50   C74   S    
C7    O111  S    
C202  H97   S    
O15   Zn3   S    
C349  H439  S    
C60   C82   A    
C251  C252  S    
C113  C129  D    
C341  H422  S    
C159  O107  S    
C20   C24   A    
C247  H202  S    
C280  H279  S    
C217  H133  S    
C134  O54   S    
C241  H188  S    
C286  H294  S    
C137  O57   S    
C133  O53   S    
C359  C360  S    
C424  H544  S    
C18   C30   A    
C4    O10   A    
C235  H173  S    
C256  H223  S    
C46   O130  S    
C389  C394  A    
C171  H25   S    
O135  C359  S    
C313  H356  S    
C299  C300  S    
C362  H471  S    
C350  C351  S    
C2    O8    A    
C228  C229  S    
C238  H181  S    
C355  H453  S    
C330  H395  S    
C382  H509  S    
O78   C188  S    
C207  H109  S    
C342  H424  S    
C13   C25   A    
C318  H367  S    
C105  O73   S    
C199  H91   S    
O109  C281  S    
C304  H334  S    
C225  H151  S    
C112  C113  S    
C258  H228  S    
C58   C66   A    
C312  C313  S    
C351  H445  S    
C334  H405  S    
C119  O87   S    
C33   C53   A    
C5    C157  A    
C22   C152  A    
O47   Zn5   S    
C251  H212  S    
C230  H162  S    
C48   O132  S    
C246  H200  S    
O21   Zn9   S    
C345  C346  S    
C99   O49   A    
C53   N5    S    
C407  C408  A    
O89   C221  S    
C222  H143  S    
C163  H6    S    
C290  C291  S    
C115  O83   S    
C242  H190  S    
C253  H215  S    
C43   C49   A    
C282  C283  S    
O112  C290  S    
C231  C232  S    
C298  H321  S    
C404  H527  S    
C187  H63   S    
O4    Zn16  S    
C191  C192  S    
C206  H107  S    
C134  N2    A    
C162  H4    S    
O42   Zn4   S    
C133  C143  A    
C180  H46   S    
C14   C26   A    
C266  H247  S    
C314  H358  S    
C231  H164  S    
O69   C161  S    
C177  H38   S    
C326  H387  S    
C192  H73   S    
C131  O99   S    
C420  C421  A    
C209  C210  S    
C203  C204  S    
C135  C141  A    
C37   O121  S    
C233  C234  S    
C262  H237  S    
C316  H364  S    
C100  C129  S    
C97   O51   A    
O113  C293  S    
C307  H343  S    
C105  C121  D    
C190  H69   S    
C257  H225  S    
C287  H295  S    
O45   Zn7   S    
C128  O96   S    
C182  H51   S    
C234  C235  S    
C145  C151  A    
C169  H21   S    
C335  C336  S    
C146  C152  A    
C271  H259  S    
C109  C125  D    
C175  H33   S    
O71   C167  S    
C167  H16   S    
C325  H383  S    
C293  H309  S    
O7    Zn9   S    
C293  H310  S    
C91   C124  S    
C296  H317  S    
C170  H22   S    
C111  C127  D    
C277  H271  S    
C191  H72   S    
O43   Zn3   S    
C368  C369  S    
C364  H474  S    
C297  H319  S    
C324  C325  S    
C368  H485  S    
O121  C317  S    
C302  H330  S    
C331  H399  S    
C408  C409  A    
C355  H455  S    
O95   C239  S    
C76   O18   A    
O74   C176  S    
O14   Zn2   S    
C340  H419  S    
C218  H135  S    
C341  H421  S    
C234  H171  S    
C264  C265  S    
C61   C69   A    
C399  H523  S    
C166  H13   S    
C42   O126  S    
O120  C314  S    
C26   N6    A    
C124  O92   S    
C316  H362  S    
C40   O124  S    
C98   O34   A    
C103  C119  D    
C299  H323  S    
C57   C81   A    
C165  H11   S    
C321  H374  S    
C393  C394  A    
C133  N1    A    
C266  C267  S    
O38   Zn4   S    
C288  H297  S    
C369  C370  S    
O101  C257  S    
C303  H332  S    
C114  O82   S    
C308  H345  S    
C293  C294  S    
O105  C269  S    
C84   N4    S    
C363  H473  S    
C263  H240  S    
C51   C75   S    
C261  H235  S    
C272  C273  S    
C180  C181  S    
O110  C284  S    
C215  H128  S    
C239  H184  S    
O116  C302  S    
C265  H243  S    
C357  H459  S    
O36   Zn14  S    
C87   C120  S    
C224  H149  S    
C218  C219  S    
C92   C121  S    
C2    O6    A    
C215  C216  S    
O5    Zn11  S    
C212  H120  S    
C196  H82   S    
C213  H122  S    
C195  H80   S    
C347  H436  S    
C259  H229  S    
C376  H503  S    
O51   Zn7   S    
C96   C125  S    
C103  C106  S    
C305  H338  S    
C64   C72   A    
C376  H502  S    
C11   C19   A    
C248  H204  S    
C164  C165  S    
C198  C199  S    
C314  H359  S    
C220  H140  S    
C271  H258  S    
O20   Zn8   S    
C86   O22   A    
C9    C153  A    
C410  C411  A    
C337  H413  S    
C361  H468  S    
C15   C21   A    
O106  C272  S    
O10   Zn16  S    
C307  H341  S    
C277  H273  S    
C95   O31   A    
C289  H299  S    
C173  H29   S    
C6    O110  S    
O50   Zn8   S    
C358  H461  S    
O77   C185  S    
C209  H113  S    
C107  O75   S    
C138  N4    A    
C88   C117  S    
C296  H316  S    
C195  H81   S    
O136  C362  S    
O17   Zn5   S    
C89   C122  S    
C39   O123  S    
C332  H401  S    
C329  H394  S    
C8    C160  A    
