data_mof_unit_56104.cif
_audit_creation_date              2012-12-11T15:41:32-0500
_audit_creation_method            fapswitch 2.2
_symmetry_space_group_name_H-M    P1
_symmetry_Int_Tables_number       1
_space_group_crystal_system       triclinic
_cell_length_a                    14.877456
_cell_length_b                    15.053925
_cell_length_c                    14.885775
_cell_angle_alpha                 109.286115
_cell_angle_beta                  109.623567
_cell_angle_gamma                 109.982951
_cell_volume                      2551.06759922

loop_
_atom_site_label
_atom_site_type_symbol
_atom_type_description
_atom_site_fract_x
_atom_site_fract_y
_atom_site_fract_z
_atom_type_partial_charge
C1    C     C_R   0.194868 0.994334 0.903225 -0.141658
C2    C     C_R   0.748409 0.934754 0.025732 -0.123927
C3    C     C_R   0.872357 0.301935 0.299866 0.066231
C4    C     C_R   0.226965 0.673417 0.674613 0.058372
C5    C     C_R   0.500077 0.051217 0.325453 0.026337
C6    C     C_R   0.499544 0.063910 0.696841 0.063495
C7    C     C_R   0.497015 0.322378 0.040108 0.056271
C8    C     C_R   0.497444 0.699303 0.063618 0.116696
C9    C     C_R   0.283611 0.185384 0.670491 -0.143195
C10   C     C_R   0.685811 0.881355 0.423046 -0.288824
C11   C     C_R   0.363955 0.276554 0.775412 0.563096
C12   C     C_R   0.607749 0.781278 0.323485 0.560864
C13   C     C_R   0.330634 0.314523 0.852189 -0.062032
C14   C     C_R   0.644786 0.716196 0.272313 0.021105
C15   C     C_R   0.217912 0.261025 0.820508 -0.149926
C16   C     C_R   0.758456 0.751292 0.322981 -0.260906
C17   C     C_R   0.139658 0.169208 0.716171 -0.051831
C18   C     C_R   0.834654 0.850286 0.422005 -0.087793
C19   C     C_R   0.172435 0.131469 0.641188 -0.188251
C20   C     C_R   0.798434 0.915339 0.471662 -0.131226
C21   C     C_R   0.410419 0.506458 0.975668 -0.239146
C22   C     C_R   0.564992 0.516062 0.154162 -0.255326
C23   C     C_R   0.807397 0.208935 0.298513 -0.123669
C24   C     C_R   0.253122 0.776363 0.685344 -0.109453
C25   C     C_R   0.490032 0.605711 0.072439 0.102285
C26   C     C_R   0.489183 0.417720 0.053753 0.056476
C27   C     C_R   0.565636 0.611962 0.165240 0.092108
C28   C     C_R   0.409764 0.412599 0.963923 0.018516
C29   C     C_R   0.051650 0.473513 0.372962 -0.029063
C30   C     C_R   0.140389 0.468009 0.567596 -0.017742
C31   C     C_R   0.138230 0.569275 0.471087 -0.137372
C32   C     C_R   0.044236 0.376028 0.473332 -0.139923
C33   C     C_R   0.173548 0.569618 0.571169 -0.024422
C34   C     C_R   0.991792 0.382136 0.379516 -0.027167
C35   C     C_R   0.599022 0.158657 0.622511 -0.145554
C36   C     C_R   0.398566 0.051816 0.426540 -0.152042
C37   C     C_R   0.599209 0.157741 0.529278 -0.176842
C38   C     C_R   0.398342 0.050399 0.518620 -0.180061
C39   C     C_R   0.499265 0.094090 0.428274 0.136937
C40   C     C_R   0.498900 0.095855 0.614356 0.168655
C41   C     C_R   0.960531 0.840251 0.937832 -0.164981
C42   C     C_R   0.871186 0.942956 0.841938 -0.161002
C43   C     C_R   0.869275 0.842985 0.940212 -0.160033
C44   C     C_R   0.962273 0.940044 0.839269 -0.163942
C45   C     C_R   0.407407 0.973500 0.221829 -0.103667
C46   C     C_R   0.591677 0.094419 0.790870 -0.132004
C47   C     C_R   0.832612 0.905369 0.903527 0.139171
C48   C     C_R   0.014193 0.898719 0.897470 0.137438
C49   C     C_R   0.591517 0.315241 0.058819 -0.112308
C50   C     C_R   0.406856 0.702089 0.004346 -0.129532
C51   C     C_R   0.592843 0.066439 0.315020 -0.124814
C52   C     C_R   0.407840 0.002657 0.699161 -0.135006
C53   C     C_R   0.406493 0.218794 0.974460 -0.118537
C54   C     C_R   0.590917 0.790849 0.094236 -0.168375
C55   C     C_R   0.803862 0.301217 0.209322 -0.144674
C56   C     C_R   0.248882 0.685556 0.777665 -0.138952
C57   C     C_R   0.194537 0.903798 0.994547 -0.138738
C58   C     C_R   0.748561 0.026351 0.933805 -0.127719
C59   C     C_R   0.130160 0.932099 0.931692 0.052383
C60   C     C_R   0.774093 0.949581 0.948302 0.041004
H1    H     H_    0.167249 0.017060 0.842007 0.091119
H2    H     H_    0.758568 0.882290 0.058001 0.095556
H3    H     H_    0.307456 0.156958 0.610758 0.137692
H4    H     H_    0.659382 0.932798 0.463303 0.126193
H5    H     H_    0.191028 0.289841 0.877597 0.133185
H6    H     H_    0.788331 0.702637 0.284867 0.143780
H7    H     H_    0.053442 0.127823 0.693297 0.098638
H8    H     H_    0.922028 0.876803 0.460084 0.112631
H9    H     H_    0.353473 0.502704 0.904001 0.152481
H10   H     H_    0.623655 0.517787 0.222879 0.140616
H11   H     H_    0.175988 0.643541 0.469180 0.154767
H12   H     H_    0.009636 0.301050 0.474850 0.153382
H13   H     H_    0.678030 0.199795 0.696935 0.109595
H14   H     H_    0.319468 0.008382 0.351655 0.112781
H15   H     H_    0.678234 0.197393 0.534781 0.116426
H16   H     H_    0.319144 0.004573 0.510088 0.105429
H17   H     H_    0.994322 0.801548 0.977416 0.114337
H18   H     H_    0.839619 0.984905 0.805700 0.108026
H19   H     H_    0.836089 0.175730 0.348597 0.090566
H20   H     H_    0.245119 0.797635 0.621801 0.096901
H21   H     H_    0.836049 0.805959 0.981245 0.112730
H22   H     H_    0.997304 0.979990 0.801065 0.104650
H23   H     H_    0.321292 0.940397 0.198480 0.094843
H24   H     H_    0.676605 0.154816 0.824029 0.088923
H25   H     H_    0.676337 0.381635 0.104162 0.103578
H26   H     H_    0.321613 0.649400 0.978781 0.111031
H27   H     H_    0.679030 0.119846 0.378617 0.098847
H28   H     H_    0.322956 0.978813 0.648090 0.088262
H29   H     H_    0.320749 0.194924 0.945967 0.110417
H30   H     H_    0.676013 0.818757 0.150000 0.103683
H31   H     H_    0.825521 0.355471 0.178216 0.090018
H32   H     H_    0.233351 0.623846 0.800913 0.093220
H33   H     H_    0.166321 0.843395 0.017752 0.092926
H34   H     H_    0.758769 0.058398 0.880750 0.093954
H35   H     H_    0.111503 0.060944 0.559826 0.122019
H36   H     H_    0.857617 0.992103 0.548209 0.118635
N1    N     N_R   0.293810 0.002730 0.945950 -0.040247
N2    N     N_R   0.706190 0.997270 0.054050 -0.041332
N3    N     N_R   0.706160 0.152130 0.208910 -0.042130
N4    N     N_R   0.293840 0.847870 0.791090 -0.043498
N5    N     N_R   0.443140 0.945920 0.152090 -0.036765
N6    N     N_R   0.556860 0.054080 0.847910 -0.039575
N7    N     N_R   0.556830 0.208940 0.002760 -0.037841
N8    N     N_R   0.443170 0.791060 0.997240 -0.045316
N9    N     N_R   0.556790 0.002750 0.208910 -0.037260
N10   N     N_R   0.443210 0.997250 0.791090 -0.040925
N11   N     N_R   0.443180 0.152110 0.945950 -0.041568
N12   N     N_R   0.556820 0.847890 0.054050 -0.039586
N13   N     N_R   0.706170 0.208950 0.152090 -0.040498
N14   N     N_R   0.293830 0.791050 0.847910 -0.040703
N15   N     N_R   0.293800 0.945910 0.002760 -0.039892
N16   N     N_R   0.706200 0.054090 0.997240 -0.042163
Ni1   Ni    Ni4+2 0.369690 0.999990 0.869700 0.215992
Ni2   Ni    Ni4+2 0.630310 0.000010 0.130300 0.218229
Ni3   Ni    Ni4+2 0.369670 0.869670 0.000000 0.223640
Ni4   Ni    Ni4+2 0.630330 0.130330 0.000000 0.218191
O1    O     O_3   0.472119 0.325607 0.797970 -0.767529
H37   H     H_    0.520047 0.391102 0.872494 0.315945
O2    O     O_3   0.495708 0.745043 0.275982 -0.766196
H38   H     H_    0.484465 0.800951 0.320963 0.316576
C61   C     C_2   0.030976 0.469193 0.266674 0.482949
H39   H     H_    0.990449 0.391111 0.192372 0.007286
O3    O     O_2   0.061664 0.552610 0.261250 -0.586983
C62   C     C_2   0.206474 0.455322 0.657235 0.465406
H40   H     H_    0.292596 0.518068 0.717079 0.012189
O4    O     O_2   0.166611 0.373740 0.663844 -0.594037

loop_
_geom_bond_atom_site_label_1
_geom_bond_atom_site_label_2
_ccdc_geom_bond_type
C23   N3    A    
N4    N14   A    
C3    C23   A    
N8    N12   A    
N3    Ni2   S    
C32   H12   S    
C38   H16   S    
C36   H14   S    
C50   N8    A    
C46   N6    A    
C7    C26   S    
C58   N16   A    
C35   C37   A    
C54   H30   S    
C44   H22   S    
C1    C59   A    
C41   H17   S    
N1    N15   A    
C2    C60   A    
C57   C59   A    
C24   N4    A    
C58   C60   A    
N8    Ni3   S    
N12   Ni2   S    
N11   Ni1   S    
C55   H31   S    
N13   Ni4   S    
C47   C60   S    
C3    C55   A    
C24   H20   S    
N1    Ni1   S    
C10   C20   A    
C29   C61   S    
C31   C33   A    
C13   C28   S    
N6    N10   A    
C14   C27   S    
C30   C32   A    
C18   C20   A    
C31   H11   S    
C20   H36   S    
C52   N10   A    
C57   H33   S    
C4    C56   A    
C8    C25   S    
C41   C43   A    
C45   H23   S    
C42   C44   A    
C10   C12   A    
C56   N14   A    
C9    C19   A    
N5    N9    A    
C17   H7    S    
N2    N16   A    
N10   Ni1   S    
C49   H25   S    
N9    Ni2   S    
C52   H28   S    
N6    Ni4   S    
C7    C49   A    
C1    N1    A    
C3    C34   S    
C5    C45   A    
C29   C34   A    
C21   H9    S    
C32   C34   A    
C12   O2    S    
C53   N11   A    
C51   N9    A    
C9    C11   A    
C61   H39   S    
C45   N5    A    
C46   H24   S    
C16   C18   A    
C21   C28   A    
C12   C14   A    
C42   H18   S    
C22   C27   A    
C13   C15   A    
C53   H29   S    
N5    Ni3   S    
C14   C16   A    
C16   H6    S    
C7    C53   A    
C51   H27   S    
C11   O1    S    
C8    C50   A    
N16   Ni4   S    
C19   H35   S    
C43   H21   S    
C48   C59   S    
C62   O4    D    
C15   C17   A    
C21   C25   A    
C4    C33   S    
C35   H13   S    
C6    C46   A    
C30   C33   A    
C9    H3    S    
C36   C39   A    
C10   H4    S    
N4    Ni1   S    
C30   C62   S    
C1    H1    S    
C49   N7    A    
N7    N11   A    
O2    H38   S    
C54   N12   A    
C25   C27   A    
C26   C28   A    
C8    C54   A    
C23   H19   S    
N3    N13   A    
C5    C39   S    
C35   C40   A    
C58   H34   S    
C37   C39   A    
O1    H37   S    
C38   C40   A    
C11   C13   A    
C57   N15   A    
C43   C47   A    
C4    C24   A    
C36   C38   A    
C17   C19   A    
C41   C48   A    
N7    Ni4   S    
C6    C40   S    
C42   C47   A    
C37   H15   S    
C61   O3    D    
N2    Ni2   S    
C50   H26   S    
C44   C48   A    
C56   H32   S    
C2    N2    A    
C29   C31   A    
C22   C26   A    
C5    C51   A    
N15   Ni3   S    
C6    C52   A    
C18   H8    S    
N14   Ni3   S    
C22   H10   S    
C55   N13   A    
C2    H2    S    
C62   H40   S    
C15   H5    S    
