data_mof_unit_18823.cif
_audit_creation_date              2012-10-26T20:01:53-0400
_audit_creation_method            fapswitch 2.2
_symmetry_space_group_name_H-M    P1
_symmetry_Int_Tables_number       1
_space_group_crystal_system       triclinic
_cell_length_a                    11.647106
_cell_length_b                    10.903557
_cell_length_c                    9.725971
_cell_angle_alpha                 89.847481
_cell_angle_beta                  93.206727
_cell_angle_gamma                 95.246719
_cell_volume                      1228.04386574

loop_
_atom_site_label
_atom_site_type_symbol
_atom_type_description
_atom_site_fract_x
_atom_site_fract_y
_atom_site_fract_z
_atom_type_partial_charge
C1    C     C_R   0.503889 0.262740 0.501608 0.530778
C2    C     C_R   0.472699 0.868913 0.503827 -0.009261
C3    C     C_R   0.648327 0.672327 0.150618 -0.090325
C4    C     C_R   0.284415 0.500042 0.497144 0.526801
C5    C     C_R   0.708026 0.770425 0.081837 0.246912
C6    C     C_R   0.709748 0.762129 0.937646 0.018847
C7    C     C_R   0.678531 0.645561 0.876355 0.049211
C8    C     C_R   0.583552 0.573758 0.932437 0.109911
C9    C     C_R   0.577692 0.579349 0.079113 0.075896
C10   C     C_R   0.415845 0.431757 0.068626 0.138462
C11   C     C_R   0.417553 0.428565 0.920290 0.133837
C12   C     C_R   0.530350 0.053445 0.887536 0.260597
C13   C     C_R   0.489665 0.736040 0.500084 0.543064
C14   C     C_R   0.715563 0.499929 0.502632 0.535186
C15   C     C_1   0.162449 0.501397 0.492910 -0.059615
C16   C     C_1   0.059868 0.501466 0.495879 -0.071700
C17   C     C_1   0.940235 0.500631 0.502403 -0.072510
C18   C     C_1   0.837632 0.499881 0.505899 -0.059273
C19   C     C_R   0.549024 0.116647 0.762656 -0.115997
C20   C     C_3   0.766956 0.865951 0.854407 -0.235654
C21   C     C_3   0.898787 0.879734 0.873857 -0.445209
C22   C     C_3   0.788893 0.584676 0.848884 -0.236458
C23   C     C_R   0.476067 0.934961 0.881558 -0.092697
C24   C     C_3   0.785790 0.446286 0.874778 -0.431539
C25   C     C_3   0.333133 0.332316 0.842275 -0.227278
C26   C     C_3   0.207066 0.361688 0.824241 -0.436312
C27   C     C_3   0.651713 0.189468 0.029130 0.002317
C28   C     C_3   0.700043 0.189391 0.178377 -0.242797
C29   C     C_3   0.816030 0.265877 0.201560 -0.485228
C30   C     C_3   0.317482 0.884366 0.210880 0.015095
C31   C     C_3   0.233564 0.798754 0.291469 -0.275931
C32   C     C_3   0.119070 0.768313 0.209043 -0.492080
C33   C     C_3   0.313161 0.364406 0.137056 -0.214496
C34   C     C_R   0.448863 0.876173 0.756397 -0.156746
C35   C     C_3   0.211574 0.444747 0.146202 -0.408298
C36   C     C_3   0.806402 0.849106 0.285016 -0.004288
C37   C     C_3   0.891053 0.955469 0.340263 -0.263961
C38   C     C_3   0.954440 0.920312 0.474321 -0.489922
C39   C     C_R   0.478149 0.933738 0.631135 -0.037202
C40   C     C_R   0.511643 0.061323 0.633208 -0.026514
C41   C     C_R   0.502850 0.127596 0.506584 -0.062542
C42   C     C_R   0.474024 0.062894 0.383186 -0.153770
C43   C     C_R   0.459309 0.934844 0.380390 0.253338
Cu1   Cu    Cu3+1 0.499990 0.499990 0.640660 0.888622
Cu2   Cu    Cu3+1 0.500010 0.500010 0.359340 0.894730
H1    H     H_    0.461742 0.111503 0.287060 0.164720
H2    H     H_    0.734388 0.953556 0.884881 0.179775
H3    H     H_    0.782397 0.430437 0.986352 0.121340
H4    H     H_    0.710515 0.393914 0.821979 0.182795
H5    H     H_    0.865767 0.411129 0.839612 0.127943
H6    H     H_    0.816894 0.609261 0.745031 0.159653
H7    H     H_    0.862099 0.623857 0.918776 0.122900
H8    H     H_    0.199426 0.461955 0.834900 0.170160
H9    H     H_    0.170266 0.333275 0.720047 0.137813
H10   H     H_    0.153124 0.305954 0.895977 0.122696
H11   H     H_    0.355080 0.316406 0.739475 0.220009
H12   H     H_    0.594556 0.206723 0.768819 0.128801
H13   H     H_    0.339320 0.239703 0.888192 0.113059
H14   H     H_    0.720226 0.164017 0.961727 0.119208
H15   H     H_    0.626420 0.282737 0.003601 0.136658
H16   H     H_    0.638088 0.226452 0.245279 0.196567
H17   H     H_    0.709108 0.092973 0.209223 0.223651
H18   H     H_    0.877035 0.243878 0.123342 0.142236
H19   H     H_    0.854673 0.246280 0.305243 0.141505
H20   H     H_    0.803553 0.365426 0.199404 0.165481
H21   H     H_    0.307424 0.856270 0.101190 0.142452
H22   H     H_    0.293450 0.980853 0.214086 0.110532
H23   H     H_    0.458927 0.885659 0.975406 0.164115
H24   H     H_    0.272477 0.711900 0.315219 0.207203
H25   H     H_    0.217478 0.843173 0.390402 0.135109
H26   H     H_    0.079346 0.854065 0.181109 0.146189
H27   H     H_    0.059320 0.708838 0.271084 0.152772
H28   H     H_    0.132747 0.718272 0.112891 0.137090
H29   H     H_    0.152316 0.442203 0.054522 0.113406
H30   H     H_    0.157560 0.411130 0.231222 0.141595
H31   H     H_    0.243122 0.542743 0.162767 0.180615
H32   H     H_    0.281355 0.275981 0.087425 0.094209
H33   H     H_    0.338924 0.331792 0.239456 0.200198
H34   H     H_    0.400288 0.787137 0.760115 0.155975
H35   H     H_    0.852112 0.763532 0.286122 0.124364
H36   H     H_    0.734548 0.839809 0.356157 0.141201
H37   H     H_    0.954381 0.983789 0.262525 0.167105
H38   H     H_    0.843036 0.035384 0.362755 0.151768
H39   H     H_    0.891634 0.896652 0.554198 0.145347
H40   H     H_    0.015065 0.999191 0.511800 0.143040
H41   H     H_    0.004432 0.840190 0.458329 0.153182
H42   H     H_    0.652509 0.674514 0.258753 0.182683
H43   H     H_    0.932553 0.968627 0.828831 0.126485
H44   H     H_    0.927702 0.879236 0.984417 0.187946
H45   H     H_    0.936651 0.805151 0.819516 0.125229
H46   H     H_    0.742051 0.851848 0.743131 0.129309
N1    N     N_R   0.501070 0.501210 0.147910 -0.246974
N2    N     N_R   0.501110 0.501290 0.852040 -0.253943
O1    O     O_R   0.499990 0.319640 0.618810 -0.536388
O2    O     O_3   0.434178 0.873915 0.256028 -0.537648
O3    O     O_3   0.763046 0.874901 0.149617 -0.569800
O4    O     O_R   0.500000 0.319660 0.381240 -0.529538
O5    O     O_R   0.337190 0.500000 0.618790 -0.501837
O6    O     O_R   0.337200 0.500030 0.381210 -0.519004
O7    O     O_R   0.500000 0.680340 0.618760 -0.510054
O8    O     O_R   0.500010 0.680360 0.381190 -0.471804
O9    O     O_R   0.662800 0.499970 0.618790 -0.493857
O10   O     O_R   0.662810 0.500000 0.381210 -0.521497
O11   O     O_3   0.551847 0.105622 0.017890 -0.569747

loop_
_geom_bond_atom_site_label_1
_geom_bond_atom_site_label_2
_ccdc_geom_bond_type
C8    C9    A    
C29   H18   S    
C35   H29   S    
C4    O5    A    
C41   C42   A    
C14   C18   S    
C25   H11   S    
C26   H10   S    
C7    C8    A    
C32   H27   S    
C21   H44   S    
C19   H12   S    
C12   C23   A    
C35   H30   S    
C30   O2    S    
C38   H41   S    
C36   C37   S    
C12   O11   S    
C27   H15   S    
C30   C31   S    
C33   H33   S    
C14   O9    A    
C11   C25   S    
C15   C16   T    
C27   O11   S    
C42   H1    S    
Cu2   N1    S    
C2    C13   S    
Cu1   N2    S    
Cu2   O10   S    
Cu1   O5    S    
C2    C39   A    
C31   H25   S    
C16   C17   S    
C43   O2    S    
C36   H36   S    
C30   H22   S    
C28   H16   S    
C11   N2    A    
C29   H19   S    
C10   N1    A    
C19   C40   A    
C26   H9    S    
C9    N1    A    
C32   H26   S    
C21   H45   S    
C24   H5    S    
C20   H46   S    
C35   H31   S    
C38   H40   S    
C3    H42   S    
C34   C39   A    
C24   H3    S    
Cu2   O6    S    
C1    O4    A    
C39   C40   A    
Cu1   O9    S    
C1    O1    A    
C25   C26   S    
C23   H23   S    
C37   C38   S    
C3    C9    A    
C34   H34   S    
C36   O3    S    
C31   C32   S    
C2    C43   A    
C23   C34   A    
C17   C18   T    
C30   H21   S    
Cu2   O8    S    
C29   H20   S    
C1    C41   S    
C40   C41   A    
C36   H35   S    
C22   C24   S    
C37   H37   S    
C25   H13   S    
C13   O8    A    
C26   H8    S    
C32   H28   S    
C5    O3    S    
Cu1   Cu2   S    
C22   H7    S    
C24   H4    S    
C28   C29   S    
C38   H39   S    
C8    N2    A    
C3    C5    A    
C6    C7    A    
C7    C22   S    
C6    C20   S    
C13   O7    A    
C27   H14   S    
Cu1   O7    S    
C33   H32   S    
C14   O10   A    
C5    C6    A    
C4    C15   S    
C12   C19   A    
C33   C35   S    
C10   C33   S    
C21   H43   S    
C20   H2    S    
Cu1   O1    S    
C10   C11   A    
C31   H24   S    
C20   C21   S    
C42   C43   A    
C4    O6    A    
C27   C28   S    
C37   H38   S    
Cu2   O4    S    
C22   H6    S    
C28   H17   S    
