data_mof_unit_24547.cif
_audit_creation_date              2012-12-11T16:46:33-0500
_audit_creation_method            fapswitch 2.2
_symmetry_space_group_name_H-M    P1
_symmetry_Int_Tables_number       1
_space_group_crystal_system       triclinic
_cell_length_a                    26.173873
_cell_length_b                    7.185111
_cell_length_c                    23.927928
_cell_angle_alpha                 90.000369
_cell_angle_beta                  101.523137
_cell_angle_gamma                 90.000283
_cell_volume                      4409.23813641

loop_
_atom_site_label
_atom_site_type_symbol
_atom_type_description
_atom_site_fract_x
_atom_site_fract_y
_atom_site_fract_z
_atom_type_partial_charge
O1    O     O_R   0.547620 0.505720 0.453310 -0.537817
O2    O     O_R   0.452380 0.005720 0.546690 -0.537816
O3    O     O_R   0.442260 0.172470 0.436770 -0.534607
O4    O     O_R   0.557740 0.672470 0.563230 -0.534579
C1    C     C_R   0.076209 0.468049 0.078629 0.712325
C2    C     C_R   0.923791 0.968048 0.921371 0.712327
C3    C     C_R   0.424024 0.344515 0.421651 0.705166
C4    C     C_R   0.575976 0.844517 0.578348 0.705158
O5    O     O_R   0.546600 0.175780 0.446490 -0.542447
O6    O     O_R   0.453400 0.675780 0.553510 -0.542445
O7    O     O_R   0.557460 0.008970 0.556480 -0.527429
O8    O     O_R   0.442540 0.508970 0.443520 -0.527469
C5    C     C_R   0.562489 0.344756 0.434481 0.705787
C6    C     C_R   0.437511 0.844756 0.565518 0.705747
O9    O     O_R   0.047630 0.803580 0.953300 -0.539150
O10   O     O_R   0.952370 0.303580 0.046700 -0.539170
O11   O     O_3   0.503440 0.340340 0.536080 -0.373406
O12   O     O_3   0.496560 0.840340 0.463920 -0.373441
V1    V     V_3+5 0.499360 0.064140 0.493310 1.425006
V2    V     V_3+5 0.500640 0.564140 0.506690 1.425038
O13   O     O_R   0.057730 0.636870 0.063240 -0.532441
O14   O     O_R   0.942270 0.136870 0.936760 -0.532449
O15   O     O_3   0.996540 0.468950 0.963950 -0.372325
O16   O     O_3   0.003460 0.968950 0.036050 -0.372346
C7    C     C_R   0.122920 0.781705 0.885374 -0.178637
C8    C     C_R   0.877087 0.281700 0.114635 -0.178691
H1    H     H_    0.112490 0.654896 0.904843 0.129173
H2    H     H_    0.887516 0.154885 0.095167 0.129156
C9    C     C_R   0.159498 0.770696 0.850086 -0.090271
C10   C     C_R   0.840512 0.270691 0.149926 -0.090317
H3    H     H_    0.176438 0.636780 0.843633 0.137245
H4    H     H_    0.823575 0.136771 0.156384 0.137226
C11   C     C_R   0.174680 0.930966 0.824027 0.197614
C12   C     C_R   0.825329 0.430968 0.175985 0.197619
C13   C     C_R   0.152485 0.102853 0.834127 -0.078932
C14   C     C_R   0.847521 0.602861 0.165879 -0.078935
C15   C     C_R   0.116027 0.114303 0.869691 -0.183168
C16   C     C_R   0.883976 0.614310 0.130312 -0.183224
H5    H     H_    0.099860 0.249150 0.876559 0.130486
H6    H     H_    0.900140 0.749162 0.123441 0.130468
C17   C     C_R   0.100702 0.953747 0.895868 -0.051593
C18   C     C_R   0.899301 0.453748 0.104136 -0.051586
C19   C     C_R   0.259427 0.030852 0.798639 0.186675
C20   C     C_R   0.740572 0.530790 0.201356 0.186557
C21   C     C_R   0.296240 0.023413 0.762080 0.329930
C22   C     C_R   0.703753 0.523338 0.237909 0.330017
C23   C     C_R   0.289258 0.894537 0.716754 0.017162
C24   C     C_R   0.710747 0.394518 0.283249 0.017164
C25   C     C_R   0.245337 0.778707 0.707137 -0.325824
C26   C     C_R   0.754678 0.278739 0.292882 -0.325796
H7    H     H_    0.239984 0.681234 0.671880 0.155149
H8    H     H_    0.760037 0.181302 0.328149 0.155123
C27   C     C_R   0.207289 0.791792 0.741078 0.319988
C28   C     C_R   0.792729 0.291832 0.258943 0.320014
C29   C     C_R   0.214134 0.919056 0.786880 -0.029629
C30   C     C_R   0.785876 0.419059 0.213131 -0.029646
C31   C     C_R   0.351949 0.714083 0.671079 -0.229078
C32   C     C_R   0.648061 0.214061 0.328932 -0.229125
C33   C     C_R   0.387594 0.700537 0.634687 -0.172065
C34   C     C_R   0.612414 0.200521 0.365322 -0.172109
C35   C     C_R   0.399276 0.856575 0.604046 -0.077428
C36   C     C_R   0.600722 0.356574 0.395951 -0.077406
C37   C     C_R   0.373668 0.025682 0.610097 -0.264620
C38   C     C_R   0.626321 0.525692 0.389888 -0.264641
H9    H     H_    0.381376 0.146929 0.586187 0.124114
H10   H     H_    0.618605 0.646953 0.413788 0.124097
C39   C     C_R   0.337278 0.040029 0.646171 0.430904
C40   C     C_R   0.662713 0.540033 0.353815 0.430920
C41   C     C_R   0.326947 0.883446 0.677666 0.143944
C42   C     C_R   0.673055 0.383430 0.322336 0.143941
C43   C     C_3   0.771249 0.719222 0.787633 0.228292
C44   C     C_3   0.229080 0.219690 0.211956 0.228400
C45   C     C_3   0.748174 0.053142 0.801687 -0.418218
C46   C     C_3   0.251637 0.554599 0.198634 -0.418221
C47   C     C_3   0.698263 0.028700 0.754389 -0.356842
C48   C     C_3   0.301551 0.530231 0.245934 -0.356986
H11   H     H_    0.738728 0.022007 0.844045 0.151227
H12   H     H_    0.261180 0.524842 0.156235 0.151338
H13   H     H_    0.685737 0.165874 0.734904 0.156424
H14   H     H_    0.313821 0.667209 0.265725 0.156485
C49   C     C_1   0.621716 0.855239 0.624165 -0.163592
C50   C     C_1   0.378284 0.355231 0.375834 -0.163670
C51   C     C_3   0.792617 0.923174 0.790830 0.174031
C52   C     C_3   0.207384 0.423159 0.209167 0.173882
C53   C     C_3   0.722139 0.698268 0.738502 -0.467499
C54   C     C_3   0.278200 0.198707 0.261076 -0.467389
C55   C     C_3   0.707760 0.887749 0.708179 0.180297
C56   C     C_3   0.292241 0.387727 0.291818 0.180248
C57   C     C_3   0.755849 0.952017 0.683474 0.236617
C58   C     C_3   0.244013 0.450001 0.316603 0.236773
C59   C     C_3   0.804911 0.979179 0.732213 -0.389502
C60   C     C_3   0.194945 0.477238 0.267878 -0.389585
C61   C     C_1   0.660246 0.868416 0.662063 -0.008779
C62   C     C_1   0.339755 0.368402 0.337936 -0.008840
C63   C     C_1   0.839791 0.943468 0.837336 0.002407
C64   C     C_1   0.160209 0.443470 0.162663 0.002469
C65   C     C_1   0.878157 0.957107 0.875426 -0.159125
C66   C     C_1   0.121843 0.457112 0.124574 -0.159084
H15   H     H_    0.837931 0.895477 0.722886 0.135970
H16   H     H_    0.162040 0.392428 0.276985 0.136049
H17   H     H_    0.729008 0.592335 0.706884 0.150294
H18   H     H_    0.271489 0.091674 0.292451 0.149953
V3    V     V_3+5 0.000640 0.745210 0.006690 1.433507
V4    V     V_3+5 0.999360 0.245210 0.993310 1.433529
O17   O     O_R   0.057440 0.306950 0.056520 -0.529055
O18   O     O_R   0.942560 0.806950 0.943480 -0.529075
O19   O     O_R   0.953390 0.633680 0.053510 -0.542360
O20   O     O_R   0.046610 0.133680 0.946490 -0.542341
C67   C     C_R   0.937563 0.464683 0.065603 0.688285
C68   C     C_R   0.062437 0.964683 0.934398 0.688412
H19   H     H_    0.406322 0.567965 0.630999 0.140539
H20   H     H_    0.593693 0.067942 0.369018 0.140516
O21   O     O_3   0.310610 0.203832 0.650262 -0.640232
H21   H     H_    0.321947 0.298876 0.625260 0.278859
O22   O     O_3   0.689370 0.703850 0.349709 -0.640210
H22   H     H_    0.678001 0.798945 0.374674 0.278819
H23   H     H_    0.688762 0.646599 0.756581 0.147737
H24   H     H_    0.311680 0.148482 0.242915 0.147900
H25   H     H_    0.758893 0.688646 0.828576 0.124451
H26   H     H_    0.241513 0.190533 0.170967 0.124558
H27   H     H_    0.761170 0.200843 0.802758 0.192807
H28   H     H_    0.238398 0.701980 0.197849 0.193798
H29   H     H_    0.665809 0.978103 0.774177 0.156924
H30   H     H_    0.334120 0.481096 0.226085 0.156984
H31   H     H_    0.818228 0.126585 0.734035 0.176576
H32   H     H_    0.181401 0.624347 0.266353 0.175885
H33   H     H_    0.765002 0.839983 0.654876 0.118432
H34   H     H_    0.235013 0.336905 0.344932 0.118316
O23   O     O_3   0.810065 0.588163 0.782509 -0.646946
H35   H     H_    0.817320 0.597676 0.743500 0.291949
O24   O     O_3   0.190463 0.087481 0.216779 -0.647143
H36   H     H_    0.183180 0.095706 0.255803 0.291669
O25   O     O_3   0.744927 0.113278 0.649732 -0.635911
H37   H     H_    0.741902 0.219670 0.675257 0.296892
O26   O     O_3   0.254648 0.610587 0.350708 -0.635842
H38   H     H_    0.257526 0.717792 0.325431 0.296720
H39   H     H_    0.163293 0.228461 0.814284 0.141421
H40   H     H_    0.836711 0.728475 0.185720 0.141411
O27   O     O_3   0.267468 0.139848 0.847196 -0.648757
H41   H     H_    0.305408 0.157419 0.860960 0.301655
O28   O     O_3   0.732524 0.639752 0.152796 -0.648769
H42   H     H_    0.694574 0.656874 0.138962 0.301566
O29   O     O_3   0.339353 0.138451 0.769814 -0.633227
H43   H     H_    0.330506 0.257307 0.786575 0.300037
O30   O     O_3   0.660627 0.638320 0.230159 -0.633222
H44   H     H_    0.669430 0.757058 0.213299 0.300107
O31   O     O_3   0.162756 0.683661 0.729723 -0.640153
H45   H     H_    0.164047 0.601796 0.696665 0.301901
O32   O     O_3   0.837270 0.183743 0.270310 -0.640151
H46   H     H_    0.835981 0.101894 0.303370 0.301889
H47   H     H_    0.344144 0.592194 0.694675 0.163156
H48   H     H_    0.655873 0.092162 0.305344 0.163184

loop_
_geom_bond_atom_site_label_1
_geom_bond_atom_site_label_2
_ccdc_geom_bond_type
C11   C29   S    
C16   H6    S    
C37   H9    S    
C12   C30   S    
C50   C62   T    
C45   C47   S    
C27   C29   A    
O31   H45   S    
O4    C4    A    
O30   H44   S    
O26   H38   S    
C23   C25   A    
C1    O17   A    
C60   H16   S    
C26   C28   A    
C46   C48   S    
C47   H29   S    
C38   C40   A    
C13   C15   A    
C18   C67   S    
O5    V1    S    
C16   C18   A    
O3    C3    A    
C46   C52   S    
C54   C56   S    
C31   C33   A    
C22   O30   S    
C56   C62   S    
C31   H47   S    
C32   C34   A    
O29   H43   S    
C2    O14   A    
C9    C11   A    
C27   O31   S    
O11   V2    S    
O14   V4    S    
C34   C36   A    
O12   V1    S    
C52   C64   S    
C35   C37   A    
O5    C5    A    
C23   C41   S    
C36   C38   A    
C43   C53   S    
C32   H48   S    
O10   V4    S    
C5    C36   S    
O6    V2    S    
C20   O28   S    
C25   H7    S    
C64   C66   T    
C26   H8    S    
O3    V1    S    
C57   C59   S    
C48   C56   S    
C24   C26   A    
O19   C67   A    
O9    C68   A    
O8    V2    S    
V4    O17   S    
C20   C22   A    
O10   C67   A    
C28   O32   S    
C43   C51   S    
C21   C23   A    
C7    C9    A    
C3    O8    A    
C37   C39   A    
C33   C35   A    
C57   O25   S    
C10   C12   A    
C53   C55   S    
C4    C49   S    
C48   H30   S    
C2    C65   S    
O21   H21   S    
O6    C6    A    
C7    C17   A    
C32   C42   A    
C6    C35   S    
C39   C41   A    
C38   H10   S    
C34   H20   S    
C43   O23   S    
C49   C61   T    
C20   C30   A    
C58   C60   S    
O15   V4    S    
C51   C63   S    
C44   H26   S    
C2    O18   A    
C54   H24   S    
C53   H23   S    
C19   C21   A    
C44   C52   S    
C19   C29   A    
C46   H28   S    
C56   C58   S    
C8    C10   A    
C45   H27   S    
C17   C68   S    
C55   C57   S    
O25   H37   S    
O1    C5    A    
O24   H36   S    
C54   H18   S    
V4    O20   S    
C53   H17   S    
C8    C18   A    
C44   O24   S    
O23   H35   S    
C57   H33   S    
C47   C55   S    
O1    V2    S    
C45   H11   S    
C59   H31   S    
O2    V1    S    
C48   H14   S    
C24   C42   S    
C60   H32   S    
C44   C54   S    
O27   H41   S    
C63   C65   T    
C28   C30   A    
O4    V2    S    
C19   O27   S    
C7    H1    S    
C51   C59   S    
C8    H2    S    
C43   H25   S    
O16   V3    S    
O9    V3    S    
C14   C16   A    
C39   O21   S    
C15   H5    S    
C59   H15   S    
O32   H46   S    
C13   H39   S    
C10   H4    S    
C58   O26   S    
C47   H13   S    
C4    O7    A    
C25   C27   A    
C55   C61   S    
C11   C13   A    
O20   C68   A    
V3    O18   S    
C12   C14   A    
O7    V1    S    
C15   C17   A    
O2    C6    A    
C40   O22   S    
O13   V3    S    
C22   C24   A    
C3    C50   S    
C1    O13   A    
C1    C66   S    
C9    H3    S    
C46   H12   S    
C33   H19   S    
C21   O29   S    
C40   C42   A    
C58   H34   S    
V3    O19   S    
C52   C60   S    
C31   C41   A    
O28   H42   S    
C14   H40   S    
C45   C51   S    
O22   H22   S    
