data_mof_unit_44722.cif
_audit_creation_date              2012-12-10T20:27:56-0500
_audit_creation_method            fapswitch 2.2
_symmetry_space_group_name_H-M    P1
_symmetry_Int_Tables_number       1
_space_group_crystal_system       triclinic
_cell_length_a                    12.70755
_cell_length_b                    10.643125
_cell_length_c                    9.954246
_cell_angle_alpha                 89.552602
_cell_angle_beta                  94.884676
_cell_angle_gamma                 90.292968
_cell_volume                      1341.34843663

loop_
_atom_site_label
_atom_site_type_symbol
_atom_type_description
_atom_site_fract_x
_atom_site_fract_y
_atom_site_fract_z
_atom_type_partial_charge
C1    C     C_R   0.500464 0.260753 0.500530 0.903607
C2    C     C_R   0.415630 0.938138 0.410194 -0.051801
C3    C     C_R   0.487598 0.871602 0.500814 -0.156061
C4    C     C_R   0.298098 0.495874 0.474629 0.938494
C5    C     C_R   0.548820 0.934683 0.601580 0.074784
C6    C     C_3   0.663941 0.922382 0.645638 -0.573134
C7    C     C_3   0.667950 0.065489 0.645540 0.272039
C8    C     C_R   0.416764 0.452596 0.063610 0.056723
C9    C     C_R   0.577822 0.559620 0.077842 0.441856
C10   C     C_R   0.578239 0.556957 0.935062 -0.058651
C11   C     C_R   0.415874 0.452459 0.922171 0.102186
C12   C     C_R   0.025268 0.403691 0.540343 -0.073655
C13   C     C_3   0.364693 0.323362 0.916975 0.065912
C14   C     C_3   0.369668 0.324947 0.072125 0.654153
C15   C     C_R   0.496951 0.739411 0.499389 0.921897
C16   C     C_R   0.700193 0.481995 0.523710 0.967229
C17   C     C_R   0.808950 0.437846 0.530702 -0.201631
C18   C     C_R   0.185440 0.477795 0.456280 -0.253258
C19   C     C_R   0.019295 0.523770 0.328603 0.541955
C20   C     C_R   0.128410 0.538868 0.348674 -0.280601
C21   C     C_R   0.134487 0.396643 0.541651 0.507464
C22   C     C_2   0.809397 0.374504 0.285056 1.073496
C23   C     C_R   0.968132 0.453244 0.424001 -0.151412
C24   C     C_2   0.428838 0.219363 0.858731 0.970806
C25   C     C_2   0.335829 0.876778 0.314497 0.945829
C26   C     C_R   0.859953 0.434524 0.410743 -0.112028
C27   C     C_R   0.863819 0.399220 0.653159 0.321885
C28   C     C_R   0.971404 0.365702 0.652250 0.422201
C29   C     C_R   0.552012 0.062565 0.601946 0.153979
C30   C     C_R   0.493657 0.129219 0.501877 -0.100899
C31   C     C_R   0.420090 0.068745 0.411999 -0.207376
H1    H     H_    0.709279 0.877511 0.568237 0.212583
H2    H     H_    0.220308 0.260850 0.891123 0.372756
H3    H     H_    0.301483 0.120286 0.776718 0.338958
H4    H     H_    0.245657 0.241843 0.131161 0.353578
H5    H     H_    0.511173 0.254885 0.125016 0.356698
H6    H     H_    0.863507 0.403382 0.848200 0.353050
H7    H     H_    0.009384 0.634448 0.171087 0.342124
H8    H     H_    0.976221 0.258947 0.811372 0.341215
H9    H     H_    0.255699 0.286720 0.579217 0.318349
H10   H     H_    0.245613 0.887318 0.137863 0.347199
H11   H     H_    0.686161 0.106912 0.747026 0.203899
H12   H     H_    0.641893 0.602125 0.887146 0.186874
H13   H     H_    0.168742 0.597576 0.279937 0.220293
H14   H     H_    0.366726 0.123376 0.344154 0.223984
H15   H     H_    0.677094 0.880647 0.748367 0.213253
H16   H     H_    0.814247 0.337487 0.087082 0.343909
H17   H     H_    0.708652 0.078255 0.459519 0.364599
H18   H     H_    0.632217 0.652505 0.232524 0.376274
N1    N     N_R   0.499290 0.499140 0.142710 -0.188066
N2    N     N_R   0.499290 0.499180 0.857070 -0.152502
O1    O     O_R   0.500010 0.316790 0.614690 -0.608306
O2    O     O_R   0.855295 0.384781 0.162686 -0.739237
O3    O     O_3   0.730156 0.117159 0.548092 -0.732665
O4    O     O_3   0.658414 0.624262 0.147666 -0.727319
O5    O     O_3   0.261004 0.332849 0.858018 -0.657516
O6    O     O_2   0.525101 0.221346 0.877602 -0.616517
O7    O     O_R   0.381197 0.118478 0.787092 -0.771208
O8    O     O_3   0.271189 0.329863 0.125908 -0.709723
O9    O     O_3   0.436479 0.233453 0.137327 -0.754739
O10   O     O_3   0.811453 0.393371 0.769120 -0.732581
O11   O     O_3   0.960815 0.588859 0.227525 -0.686332
O12   O     O_R   0.500000 0.316760 0.385350 -0.564439
O13   O     O_3   0.026315 0.309780 0.762333 -0.682237
O14   O     O_3   0.187218 0.303280 0.616254 -0.665758
O15   O     O_2   0.297921 0.775236 0.342352 -0.656329
O16   O     O_R   0.300901 0.937740 0.194020 -0.783902
O17   O     O_R   0.346360 0.499990 0.595720 -0.590079
O18   O     O_R   0.346350 0.499960 0.366370 -0.561234
O19   O     O_R   0.500000 0.683240 0.614650 -0.608747
O20   O     O_R   0.499990 0.683210 0.385310 -0.637183
O21   O     O_R   0.653650 0.500040 0.633630 -0.568579
O22   O     O_R   0.653640 0.500010 0.404280 -0.628919
O23   O     O_2   0.731375 0.307484 0.291007 -0.622795
Zn1   Zn    Zn3+2 0.500010 0.500020 0.653130 1.032900
Zn2   Zn    Zn3+2 0.499990 0.499980 0.346870 1.028431

loop_
_geom_bond_atom_site_label_1
_geom_bond_atom_site_label_2
_ccdc_geom_bond_type
C6    H1    S    
C7    C29   S    
C18   C21   A    
C19   C20   A    
C16   O21   A    
O1    Zn1   S    
C3    C15   S    
H10   O16   S    
O17   Zn1   S    
H17   O3    S    
H8    O13   S    
C12   C23   A    
C12   C28   A    
C17   C26   A    
N2    Zn1   S    
O20   Zn2   S    
C23   C26   A    
O12   Zn2   S    
C19   O11   S    
O18   Zn2   S    
H4    O8    S    
C7    H11   S    
C27   O10   S    
C16   C17   S    
C25   O16   S    
C9    O4    S    
C9    C10   A    
H16   O2    S    
C13   O5    S    
C4    C18   S    
H2    O5    S    
C13   C14   S    
O21   Zn1   S    
C10   N2    A    
C1    O12   A    
C4    O18   A    
C20   H13   S    
C22   O2    S    
C5    C29   A    
C9    N1    A    
C16   O22   A    
C17   C27   A    
C4    O17   A    
C24   O6    D    
C3    C5    A    
H18   O4    S    
C12   C21   A    
C13   C24   S    
C2    C31   A    
C19   C23   A    
C29   C30   A    
C14   O8    S    
N1    Zn2   S    
C30   C31   A    
C28   O13   S    
H9    O14   S    
C31   H14   S    
O22   Zn2   S    
C22   O23   D    
C8    N1    A    
C27   C28   A    
C15   O20   A    
C15   O19   A    
C8    C14   S    
C6    H15   S    
C21   O14   S    
C10   H12   S    
C25   O15   D    
H5    O9    S    
H6    O10   S    
C6    C7    S    
C14   O9    S    
C2    C3    A    
C11   C13   S    
C5    C6    S    
C8    C11   A    
C1    C30   S    
C2    C25   S    
C18   C20   A    
C1    O1    A    
C11   N2    A    
C24   O7    S    
C22   C26   S    
O19   Zn1   S    
H3    O7    S    
C7    O3    S    
H7    O11   S    
