data_mof_unit_23736.cif
_audit_creation_date              2012-12-11T15:29:42-0500
_audit_creation_method            fapswitch 2.2
_symmetry_space_group_name_H-M    P1
_symmetry_Int_Tables_number       1
_space_group_crystal_system       triclinic
_cell_length_a                    13.541022
_cell_length_b                    13.544733
_cell_length_c                    27.633595
_cell_angle_alpha                 90.443017
_cell_angle_beta                  90.054481
_cell_angle_gamma                 59.977087
_cell_volume                      4388.07603593

loop_
_atom_site_label
_atom_site_type_symbol
_atom_type_description
_atom_site_fract_x
_atom_site_fract_y
_atom_site_fract_z
_atom_type_partial_charge
C1    C     C_R   0.620423 0.100916 0.569791 0.550814
C2    C     C_1   0.647512 0.704838 0.657340 0.075407
C3    C     C_3   0.091128 0.125406 0.737205 -0.176212
C4    C     C_R   0.599549 0.779443 0.568306 0.552976
C5    C     C_3   0.186652 0.058010 0.774881 0.201763
C6    C     C_1   0.097702 0.199648 0.900684 0.033278
C7    C     C_1   0.227791 0.138275 0.616418 0.038518
C8    C     C_3   0.053473 0.233929 0.768972 0.202117
C9    C     C_3   0.147160 0.165544 0.806602 0.075040
C10   C     C_3   0.134829 0.262063 0.741698 0.254261
C11   C     C_3   0.174483 0.154314 0.710104 0.009870
C12   C     C_1   0.630288 0.732161 0.615587 0.042307
C13   C     C_3   0.228372 0.193544 0.778748 0.178889
C14   C     C_3   0.268494 0.085751 0.747566 0.219656
C15   C     C_1   0.125341 0.179486 0.858782 0.075771
C16   C     C_R   0.277720 0.121644 0.569213 0.544870
C17   C     C_1   0.198204 0.147303 0.658090 0.056902
C18   C     C_3   0.632499 0.275213 0.737924 0.216194
C19   C     C_3   0.561446 0.256432 0.775896 0.238206
C20   C     C_1   0.693517 0.208692 0.901021 0.021731
C21   C     C_1   0.636789 0.132668 0.617430 0.037386
C22   C     C_3   0.741355 0.207838 0.768609 -0.125571
C23   C     C_3   0.686918 0.560988 0.766661 -0.042764
C24   C     C_3   0.668598 0.187990 0.806515 0.007790
C25   C     C_3   0.761420 0.098224 0.742445 0.234234
C26   C     C_3   0.654633 0.166198 0.711486 0.089126
C27   C     C_3   0.691998 0.076535 0.780805 -0.122682
C28   C     C_R   0.621569 0.099994 0.431555 0.573562
C29   C     C_3   0.582265 0.146480 0.749706 -0.139904
C30   C     C_1   0.678239 0.198841 0.858776 0.012481
C31   C     C_1   0.646613 0.151089 0.659359 0.065344
C32   C     C_R   0.638328 0.718813 0.384041 0.023196
C33   C     C_R   0.741977 0.696932 0.363109 -0.122578
C34   C     C_3   0.681938 0.649502 0.804103 -0.063889
C35   C     C_R   0.763836 0.665427 0.314531 -0.113535
C36   C     C_R   0.681779 0.656647 0.286938 0.074865
C37   C     C_R   0.580316 0.675016 0.308369 -0.055308
C38   C     C_R   0.559873 0.703216 0.356728 -0.120976
C39   C     C_R   0.675439 0.548291 0.216306 0.218814
C40   C     C_R   0.601395 0.777198 0.430564 0.543912
C41   C     C_R   0.676074 0.534818 0.166552 -0.141793
C42   C     C_R   0.728547 0.681215 0.154566 0.234259
C43   C     C_R   0.726392 0.695585 0.204708 -0.099004
C44   C     C_R   0.698200 0.630997 0.235325 -0.000494
C45   C     C_3   0.582954 0.659704 0.741422 0.220175
C46   C     C_R   0.700700 0.601134 0.135532 -0.006099
C47   C     C_R   0.221382 0.143283 0.383581 -0.027229
C48   C     C_R   0.204666 0.059227 0.361434 -0.126741
C49   C     C_R   0.167821 0.070234 0.313628 0.195852
C50   C     C_R   0.156112 0.163379 0.286203 0.065244
C51   C     C_R   0.174835 0.247008 0.307833 0.254621
C52   C     C_R   0.279173 0.120642 0.430776 0.565189
C53   C     C_R   0.196662 0.242628 0.357754 0.225038
C54   C     C_R   0.031224 0.278140 0.219319 0.312883
C55   C     C_R   0.013460 0.299673 0.169970 -0.102033
C56   C     C_3   0.661241 0.682446 0.709197 0.122230
C57   C     C_R   0.179382 0.114249 0.151085 0.231650
C58   C     C_R   0.199503 0.095133 0.200694 -0.106358
C59   C     C_R   0.126208 0.176513 0.234633 0.043152
C60   C     C_R   0.086049 0.218949 0.135837 0.017181
C61   C     C_R   0.639344 0.136555 0.384363 0.066555
C62   C     C_R   0.572618 0.250845 0.369102 0.250286
C63   C     C_R   0.577894 0.277067 0.320427 -0.104780
C64   C     C_3   0.764741 0.587479 0.734948 0.213657
C65   C     C_R   0.648426 0.190655 0.288049 -0.010806
C66   C     C_R   0.715175 0.078382 0.303663 -0.114403
C67   C     C_3   0.575498 0.747168 0.779451 -0.114238
C68   C     C_R   0.711590 0.051673 0.351467 -0.169163
C69   C     C_R   0.771347 0.188973 0.221884 0.240083
C70   C     C_R   0.790599 0.187663 0.172168 0.255919
C71   C     C_R   0.587119 0.259577 0.156668 0.180328
C72   C     C_R   0.570836 0.253885 0.206176 -0.103172
C73   C     C_R   0.662210 0.216507 0.238372 -0.066322
C74   C     C_R   0.698369 0.224709 0.139350 -0.000425
C75   C     C_R   0.049753 0.234900 0.948121 0.540444
C76   C     C_3   0.763580 0.672290 0.772988 -0.093452
C77   C     C_R   0.712274 0.561122 0.946337 0.547429
C78   C     C_3   0.657255 0.766970 0.747357 0.202958
C79   C     C_R   0.722953 0.224506 0.949057 0.542659
C80   C     C_R   0.048266 0.243580 0.085941 0.535503
C81   C     C_R   0.710005 0.569636 0.084831 0.524153
C82   C     C_R   0.722477 0.234473 0.088454 0.554499
C83   C     C_1   0.698707 0.604630 0.898323 0.018516
C84   C     C_1   0.690754 0.629181 0.856202 -0.022168
Cr1   Cr    Cr6+3 0.417550 0.169090 0.500530 1.121660
Cr2   Cr    Cr6+3 0.669180 0.913420 0.499920 1.050846
Cr3   Cr    Cr6+3 0.413260 0.917540 0.499520 1.053305
Cr4   Cr    Cr6+3 0.909770 0.175810 0.018240 1.088612
Cr5   Cr    Cr6+3 0.913300 0.427650 0.016090 1.067181
Cr6   Cr    Cr6+3 0.657770 0.431010 0.016900 1.067641
H1    H     H_    0.838105 0.678129 0.785969 0.140954
H2    H     H_    0.807254 0.230458 0.777250 0.144861
H3    H     H_    0.803457 0.708984 0.383569 0.135599
H4    H     H_    0.892949 0.548759 0.693731 0.348363
H5    H     H_    0.632260 0.433334 0.227737 0.322742
H6    H     H_    0.660730 0.469137 0.151961 0.137341
H7    H     H_    0.842917 0.650565 0.298249 0.128326
H8    H     H_    0.743224 0.759825 0.219751 0.147237
H9    H     H_    0.743413 0.736914 0.091686 0.335392
H10   H     H_    0.514906 0.671024 0.287253 0.159621
H11   H     H_    0.478829 0.720331 0.371678 0.145641
H12   H     H_    0.328161 0.253999 0.773019 0.349921
H13   H     H_    0.220887 0.983852 0.381240 0.172523
H14   H     H_    0.902821 0.426016 0.236772 0.332696
H15   H     H_    0.939507 0.377868 0.158026 0.120387
H16   H     H_    0.623272 0.915360 0.767104 0.312263
H17   H     H_    0.106188 0.012657 0.264136 0.351814
H18   H     H_    0.273540 0.017456 0.212865 0.162856
H19   H     H_    0.233943 0.057762 0.085777 0.330873
H20   H     H_    0.224496 0.356217 0.293784 0.332042
H21   H     H_    0.144220 0.404550 0.364469 0.336768
H22   H     H_    0.462894 0.408833 0.385182 0.326499
H23   H     H_    0.086409 0.419505 0.753173 0.357654
H24   H     H_    0.830224 0.195320 0.285744 0.363676
H25   H     H_    0.956533 0.113303 0.179840 0.362255
H26   H     H_    0.528635 0.364150 0.307897 0.123283
H27   H     H_    0.487257 0.274585 0.219424 0.173489
H28   H     H_    0.497306 0.811887 0.798454 0.149323
H29   H     H_    0.518820 0.277728 0.092780 0.338098
H30   H     H_    0.770519 0.011340 0.278627 0.156972
H31   H     H_    0.761874 0.963219 0.362101 0.143476
H32   H     H_    0.448065 0.650983 0.753042 0.327744
H33   H     H_    0.699801 0.475567 0.775403 0.147233
H34   H     H_    0.897607 0.325796 0.750890 0.366291
H35   H     H_    0.240987 0.899035 0.764225 0.353397
H36   H     H_    0.033573 0.098434 0.720652 0.157660
H37   H     H_    0.423774 0.996960 0.766568 0.337159
H38   H     H_    0.409079 0.379452 0.766073 0.333665
H39   H     H_    0.559971 0.437921 0.739320 0.346955
H40   H     H_    0.516655 0.122745 0.741390 0.160458
H41   H     H_    0.721508 0.994596 0.799725 0.128765
H42   H     H_    0.919027 0.987722 0.751801 0.331761
O1    O     O_R   0.301780 0.195490 0.553940 -0.495911
O2    O     O_R   0.636050 0.541380 0.962520 -0.495442
O3    O     O_R   0.666480 0.323610 0.968170 -0.489035
O4    O     O_R   0.522450 0.158840 0.550250 -0.491113
O5    O     O_R   0.817280 0.156800 0.072180 -0.441571
O6    O     O_R   0.005110 0.187160 0.067410 -0.459755
O7    O     O_R   0.026450 0.340060 0.069950 -0.503791
O8    O     O_R   0.808300 0.527240 0.065170 -0.498779
O9    O     O_R   0.634070 0.548770 0.069460 -0.498725
O10   O     O_R   0.664650 0.330470 0.067300 -0.512662
O11   O     O_3   0.826940 0.344820 0.017080 -0.272972
O12   O     O_R   0.658840 0.818280 0.449970 -0.508043
O13   O     O_R   0.694460 0.003360 0.553820 -0.492026
O14   O     O_R   0.657750 0.819520 0.549120 -0.492469
O15   O     O_R   0.501990 0.803120 0.552700 -0.486568
O16   O     O_R   0.318230 0.023430 0.549370 -0.491522
O17   O     O_R   0.302950 0.194150 0.446980 -0.423036
O18   O     O_R   0.523540 0.157600 0.451100 -0.437269
O19   O     O_R   0.695630 0.002030 0.446860 -0.534189
O20   O     O_3   0.299759 0.227899 0.800224 -0.667679
O21   O     O_3   0.107422 0.369298 0.724205 -0.652457
O22   O     O_3   0.941223 0.314076 0.781131 -0.687023
O23   O     O_R   0.503160 0.801780 0.445740 -0.516806
O24   O     O_3   0.457258 0.341626 0.794648 -0.662739
O25   O     O_3   0.600479 0.377873 0.714489 -0.661397
O26   O     O_3   0.866445 0.014445 0.723788 -0.667196
O27   O     O_3   0.861870 0.505602 0.710435 -0.655776
O28   O     O_3   0.655331 0.480229 0.247088 -0.688165
O29   O     O_3   0.755294 0.748090 0.126173 -0.670803
O30   O     O_3   0.958134 0.355258 0.253381 -0.627894
O31   O     O_3   0.642806 0.873461 0.735925 -0.668644
O32   O     O_3   0.147133 0.987170 0.295249 -0.680889
O33   O     O_3   0.253257 0.030281 0.119428 -0.668030
O34   O     O_R   0.319320 0.022190 0.450230 -0.525104
O35   O     O_3   0.175097 0.329814 0.278876 -0.677778
O36   O     O_3   0.196591 0.332933 0.381459 -0.660763
O37   O     O_3   0.503539 0.334510 0.401966 -0.662247
O38   O     O_3   0.860705 0.162965 0.253290 -0.695234
O39   O     O_3   0.898536 0.154595 0.154646 -0.665252
O40   O     O_3   0.493573 0.294827 0.126901 -0.664184
O41   O     O_3   0.488831 0.654442 0.723904 -0.657067
O42   O     O_3   0.216563 0.950469 0.792866 -0.679275
O43   O     O_3   0.381639 0.007243 0.736019 -0.662839
O44   O     O_3   0.499990 0.000010 0.499990 -0.279600
O45   O     O_R   0.819250 0.149410 0.965240 -0.506039
O46   O     O_R   0.006940 0.180310 0.968270 -0.499412
O47   O     O_R   0.028420 0.332670 0.963010 -0.493100
O48   O     O_R   0.810130 0.520390 0.966030 -0.492647

loop_
_geom_bond_atom_site_label_1
_geom_bond_atom_site_label_2
_ccdc_geom_bond_type
C81   O8    A    
C66   C68   A    
C63   C65   A    
C28   O18   A    
H4    O27   S    
C23   C45   S    
H34   O22   S    
C39   O28   S    
C27   C29   S    
C27   H41   S    
C5    O42   S    
C1    O13   A    
C35   C36   A    
C18   C26   S    
C24   C27   S    
C82   O10   A    
C2    C12   T    
H39   O25   S    
C3    H36   S    
Cr2   O12   S    
C6    C75   S    
C39   C41   A    
C20   C30   T    
C1    C21   S    
Cr3   O44   S    
C21   C31   T    
C37   C38   A    
Cr3   O15   S    
C82   O5    A    
C55   H15   S    
C83   C84   T    
C50   C59   S    
C36   C37   A    
C76   C78   S    
C38   H11   S    
C35   H7    S    
H14   O30   S    
Cr6   O2    S    
C11   C14   S    
C80   O6    A    
Cr3   O34   S    
C57   O33   S    
H35   O42   S    
Cr1   O44   S    
C56   C78   S    
C18   C19   S    
C42   C46   A    
Cr5   O48   S    
C75   O46   A    
C9    C13   S    
Cr1   O18   S    
C49   O32   S    
C52   O34   A    
C6    C15   T    
H9    O29   S    
C51   O35   S    
C60   C80   S    
C47   C48   A    
C45   C56   S    
C52   O17   A    
C7    C17   T    
C22   C25   S    
C72   H27   S    
C70   C74   A    
C41   C46   A    
C43   H8    S    
C40   O23   A    
C69   C73   A    
C32   C38   A    
C4    C12   S    
C1    O4    A    
C75   O47   A    
Cr4   O11   S    
Cr2   O44   S    
Cr6   O11   S    
H29   O40   S    
C47   C53   A    
C28   C61   S    
C23   C34   S    
C81   O9    A    
C78   O31   S    
C66   H30   S    
C13   C14   S    
C19   O24   S    
C61   C62   A    
C67   C78   S    
C34   C84   S    
C74   C82   S    
C16   O1    A    
Cr2   O14   S    
C10   O21   S    
Cr1   O17   S    
C54   C59   A    
H37   O43   S    
Cr4   O5    S    
C42   O29   S    
C77   O48   A    
Cr3   O16   S    
H5    O28   S    
Cr4   O45   S    
H25   O39   S    
C3    C8    S    
C56   C64   S    
C65   C73   S    
C8    C9    S    
C57   C60   A    
C23   H33   S    
C76   H1    S    
Cr5   O7    S    
C25   C26   S    
Cr5   O11   S    
C4    O15   A    
H42   O26   S    
C51   C53   A    
C34   C67   S    
C47   C52   S    
C43   C44   A    
C5    C9    S    
C14   O43   S    
C45   O41   S    
C46   C81   S    
H20   O35   S    
C53   O36   S    
H22   O37   S    
Cr1   O1    S    
Cr5   O8    S    
C4    O14   A    
C62   C63   A    
C79   O45   A    
C50   C51   A    
C64   C76   S    
H16   O31   S    
C54   O30   S    
Cr4   O6    S    
C5    C14   S    
Cr6   O10   S    
H19   O33   S    
C26   C29   S    
C80   O7    A    
C63   H26   S    
C23   C64   S    
C49   C50   A    
C40   O12   A    
C22   C24   S    
C36   C44   S    
C42   C43   A    
C39   C44   A    
C19   C29   S    
Cr2   O13   S    
C8    O22   S    
H24   O38   S    
C62   O37   S    
C54   C55   A    
C11   C17   S    
C22   H2    S    
C20   C79   S    
C18   C22   S    
C7    C16   S    
C13   O20   S    
H23   O21   S    
C72   C73   A    
C3    C5    S    
C10   C13   S    
C33   H3    S    
C68   H31   S    
C71   C74   A    
Cr4   O46   S    
C45   C67   S    
Cr3   O23   S    
C25   C27   S    
H32   O41   S    
C79   O3    A    
C16   O16   A    
C32   C33   A    
C19   C24   S    
C58   C59   A    
C71   C72   A    
C18   O25   S    
C2    C56   S    
Cr2   O19   S    
Cr6   O3    S    
C48   H13   S    
C61   C68   A    
C57   C58   A    
C48   C49   A    
C64   O27   S    
C33   C35   A    
C58   H18   S    
C69   O38   S    
C32   C40   S    
C70   O39   S    
C9    C15   S    
C69   C70   A    
C67   H28   S    
C24   C30   S    
Cr5   O47   S    
Cr6   O9    S    
C3    C11   S    
C10   C11   S    
H38   O24   S    
Cr1   O4    S    
C41   H6    S    
C29   H40   S    
C26   C31   S    
H17   O32   S    
C28   O19   A    
C8    C10   S    
C65   C66   A    
C77   O2    A    
C34   C76   S    
C25   O26   S    
C77   C83   S    
C71   O40   S    
H21   O36   S    
C55   C60   A    
C37   H10   S    
H12   O20   S    
