data_mof_unit_47090.cif
_audit_creation_date              2012-10-26T21:01:03-0400
_audit_creation_method            fapswitch 2.2
_symmetry_space_group_name_H-M    P1
_symmetry_Int_Tables_number       1
_space_group_crystal_system       triclinic
_cell_length_a                    10.920657
_cell_length_b                    10.836848
_cell_length_c                    9.559438
_cell_angle_alpha                 89.643542
_cell_angle_beta                  90.284387
_cell_angle_gamma                 90.598509
_cell_volume                      1131.21927975

loop_
_atom_site_label
_atom_site_type_symbol
_atom_type_description
_atom_site_fract_x
_atom_site_fract_y
_atom_site_fract_z
_atom_type_partial_charge
C1    C     C_R   0.501997 0.262311 0.500255 0.542191
C2    C     C_R   0.437050 0.412838 0.074921 0.033117
C3    C     C_R   0.435709 0.413706 0.926119 0.519292
C4    C     C_R   0.265681 0.502285 0.499392 0.536398
C5    C     C_R   0.548356 0.597524 0.925407 0.006426
C6    C     C_3   0.674421 0.649605 0.914561 -0.192375
C7    C     C_3   0.676805 0.648782 0.073615 0.549674
C8    C     C_R   0.501939 0.737613 0.499580 0.549122
C9    C     C_R   0.734290 0.492721 0.500971 0.575873
C10   C     C_2   0.934174 0.438396 0.401668 0.238982
C11   C     C_2   0.865850 0.477811 0.508198 0.004214
C12   C     C_R   0.513741 0.129219 0.499644 -0.013640
C13   C     C_2   0.068741 0.434517 0.417502 -0.095100
C14   C     C_2   0.133715 0.514417 0.496344 0.215342
C15   C     C_R   0.525388 0.062705 0.624522 0.028292
C16   C     C_R   0.519562 0.065290 0.372170 -0.141579
C17   C     C_R   0.519356 0.936681 0.371657 -0.112958
C18   C     C_R   0.513435 0.870767 0.498561 0.009562
C19   C     C_R   0.524019 0.935405 0.623862 -0.033770
C20   C     C_3   0.449076 0.925568 0.753918 -0.248336
C21   C     C_3   0.450562 0.065965 0.755580 0.147379
C22   C     C_R   0.548698 0.597666 0.072422 0.212987
Cu1   Cu    Cu3+1 0.499990 0.499980 0.640670 1.039032
Cu2   Cu    Cu3+1 0.500010 0.500020 0.359330 1.050899
F1    F     F_    0.368045 0.327830 0.857558 -0.604648
F2    F     F_    0.684817 0.765287 0.132027 -0.642641
H1    H     H_    0.387681 0.341172 0.130973 0.139955
H2    H     H_    0.358903 0.107853 0.740615 0.200435
H3    H     H_    0.943013 0.367752 0.216233 0.328765
H4    H     H_    0.598921 0.080235 0.872430 0.338058
H5    H     H_    0.843485 0.608262 0.118467 0.346309
H6    H     H_    0.144015 0.662871 0.608949 0.330807
H7    H     H_    0.739739 0.584341 0.866762 0.144266
H8    H     H_    0.675461 0.743859 0.868231 0.132258
H9    H     H_    0.906710 0.493131 0.610380 0.127350
H10   H     H_    0.116744 0.364357 0.358830 0.081287
H11   H     H_    0.517964 0.113844 0.272798 0.170072
H12   H     H_    0.517166 0.889625 0.272114 0.199377
H13   H     H_    0.356473 0.885486 0.734205 0.117601
H14   H     H_    0.500067 0.882337 0.841992 0.160896
N1    N     N_R   0.500780 0.500930 0.147930 -0.275457
N2    N     N_R   0.500780 0.500890 0.852020 -0.236192
O1    O     O_R   0.500000 0.319640 0.618810 -0.425920
O2    O     O_3   0.515269 0.115446 0.870463 -0.634837
O3    O     O_3   0.762626 0.566542 0.128070 -0.608486
O4    O     O_3   0.079301 0.613010 0.562046 -0.727237
O5    O     O_R   0.500010 0.319680 0.381230 -0.524575
O6    O     O_R   0.321940 0.499980 0.618760 -0.467045
O7    O     O_R   0.321950 0.500020 0.381180 -0.532956
O8    O     O_R   0.499990 0.680320 0.618770 -0.520216
O9    O     O_R   0.500000 0.680360 0.381190 -0.484513
O10   O     O_R   0.678050 0.499980 0.618820 -0.542580
O11   O     O_R   0.678060 0.500020 0.381240 -0.374345
O12   O     O_3   0.878369 0.391565 0.283042 -0.636815

loop_
_geom_bond_atom_site_label_1
_geom_bond_atom_site_label_2
_ccdc_geom_bond_type
C5    N2    A    
C6    H7    S    
C3    N2    A    
C6    C7    S    
C21   O2    S    
C9    C11   S    
C16   H11   S    
C19   C20   S    
C12   C15   A    
C3    F1    S    
C4    O7    A    
Cu1   Cu2   S    
C6    H8    S    
Cu2   O9    S    
C11   H9    S    
C2    C3    A    
C14   O4    S    
C13   C14   D    
C15   C19   A    
Cu2   N1    S    
Cu1   N2    S    
C8    O9    A    
H4    O2    S    
Cu1   O10   S    
C2    H1    S    
C9    O10   A    
C7    F2    S    
C10   O12   S    
C7    O3    S    
C21   H2    S    
C17   C18   A    
C17   H12   S    
C4    C14   S    
C5    C6    S    
C20   H14   S    
C8    C18   S    
C22   N1    A    
C9    O11   A    
H3    O12   S    
C2    N1    A    
H5    O3    S    
C7    C22   S    
C8    O8    A    
C15   C21   S    
Cu1   O1    S    
C20   C21   S    
C13   H10   S    
C4    O6    A    
C18   C19   A    
C10   C11   D    
Cu2   O7    S    
C20   H13   S    
C1    O5    A    
Cu1   O8    S    
Cu1   O6    S    
Cu2   O11   S    
Cu2   O5    S    
H6    O4    S    
C1    O1    A    
C1    C12   S    
C5    C22   A    
C12   C16   A    
C16   C17   A    
C10   C13   S    
