data_mof_unit_6172.cif
_audit_creation_date              2012-12-10T17:58:21-0500
_audit_creation_method            fapswitch 2.2
_symmetry_space_group_name_H-M    P1
_symmetry_Int_Tables_number       1
_space_group_crystal_system       triclinic
_cell_length_a                    9.623368
_cell_length_b                    10.788088
_cell_length_c                    15.525023
_cell_angle_alpha                 87.224486
_cell_angle_beta                  73.724679
_cell_angle_gamma                 89.950169
_cell_volume                      1545.23222441

loop_
_atom_site_label
_atom_site_type_symbol
_atom_type_description
_atom_site_fract_x
_atom_site_fract_y
_atom_site_fract_z
_atom_type_partial_charge
C1    C     C_R   0.999717 0.262502 0.500529 0.978490
C2    C     C_R   0.000298 0.737268 0.499296 0.957256
C3    C     C_R   0.595816 0.538431 0.099734 -0.097913
C4    C     C_R   0.444728 0.646136 0.917792 -0.114082
C5    C     C_R   0.742387 0.532976 0.053295 -0.197076
C6    C     C_R   0.301869 0.667920 0.964664 -0.191271
C7    C     C_R   0.945456 0.069493 0.437435 0.270196
C8    C     C_R   0.046173 0.929219 0.565737 0.262413
C9    C     C_R   0.953517 0.939416 0.433805 0.273917
C10   C     C_R   0.052590 0.059738 0.563479 0.265401
C11   C     C_R   0.000155 0.871174 0.499488 -0.160557
C12   C     C_R   0.999423 0.128154 0.500464 -0.161000
C13   C     C_R   0.552057 0.411282 0.548851 0.478992
C14   C     C_R   0.448640 0.585847 0.448496 0.444110
C15   C     C_R   0.404476 0.412351 0.550377 0.367699
C16   C     C_R   0.595459 0.587373 0.449163 0.354413
C17   C     C_R   0.916710 0.501318 0.672572 0.843718
C18   C     C_R   0.082774 0.502340 0.327966 0.862448
C19   C     C_R   0.868974 0.512107 0.771696 -0.107916
C20   C     C_R   0.132036 0.526150 0.230109 -0.083041
C21   C     C_R   0.931538 0.519526 0.912762 -0.180249
C22   C     C_R   0.100660 0.638459 0.098249 -0.200781
C23   C     C_R   0.973148 0.512605 0.819574 -0.202683
C24   C     C_R   0.044871 0.594433 0.186963 -0.228032
C25   C     C_R   0.720610 0.525219 0.819365 0.313056
C26   C     C_R   0.275734 0.499228 0.182729 0.321517
C27   C     C_R   0.681315 0.550774 0.911521 0.009721
C28   C     C_R   0.339135 0.558703 0.097494 0.022732
C29   C     C_R   0.785864 0.535239 0.959354 0.101468
C30   C     C_R   0.246840 0.621687 0.053282 0.107912
C31   C     C_R   0.537789 0.581365 0.959417 0.084110
C32   C     C_R   0.489984 0.555269 0.053179 0.081213
Cu1   Cu    Cu3+1 0.140660 0.500020 0.500000 1.066052
Cu2   Cu    Cu3+1 0.859340 0.499980 0.500000 1.063366
H1    H     H_    0.821045 0.521899 0.091054 0.158246
H2    H     H_    0.233361 0.718437 0.930743 0.156723
H3    H     H_    0.934294 0.616008 0.222343 0.184835
H4    H     H_    0.087003 0.502562 0.785417 0.198557
H5    H     H_    0.013368 0.511849 0.948458 0.163866
H6    H     H_    0.030589 0.689226 0.065637 0.155627
H7    H     H_    0.567471 0.537297 0.172232 0.207937
H8    H     H_    0.483706 0.685026 0.849655 0.188098
N1    N     N_R   0.352080 0.500030 0.499980 -0.311699
N2    N     N_R   0.647920 0.499970 0.500020 -0.316351
O1    O     O_R   0.118740 0.319660 0.500000 -0.561487
O2    O     O_R   0.881260 0.680340 0.500000 -0.578846
O3    O     O_R   0.881170 0.319630 0.500010 -0.516026
O4    O     O_R   0.118830 0.680370 0.499990 -0.515974
O5    O     O_R   0.055570 0.500030 0.629830 -0.624464
O6    O     O_R   0.944430 0.499970 0.370170 -0.623309
O7    O     O_R   0.818000 0.500000 0.629840 -0.505537
O8    O     O_R   0.182000 0.500000 0.370160 -0.513800
Cl1   Cl    Cl    0.360465 0.371041 0.222538 -0.576534
Cl2   Cl    Cl    0.581343 0.479078 0.772597 -0.555841
O9    O     O_3   0.889010 0.141574 0.379603 -0.692905
H9    H     H_    0.814872 0.092134 0.362735 0.360216
O10   O     O_3   0.079763 0.855976 0.632552 -0.713262
H10   H     H_    0.060521 0.902954 0.687821 0.341199
O11   O     O_3   0.921602 0.876716 0.365994 -0.704506
H11   H     H_    0.938820 0.932953 0.311623 0.351247
O12   O     O_3   0.105555 0.122640 0.623185 -0.698347
H12   H     H_    0.180553 0.071494 0.639748 0.371931
Cl3   Cl    Cl    0.606464 0.291509 0.613067 -0.429797
Cl4   Cl    Cl    0.396284 0.693500 0.374822 -0.502851
O13   O     O_3   0.317912 0.320057 0.602669 -0.636505
H13   H     H_    0.217859 0.348210 0.619309 0.389782
O14   O     O_3   0.681637 0.680016 0.396901 -0.640097
H14   H     H_    0.782287 0.653564 0.382083 0.384279

loop_
_geom_bond_atom_site_label_1
_geom_bond_atom_site_label_2
_ccdc_geom_bond_type
C19   C23   A    
O9    H9    S    
Cu2   O2    S    
C8    O10   S    
C27   C29   A    
C23   H4    S    
Cu1   O1    S    
C16   N2    A    
C18   C20   S    
C31   C32   A    
C21   H5    S    
C18   O6    A    
C7    O9    S    
C4    C31   A    
C3    C5    A    
C14   Cl4   S    
C17   O7    A    
C28   C30   A    
Cu1   Cu2   S    
Cu2   O7    S    
C18   O8    A    
O11   H11   S    
C20   C26   A    
C16   O14   S    
C2    O2    A    
Cu1   O8    S    
C9    C11   A    
C1    O1    A    
O10   H10   S    
C7    C12   A    
C1    C12   S    
C4    H8    S    
C8    C11   A    
C2    C11   S    
C10   C12   A    
C22   C24   A    
C4    C6    A    
C26   C28   A    
C17   C19   S    
C6    H2    S    
C24   H3    S    
C5    C29   A    
C13   C15   A    
C21   C23   A    
C3    C32   A    
C19   C25   A    
C14   C16   A    
Cu2   O6    S    
C10   O12   S    
C25   C27   A    
O12   H12   S    
C15   N1    A    
O14   H14   S    
C15   O13   S    
C26   Cl1   S    
C5    H1    S    
C28   C32   A    
Cu2   N2    S    
C25   Cl2   S    
C27   C31   A    
C8    C10   A    
O13   H13   S    
Cu1   O5    S    
C17   O5    A    
C7    C9    A    
Cu1   O4    S    
C22   H6    S    
C1    O3    A    
Cu2   O3    S    
C22   C30   A    
C2    O4    A    
Cu1   N1    S    
C21   C29   A    
C6    C30   A    
C13   N2    A    
C3    H7    S    
C20   C24   A    
C14   N1    A    
C9    O11   S    
C13   Cl3   S    
