data_mof_unit_18749.cif
_audit_creation_date              2013-03-05T15:48:14-0500
_audit_creation_method            fapswitch 2.2
_symmetry_space_group_name_H-M    P1
_symmetry_Int_Tables_number       1
_space_group_crystal_system       triclinic
_cell_length_a                    15.761923
_cell_length_b                    15.761919
_cell_length_c                    34.420506
_cell_angle_alpha                 89.999972
_cell_angle_beta                  90.0
_cell_angle_gamma                 120.000232
_cell_volume                      7405.68370881

loop_
_atom_site_label
_atom_site_type_symbol
_atom_site_description
_atom_site_fract_x
_atom_site_fract_y
_atom_site_fract_z
_atom_type_partial_charge
O1    O     O_R   0.498680 0.159540 0.541860 -0.505374
O2    O     O_R   0.840460 0.339140 0.541860 -0.505374
O3    O     O_R   0.660860 0.501320 0.541860 -0.505375
O4    O     O_R   0.159540 0.498680 0.041860 -0.505374
O5    O     O_R   0.339140 0.840460 0.041860 -0.505373
O6    O     O_R   0.501320 0.660860 0.041860 -0.505373
O7    O     O_R   0.532760 0.358060 0.540030 -0.507797
O8    O     O_R   0.641940 0.174700 0.540030 -0.507797
O9    O     O_R   0.825300 0.467240 0.540030 -0.507797
O10   O     O_R   0.358060 0.532760 0.040030 -0.507797
O11   O     O_R   0.174700 0.641940 0.040030 -0.507797
O12   O     O_R   0.467240 0.825300 0.040030 -0.507797
C1    C     C_R   0.578718 0.441398 0.555084 0.558472
C2    C     C_R   0.558601 0.137320 0.555084 0.558472
C3    C     C_R   0.862680 0.421282 0.555084 0.558473
C4    C     C_R   0.441398 0.578718 0.055084 0.558474
C5    C     C_R   0.137320 0.558601 0.055084 0.558474
C6    C     C_R   0.421282 0.862680 0.055084 0.558473
O13   O     O_R   0.498590 0.161190 0.456930 -0.449086
O14   O     O_R   0.838810 0.337400 0.456930 -0.449086
O15   O     O_R   0.662600 0.501410 0.456930 -0.449086
O16   O     O_R   0.161190 0.498590 0.956930 -0.449087
O17   O     O_R   0.337400 0.838810 0.956930 -0.449086
O18   O     O_R   0.501410 0.662600 0.956930 -0.449087
O19   O     O_R   0.532680 0.359580 0.461300 -0.512517
O20   O     O_R   0.640420 0.173100 0.461300 -0.512517
O21   O     O_R   0.826900 0.467320 0.461300 -0.512517
O22   O     O_R   0.359580 0.532680 0.961300 -0.512518
O23   O     O_R   0.173100 0.640420 0.961300 -0.512518
O24   O     O_R   0.467320 0.826900 0.961300 -0.512518
C7    C     C_R   0.577318 0.442717 0.445826 0.579584
C8    C     C_R   0.557282 0.134601 0.445826 0.579584
C9    C     C_R   0.865399 0.422682 0.445826 0.579586
C10   C     C_R   0.442717 0.577318 0.945826 0.579588
C11   C     C_R   0.134601 0.557282 0.945826 0.579587
C12   C     C_R   0.422682 0.865399 0.945826 0.579587
Cr1   Cr    Cr6+3 0.522350 0.263930 0.500020 1.089250
Cr2   Cr    Cr6+3 0.736070 0.258420 0.500020 1.089250
Cr3   Cr    Cr6+3 0.741580 0.477650 0.500020 1.089251
Cr4   Cr    Cr6+3 0.263930 0.522350 0.000020 1.089250
Cr5   Cr    Cr6+3 0.258420 0.736070 0.000020 1.089250
Cr6   Cr    Cr6+3 0.477650 0.741580 0.000020 1.089250
O25   O     O_3   0.666667 0.333333 0.499990 -0.278612
O26   O     O_3   0.333333 0.666667 0.999990 -0.278612
N1    N     N_R   0.943912 0.422279 0.774046 -0.199545
N2    N     N_R   0.577720 0.521633 0.774046 -0.199545
N3    N     N_R   0.478368 0.056088 0.774046 -0.199545
N4    N     N_R   0.422279 0.943913 0.274046 -0.199545
N5    N     N_R   0.521633 0.577720 0.274046 -0.199544
N6    N     N_R   0.056089 0.478368 0.274046 -0.199544
N7    N     N_R   0.939079 0.415916 0.735540 -0.199983
N8    N     N_R   0.584083 0.523163 0.735540 -0.199983
N9    N     N_R   0.476838 0.060921 0.735540 -0.199983
N10   N     N_R   0.415917 0.939080 0.235540 -0.199984
N11   N     N_R   0.523164 0.584083 0.235540 -0.199984
N12   N     N_R   0.060921 0.476838 0.235541 -0.199983
C13   C     C_R   0.915028 0.453350 0.592330 0.025699
C14   C     C_R   0.546650 0.461678 0.592330 0.025700
C15   C     C_R   0.538321 0.084972 0.592330 0.025699
C16   C     C_R   0.453350 0.915028 0.092330 0.025700
C17   C     C_R   0.461678 0.546650 0.092330 0.025700
C18   C     C_R   0.084972 0.538321 0.092330 0.025700
C19   C     C_R   0.934089 0.388548 0.613520 -0.115363
C20   C     C_R   0.611452 0.545541 0.613520 -0.115364
C21   C     C_R   0.454459 0.065911 0.613520 -0.115364
C22   C     C_R   0.388549 0.934090 0.113520 -0.115363
C23   C     C_R   0.545541 0.611451 0.113520 -0.115363
C24   C     C_R   0.065911 0.454459 0.113520 -0.115363
C25   C     C_R   0.959499 0.405995 0.652574 -0.107644
C26   C     C_R   0.594005 0.553504 0.652574 -0.107644
C27   C     C_R   0.446496 0.040501 0.652574 -0.107644
C28   C     C_R   0.405996 0.959500 0.152574 -0.107644
C29   C     C_R   0.553504 0.594004 0.152574 -0.107644
C30   C     C_R   0.040501 0.446496 0.152575 -0.107644
C31   C     C_R   0.968008 0.489319 0.670896 0.036270
C32   C     C_R   0.510681 0.478689 0.670896 0.036270
C33   C     C_R   0.521311 0.031992 0.670896 0.036270
C34   C     C_R   0.489320 0.968008 0.170896 0.036270
C35   C     C_R   0.478688 0.510680 0.170896 0.036270
C36   C     C_R   0.031992 0.521311 0.170896 0.036270
C37   C     C_R   0.958506 0.559051 0.648889 -0.106457
C38   C     C_R   0.440949 0.399455 0.648888 -0.106457
C39   C     C_R   0.600544 0.041494 0.648888 -0.106457
C40   C     C_R   0.559051 0.958505 0.148889 -0.106457
C41   C     C_R   0.399454 0.440949 0.148889 -0.106458
C42   C     C_R   0.041494 0.600544 0.148889 -0.106457
C43   C     C_R   0.931501 0.540861 0.609827 -0.122035
C44   C     C_R   0.459139 0.390640 0.609827 -0.122035
C45   C     C_R   0.609359 0.068498 0.609827 -0.122035
C46   C     C_R   0.540861 0.931501 0.109827 -0.122035
C47   C     C_R   0.390639 0.459139 0.109827 -0.122035
C48   C     C_R   0.068499 0.609359 0.109827 -0.122035
N13   N     N_R   0.019603 0.586578 0.731014 -0.199464
N14   N     N_R   0.413421 0.433024 0.731014 -0.199464
N15   N     N_R   0.566975 0.980397 0.731014 -0.199464
N16   N     N_R   0.586578 0.019602 0.231014 -0.199464
N17   N     N_R   0.433022 0.413421 0.231014 -0.199464
N18   N     N_R   0.980398 0.566975 0.231014 -0.199464
N19   N     N_R   0.025288 0.592837 0.769583 -0.132795
N20   N     N_R   0.407162 0.432450 0.769583 -0.132795
N21   N     N_R   0.567549 0.974712 0.769583 -0.132795
N22   N     N_R   0.592837 0.025287 0.269583 -0.132796
N23   N     N_R   0.432448 0.407163 0.269583 -0.132796
N24   N     N_R   0.974713 0.567550 0.269583 -0.132796
C49   C     C_R   0.986614 0.510828 0.791940 0.372068
C50   C     C_R   0.489172 0.475786 0.791940 0.372068
C51   C     C_R   0.524215 0.013387 0.791940 0.372068
C52   C     C_R   0.510827 0.986613 0.291940 0.372069
C53   C     C_R   0.475785 0.489173 0.291940 0.372070
C54   C     C_R   0.013387 0.524215 0.291940 0.372068
C55   C     C_R   0.977119 0.497873 0.713316 0.336692
C56   C     C_R   0.502127 0.479246 0.713316 0.336692
C57   C     C_R   0.520754 0.022881 0.713316 0.336692
C58   C     C_R   0.497873 0.977119 0.213316 0.336692
C59   C     C_R   0.479245 0.502127 0.213316 0.336692
C60   C     C_R   0.022882 0.520754 0.213316 0.336692
C61   C     C_R   0.994395 0.436072 0.854249 -0.114931
C62   C     C_R   0.563927 0.558322 0.854249 -0.114931
C63   C     C_R   0.441678 0.005606 0.854249 -0.114931
C64   C     C_R   0.436073 0.994398 0.354249 -0.114933
C65   C     C_R   0.558328 0.563927 0.354248 -0.114931
C66   C     C_R   0.005605 0.441678 0.354249 -0.114931
C67   C     C_R   0.027586 0.443876 0.892470 0.194136
C68   C     C_R   0.556123 0.583710 0.892470 0.194137
C69   C     C_R   0.416291 0.972414 0.892470 0.194137
C70   C     C_R   0.443876 0.027590 0.392470 0.194136
C71   C     C_R   0.583716 0.556123 0.392469 0.194136
C72   C     C_R   0.972413 0.416290 0.392470 0.194136
C73   C     C_R   0.069257 0.614599 0.892810 -0.136743
C74   C     C_R   0.385400 0.454657 0.892810 -0.136744
C75   C     C_R   0.545342 0.930743 0.892809 -0.136744
C76   C     C_R   0.614598 0.069254 0.392810 -0.136744
C77   C     C_R   0.454655 0.385403 0.392810 -0.136742
C78   C     C_R   0.930744 0.545343 0.392810 -0.136743
C79   C     C_R   0.031504 0.605391 0.855288 0.196531
C80   C     C_R   0.394608 0.426113 0.855288 0.196531
C81   C     C_R   0.573887 0.968495 0.855288 0.196531
C82   C     C_R   0.605389 0.031501 0.355289 0.196531
C83   C     C_R   0.426110 0.394611 0.355289 0.196531
C84   C     C_R   0.968497 0.573888 0.355288 0.196530
C85   C     C_R   0.000972 0.517311 0.834566 -0.024744
C86   C     C_R   0.482689 0.483662 0.834566 -0.024744
C87   C     C_R   0.516339 0.999028 0.834566 -0.024744
C88   C     C_R   0.517310 0.000972 0.334566 -0.024743
C89   C     C_R   0.483662 0.482690 0.334566 -0.024743
C90   C     C_R   0.999028 0.516339 0.334566 -0.024744
C91   C     C_R   0.072828 0.536460 0.910854 -0.036053
C92   C     C_R   0.463539 0.536367 0.910854 -0.036053
C93   C     C_R   0.463633 0.927172 0.910854 -0.036053
C94   C     C_R   0.536460 0.072828 0.410854 -0.036054
C95   C     C_R   0.536368 0.463540 0.410854 -0.036055
C96   C     C_R   0.927172 0.463633 0.410854 -0.036054
H1    H     H_    0.922709 0.320830 0.600749 0.147768
H2    H     H_    0.679171 0.601879 0.600749 0.147767
H3    H     H_    0.398121 0.077292 0.600749 0.147767
H4    H     H_    0.320831 0.922709 0.100749 0.147768
H5    H     H_    0.601879 0.679169 0.100749 0.147768
H6    H     H_    0.077292 0.398121 0.100749 0.147767
H7    H     H_    0.968303 0.352101 0.668877 0.151695
H8    H     H_    0.647899 0.616202 0.668877 0.151695
H9    H     H_    0.383798 0.031698 0.668877 0.151695
H10   H     H_    0.352102 0.968304 0.168877 0.151695
H11   H     H_    0.616202 0.647898 0.168877 0.151695
H12   H     H_    0.031698 0.383799 0.168877 0.151695
H13   H     H_    0.965297 0.624163 0.662458 0.151472
H14   H     H_    0.375837 0.341133 0.662458 0.151472
H15   H     H_    0.658865 0.034703 0.662458 0.151472
H16   H     H_    0.624163 0.965296 0.162458 0.151472
H17   H     H_    0.341132 0.375837 0.162458 0.151472
H18   H     H_    0.034703 0.658866 0.162458 0.151472
H19   H     H_    0.966001 0.366393 0.839500 0.204263
H20   H     H_    0.633606 0.599607 0.839500 0.204263
H21   H     H_    0.400394 0.034000 0.839500 0.204263
H22   H     H_    0.366394 0.966006 0.339499 0.204261
H23   H     H_    0.599616 0.633605 0.339499 0.204261
H24   H     H_    0.033998 0.400392 0.339500 0.204263
H25   H     H_    0.098592 0.684465 0.907520 0.193387
H26   H     H_    0.315534 0.414126 0.907520 0.193387
H27   H     H_    0.585873 0.901407 0.907520 0.193387
H28   H     H_    0.684463 0.098587 0.407521 0.193387
H29   H     H_    0.414121 0.315538 0.407522 0.193388
H30   H     H_    0.901410 0.585875 0.407520 0.193390
H31   H     H_    0.917677 0.592216 0.594073 0.138770
H32   H     H_    0.407783 0.325460 0.594073 0.138770
H33   H     H_    0.674539 0.082323 0.594072 0.138770
H34   H     H_    0.592216 0.917676 0.094073 0.138771
H35   H     H_    0.325459 0.407784 0.094073 0.138770
H36   H     H_    0.082323 0.674539 0.094072 0.138771
N25   N     N_R   0.015631 0.357769 0.911829 0.106843
O27   O     O_R   0.022348 0.290629 0.892328 -0.240989
O28   O     O_R   0.982492 0.338872 0.947266 -0.284181
N26   N     N_R   0.642230 0.657862 0.911829 0.106843
O29   O     O_R   0.709371 0.731719 0.892328 -0.240989
O30   O     O_R   0.661127 0.643619 0.947266 -0.284181
N27   N     N_R   0.342139 0.984369 0.911829 0.106843
O31   O     O_R   0.356382 0.017509 0.947266 -0.284181
O32   O     O_R   0.268282 0.977653 0.892328 -0.240990
N28   N     N_R   0.357771 0.015640 0.411827 0.106842
O33   O     O_R   0.290639 0.022371 0.392326 -0.240988
O34   O     O_R   0.338867 0.982494 0.447263 -0.284179
N29   N     N_R   0.657875 0.642228 0.411826 0.106841
O35   O     O_R   0.731743 0.709354 0.392325 -0.240985
O36   O     O_R   0.643633 0.661137 0.447261 -0.284178
N30   N     N_R   0.984366 0.342137 0.411828 0.106843
O37   O     O_R   0.977645 0.268278 0.392327 -0.240989
O38   O     O_R   0.017508 0.356379 0.447265 -0.284181
N31   N     N_R   0.024631 0.685613 0.838914 0.109049
O39   O     O_R   0.944926 0.669119 0.821133 -0.252908
O40   O     O_R   0.090518 0.775517 0.847075 -0.250474
N32   N     N_R   0.314385 0.339018 0.838914 0.109049
O41   O     O_R   0.330879 0.275807 0.821133 -0.252907
O42   O     O_R   0.224482 0.315000 0.847075 -0.250473
N33   N     N_R   0.660982 0.975368 0.838914 0.109049
O43   O     O_R   0.724193 0.055074 0.821132 -0.252907
O44   O     O_R   0.684999 0.909482 0.847075 -0.250474
N34   N     N_R   0.685610 0.024625 0.338915 0.109048
O45   O     O_R   0.669113 0.944920 0.321133 -0.252911
O46   O     O_R   0.775515 0.090509 0.347077 -0.250470
N35   N     N_R   0.339012 0.314391 0.338916 0.109048
O47   O     O_R   0.275805 0.330890 0.321133 -0.252910
O48   O     O_R   0.314988 0.224486 0.347078 -0.250464
N36   N     N_R   0.975371 0.660984 0.338914 0.109048
O49   O     O_R   0.055077 0.724194 0.321133 -0.252910
O50   O     O_R   0.909486 0.685002 0.347075 -0.250463

loop_
_geom_bond_atom_site_label_1
_geom_bond_atom_site_label_2
_geom_bond_distance
_ccdc_geom_bond_type
O19   C7    1.254555 A    
O7    C1    1.251869 A    
C30   H12   1.083332 S    
O20   C8    1.254558 A    
C35   C59   1.466751 S    
C63   C87   1.405924 A    
N29   O35   1.301433 A    
C24   C30   1.390302 A    
C77   C95   1.405398 A    
C68   N26   1.437278 S    
C41   C47   1.396096 A    
C65   H23   1.082909 S    
N33   O43   1.301495 A    
O21   C9    1.254558 A    
N4    N10   1.328494 A    
O16   C11   1.251107 A    
C68   C92   1.413451 A    
C82   N34   1.437078 S    
N11   C59   1.356049 A    
C40   C46   1.396095 A    
C40   H16   1.083070 S    
N5    C53   1.356807 A    
C64   C88   1.405922 A    
C47   H35   1.083114 S    
N34   O46   1.301467 A    
C65   C71   1.398303 A    
N16   N22   1.330927 A    
O8    Cr2   1.970107 S    
C78   C84   1.398851 A    
C66   H24   1.082907 S    
C12   C93   1.478229 S    
C44   H32   1.083113 S    
C83   C89   1.414099 A    
N1    N7    1.328491 A    
C76   C82   1.398853 A    
O17   C12   1.251108 A    
C20   H2    1.083159 S    
C78   C96   1.405399 A    
N6    C54   1.356810 A    
C7    C95   1.478232 S    
O10   Cr4   1.970110 S    
C15   C45   1.405190 A    
N25   O28   1.301460 A    
C17   C23   1.404407 A    
C36   C42   1.403175 A    
C74   H26   1.083370 S    
C71   C95   1.413451 A    
C73   C79   1.398850 A    
C10   C92   1.478229 S    
C72   C96   1.413451 A    
O9    Cr3   1.970111 S    
C22   C28   1.390304 A    
C19   C25   1.390300 A    
N1    C49   1.356808 A    
C18   C48   1.405189 A    
C3    C13   1.470658 S    
N15   N21   1.330928 A    
O12   Cr6   1.970112 S    
C50   C86   1.480260 S    
N28   O33   1.301432 A    
C23   C29   1.390300 A    
C20   C26   1.390300 A    
C67   N25   1.437279 S    
O13   Cr1   2.087102 S    
N13   N19   1.330927 A    
C26   H8    1.083333 S    
O3    C1    1.246065 A    
C70   C94   1.413449 A    
O1    Cr1   2.075252 S    
N3    N9    1.328491 A    
C81   N33   1.437079 S    
C70   N28   1.437276 S    
C66   C90   1.405924 A    
C81   C87   1.414100 A    
C16   C22   1.404407 A    
C30   C36   1.401580 A    
C28   C34   1.401579 A    
C66   C72   1.398308 A    
C31   C55   1.466752 S    
N29   O36   1.301463 A    
N16   C58   1.355774 A    
C34   C58   1.466752 S    
Cr6   O26   1.970428 S    
C78   H30   1.083371 S    
C24   H6    1.083158 S    
O13   C8    1.251107 A    
N15   C57   1.355774 A    
O8    C2    1.251871 A    
C63   H21   1.082906 S    
N13   C55   1.355774 A    
N9    C57   1.356049 A    
C13   C19   1.404408 A    
N33   O44   1.301467 A    
C14   C20   1.404409 A    
C39   C45   1.396099 A    
C53   C89   1.480260 S    
N22   C52   1.358934 A    
C79   C85   1.414098 A    
O21   Cr3   1.957096 S    
N31   O39   1.301494 A    
C36   C60   1.466752 S    
N34   O45   1.301495 A    
C19   H1    1.083159 S    
C84   C90   1.414098 A    
N35   O47   1.301495 A    
O3    Cr3   2.075255 S    
C75   H27   1.083371 S    
C31   C37   1.403173 A    
N12   C60   1.356049 A    
C62   C68   1.398309 A    
O5    C6    1.246068 A    
C46   H34   1.083114 S    
N5    N11   1.328490 A    
C73   H25   1.083372 S    
C33   C39   1.403171 A    
C41   H17   1.083070 S    
C13   C43   1.405189 A    
O7    Cr1   1.970110 S    
N26   O30   1.301459 A    
Cr1   O25   1.970431 S    
C61   C85   1.405925 A    
O22   Cr4   1.957096 S    
C72   N30   1.437278 S    
C75   C81   1.398849 A    
C37   H13   1.083070 S    
C5    C18   1.470657 S    
N35   O48   1.301467 A    
O14   Cr2   2.087097 S    
N14   N20   1.330928 A    
C61   H19   1.082907 S    
N18   C60   1.355774 A    
O15   Cr3   2.087102 S    
C69   N27   1.437279 S    
C62   H20   1.082906 S    
C32   C56   1.466752 S    
O16   Cr4   2.087101 S    
O15   C7    1.251104 A    
C29   C35   1.401581 A    
C21   C27   1.390300 A    
C23   H5    1.083158 S    
C11   C91   1.478230 S    
N36   O50   1.301467 A    
O2    C3    1.246067 A    
C71   N29   1.437275 S    
N17   N23   1.330927 A    
C80   C86   1.414098 A    
C76   H28   1.083369 S    
C74   C92   1.405398 A    
C80   N32   1.437077 S    
O4    C5    1.246066 A    
C63   C69   1.398306 A    
C77   H29   1.083370 S    
C33   C57   1.466752 S    
C52   C88   1.480260 S    
N30   O38   1.301461 A    
C77   C83   1.398854 A    
N32   O42   1.301467 A    
C26   C32   1.401581 A    
C76   C94   1.405399 A    
Cr5   O26   1.970436 S    
C65   C89   1.405923 A    
C75   C93   1.405399 A    
N17   C59   1.355776 A    
C4    C17   1.470656 S    
O14   C9    1.251107 A    
C32   C38   1.403174 A    
C42   C48   1.396095 A    
C27   C33   1.401580 A    
C79   N31   1.437078 S    
C38   H14   1.083071 S    
C6    C16   1.470655 S    
O5    Cr5   2.075250 S    
O11   C5    1.251869 A    
C43   H31   1.083116 S    
N7    C55   1.356050 A    
C27   H9    1.083332 S    
O23   Cr5   1.957094 S    
C42   H18   1.083070 S    
C45   H33   1.083114 S    
C74   C80   1.398853 A    
C67   C91   1.413452 A    
C62   C86   1.405924 A    
C9    C96   1.478230 S    
C14   C44   1.405190 A    
Cr3   O25   1.970429 S    
C64   H22   1.082907 S    
C48   H36   1.083116 S    
C1    C14   1.470655 S    
C16   C46   1.405191 A    
N20   C50   1.358935 A    
O23   C11   1.254556 A    
N3    C51   1.356808 A    
C28   H10   1.083329 S    
O17   Cr5   2.087097 S    
O24   C12   1.254556 A    
N23   C53   1.358934 A    
O4    Cr4   2.075253 S    
O20   Cr2   1.957093 S    
O2    Cr2   2.075250 S    
C49   C85   1.480259 S    
C61   C67   1.398306 A    
Cr2   O25   1.970436 S    
C21   H3    1.083158 S    
O10   C4    1.251869 A    
N26   O29   1.301428 A    
N2    N8    1.328491 A    
N24   C54   1.358934 A    
C37   C43   1.396096 A    
C84   N36   1.437079 S    
N4    C52   1.356807 A    
C39   H15   1.083071 S    
C82   C88   1.414098 A    
C38   C44   1.396096 A    
N10   C58   1.356048 A    
N14   C56   1.355774 A    
C25   H7    1.083332 S    
C35   C41   1.403175 A    
C25   C31   1.401579 A    
C64   C70   1.398309 A    
C18   C24   1.404406 A    
O22   C10   1.254553 A    
O9    C3    1.251872 A    
N25   O27   1.301427 A    
C69   C93   1.413452 A    
N19   C49   1.358933 A    
N6    N12   1.328491 A    
C34   C40   1.403174 A    
C73   C91   1.405398 A    
O18   Cr6   2.087102 S    
N2    C50   1.356809 A    
O6    C4    1.246066 A    
N27   O31   1.301460 A    
C83   N35   1.437079 S    
Cr4   O26   1.970429 S    
C8    C94   1.478232 S    
N30   O37   1.301429 A    
C29   H11   1.083333 S    
N32   O41   1.301495 A    
O6    Cr6   2.075253 S    
O11   Cr5   1.970108 S    
O12   C6    1.251871 A    
N21   C51   1.358935 A    
N31   O40   1.301468 A    
N8    C56   1.356049 A    
O18   C10   1.251105 A    
O24   Cr6   1.957097 S    
N28   O34   1.301462 A    
O1    C2    1.246068 A    
C22   H4    1.083158 S    
C2    C15   1.470654 S    
C54   C90   1.480259 S    
C51   C87   1.480259 S    
N36   O49   1.301494 A    
N18   N24   1.330927 A    
C15   C21   1.404409 A    
C17   C47   1.405189 A    
O19   Cr1   1.957093 S    
N27   O32   1.301428 A    
