data_mof_unit_41967.cif
_audit_creation_date              2012-12-10T17:33:40-0500
_audit_creation_method            fapswitch 2.2
_symmetry_space_group_name_H-M    P1
_symmetry_Int_Tables_number       1
_space_group_crystal_system       triclinic
_cell_length_a                    11.68713
_cell_length_b                    12.348942
_cell_length_c                    13.010984
_cell_angle_alpha                 116.57912
_cell_angle_beta                  77.19175
_cell_angle_gamma                 101.392673
_cell_volume                      1627.11130162

loop_
_atom_site_label
_atom_site_type_symbol
_atom_type_description
_atom_site_fract_x
_atom_site_fract_y
_atom_site_fract_z
_atom_type_partial_charge
C1    C     C_R   0.511287 0.854753 0.284672 0.781617
C2    C     C_R   0.487497 0.226441 0.840178 -0.205432
C3    C     C_R   0.574437 0.814561 0.070918 -0.093982
C4    C     C_R   0.579969 0.733477 0.951208 -0.083687
C5    C     C_R   0.537719 0.610741 0.921223 -0.107191
C6    C     C_R   0.495339 0.565588 0.005630 0.110707
C7    C     C_R   0.464323 0.649583 0.121504 0.078360
C8    C     C_R   0.475818 0.438636 0.976752 -0.004448
C9    C     C_R   0.402375 0.398690 0.058633 0.097888
C10   C     C_R   0.352073 0.483028 0.165271 -0.163549
C11   C     C_R   0.382163 0.606794 0.196298 -0.157058
C12   C     C_R   0.715868 0.999805 0.499675 0.857120
C13   C     C_R   0.530357 0.350039 0.872062 0.318332
C14   C     C_R   0.431054 0.188269 0.928690 -0.069352
C15   C     C_R   0.514422 0.773253 0.157724 -0.180359
C16   C     C_R   0.705187 0.352590 0.339874 0.312629
C17   C     C_R   0.336976 0.752088 0.643850 0.022663
C18   C     C_R   0.314183 0.660251 0.684214 0.312356
C19   C     C_R   0.381856 0.563775 0.631274 -0.226491
C20   C     C_R   0.470857 0.554292 0.536738 -0.014978
C21   C     C_R   0.500031 0.655377 0.506484 0.233145
C22   C     C_R   0.533793 0.448840 0.474351 -0.025385
C23   C     C_R   0.491778 0.144622 0.714594 0.867066
C24   C     C_R   0.631302 0.448177 0.386386 -0.043413
C25   C     C_R   0.651262 0.543424 0.350003 -0.078946
C26   C     C_R   0.593157 0.647611 0.415322 -0.213533
C27   C     C_R   0.501594 0.341968 0.494676 0.074215
C28   C     C_R   0.667404 0.251281 0.364786 0.041118
C29   C     C_R   0.284126 0.000167 0.500313 0.807823
C30   C     C_1   0.837553 0.999850 0.499806 -0.069695
C31   C     C_1   0.940045 0.999863 0.500004 0.080850
C32   C     C_1   0.059833 0.999930 0.500223 0.066767
C33   C     C_1   0.162377 0.000046 0.500316 -0.117739
C34   C     C_R   0.384852 0.275366 0.036046 -0.206062
Cu1   Cu    Cu3+1 0.526510 0.098270 0.475420 1.026764
Cu2   Cu    Cu3+1 0.473490 0.901730 0.524580 0.993546
H1    H     H_    0.424525 0.331394 0.553810 0.129956
H2    H     H_    0.361794 0.496217 0.665445 0.178912
H3    H     H_    0.619807 0.718642 0.387268 0.220285
H4    H     H_    0.291992 0.453294 0.226561 0.160201
H5    H     H_    0.338004 0.247741 0.103892 0.186728
H6    H     H_    0.537503 0.549252 0.830836 0.206766
H7    H     H_    0.337294 0.667636 0.278139 0.184554
H8    H     H_    0.721207 0.177063 0.328836 0.202842
N1    N     N_R   0.566700 0.246290 0.438210 -0.212865
N2    N     N_R   0.434010 0.754320 0.561170 -0.254197
O1    O     O_R   0.533340 0.972510 0.318140 -0.569302
O2    O     O_R   0.488570 0.806530 0.359650 -0.615326
O3    O     O_R   0.685190 0.083000 0.479260 -0.545402
O4    O     O_R   0.640410 0.917020 0.520770 -0.585333
O5    O     O_R   0.511430 0.193470 0.640350 -0.548781
O6    O     O_R   0.466660 0.027490 0.681860 -0.535585
O7    O     O_R   0.359590 0.082980 0.479230 -0.580303
O8    O     O_R   0.314810 0.917000 0.520740 -0.582077
C35   C     C_2   0.433277 0.064199 0.919134 1.005632
O9    O     O_2   0.513550 0.004084 0.855892 -0.530901
O10   O     O_R   0.348263 0.019357 0.989122 -0.708885
H9    H     H_    0.362949 0.936682 0.979027 0.368134
C36   C     C_2   0.713106 0.529410 0.232931 0.964994
O11   O     O_2   0.693116 0.434937 0.147651 -0.527167
O12   O     O_R   0.787850 0.627113 0.219335 -0.737544
H10   H     H_    0.822360 0.607373 0.135066 0.372858
S1    S     S_3+6 0.854464 0.363721 0.272794 0.043419
O13   O     O_2   0.860674 0.306175 0.142885 -0.222561
O14   O     O_2   0.907577 0.494569 0.313515 -0.258642
O15   O     O_3   0.933393 0.288490 0.308042 -0.510459
H11   H     H_    0.014613 0.297369 0.267334 0.381395
C37   C     C_2   0.244296 0.832899 0.679824 1.009701
O16   O     O_2   0.153627 0.792866 0.636308 -0.547202
O17   O     O_R   0.256037 0.951271 0.766531 -0.735129
H12   H     H_    0.185294 0.996029 0.783578 0.338174
S2    S     S_3+6 0.195456 0.657190 0.795547 0.021271
O18   O     O_2   0.086662 0.592160 0.740595 -0.233653
O19   O     O_2   0.223966 0.589766 0.856818 -0.292351
O20   O     O_3   0.169021 0.798905 0.893494 -0.507532
H13   H     H_    0.098876 0.787563 0.948032 0.394559
S3    S     S_3+6 0.676821 0.381498 0.805925 0.047103
O21   O     O_2   0.743806 0.274100 0.766952 -0.249417
O22   O     O_2   0.673518 0.402886 0.701619 -0.273909
O23   O     O_3   0.748408 0.504547 0.901915 -0.513846
H14   H     H_    0.824785 0.520010 0.856583 0.406061
C38   C     C_2   0.631862 0.940892 0.104043 0.952856
O24   O     O_2   0.731326 0.967305 0.129740 -0.557237
O25   O     O_R   0.572481 0.028798 0.104320 -0.731814
H15   H     H_    0.621710 0.111020 0.125324 0.347931
C39   C     C_2   0.635172 0.770048 0.854119 0.919691
O26   O     O_2   0.687114 0.871741 0.873375 -0.511037
O27   O     O_R   0.629537 0.685948 0.738782 -0.743896
H16   H     H_    0.670538 0.720500 0.680776 0.356662

loop_
_geom_bond_atom_site_label_1
_geom_bond_atom_site_label_2
_ccdc_geom_bond_type
C16   C28   A    
C21   C26   A    
S1    O14   D    
C8    C13   A    
Cu1   O7    S    
Cu1   Cu2   S    
C35   O9    D    
Cu1   O1    S    
C12   O3    A    
O10   H9    S    
Cu2   O4    S    
S3    O21   D    
C7    C11   A    
C30   C31   T    
O23   H14   S    
C39   O27   S    
C26   H3    S    
C4    C39   S    
C29   O8    A    
C29   C33   S    
C10   H4    S    
C18   C19   A    
C2    C13   A    
C19   C20   A    
C8    C9    A    
Cu1   O3    S    
Cu2   N2    S    
O17   H12   S    
C1    C15   S    
C16   S1    S    
C9    C10   A    
Cu2   O6    S    
O27   H16   S    
C27   N1    A    
C7    C15   A    
C14   C35   S    
S1    O15   S    
C36   O11   D    
C16   C24   A    
C34   H5    S    
S2    O20   S    
S3    O22   D    
C18   S2    S    
C13   S3    S    
C28   N1    A    
C36   O12   S    
O15   H11   S    
O25   H15   S    
S2    O19   D    
C39   O26   D    
C37   O16   D    
C6    C8    A    
C25   C26   A    
C28   H8    S    
O20   H13   S    
C19   H2    S    
C23   O5    A    
C31   C32   S    
C3    C38   S    
C17   C18   A    
C24   C25   A    
C11   H7    S    
C20   C22   A    
C38   O25   S    
C22   C27   A    
C35   O10   S    
Cu1   O5    S    
C9    C34   A    
C22   C24   A    
C3    C4    A    
Cu1   N1    S    
C3    C15   A    
C5    H6    S    
C21   N2    A    
S3    O23   S    
C17   C37   S    
C12   C30   S    
C1    O1    A    
S2    O18   D    
C14   C34   A    
C12   O4    A    
C17   N2    A    
C1    O2    A    
C6    C7    A    
C32   C33   T    
C23   O6    A    
C5    C6    A    
C29   O7    A    
C27   H1    S    
Cu2   O2    S    
O12   H10   S    
C2    C14   A    
Cu2   O8    S    
C10   C11   A    
S1    O13   D    
C4    C5    A    
C20   C21   A    
C37   O17   S    
C38   O24   D    
C2    C23   S    
C25   C36   S    
