data_mof_unit_7122.cif
_audit_creation_date              2012-12-10T17:27:50-0500
_audit_creation_method            fapswitch 2.2
_symmetry_space_group_name_H-M    P1
_symmetry_Int_Tables_number       1
_space_group_crystal_system       triclinic
_cell_length_a                    10.626649
_cell_length_b                    12.018215
_cell_length_c                    12.859469
_cell_angle_alpha                 94.234321
_cell_angle_beta                  89.866355
_cell_angle_gamma                 84.020191
_cell_volume                      1628.84780192

loop_
_atom_site_label
_atom_site_type_symbol
_atom_type_description
_atom_site_fract_x
_atom_site_fract_y
_atom_site_fract_z
_atom_type_partial_charge
C1    C     C_R   0.498269 0.522919 0.700436 0.914030
C2    C     C_R   0.541919 0.633334 0.863148 -0.245555
C3    C     C_R   0.468025 0.449262 0.866628 -0.273045
C4    C     C_R   0.739611 0.495726 0.489434 0.907384
C5    C     C_R   0.480442 0.453573 0.972817 0.107563
C6    C     C_R   0.525070 0.548483 0.026134 0.119590
C7    C     C_R   0.536706 0.549897 0.133081 -0.248948
C8    C     C_R   0.456386 0.366576 0.132933 0.171574
C9    C     C_R   0.448272 0.363382 0.025654 -0.239038
C10   C     C_R   0.369815 0.961427 0.417463 -0.270725
C11   C     C_R   0.384953 0.844490 0.420336 0.322719
C12   C     C_R   0.946894 0.454344 0.397808 0.031722
C13   C     C_R   0.558135 0.855446 0.535395 -0.040268
C14   C     C_R   0.547862 0.973880 0.531584 0.036598
C15   C     C_R   0.450863 0.027035 0.473209 0.047474
C16   C     C_R   0.500553 0.476866 0.299205 0.882582
C17   C     C_R   0.438711 0.144769 0.469797 -0.081305
C18   C     C_R   0.618147 0.158311 0.577561 0.640231
C19   C     C_R   0.632373 0.040296 0.583559 -0.402092
C20   C     C_R   0.260141 0.502519 0.502963 0.955369
C21   C     C_R   0.902387 0.399894 0.304826 0.122996
C22   C     C_R   0.971435 0.397241 0.211754 -0.139139
C23   C     C_R   0.873486 0.487696 0.489001 -0.107062
C24   C     C_R   0.089877 0.436096 0.211509 -0.134603
C25   C     C_R   0.143173 0.471070 0.305304 -0.099643
C26   C     C_R   0.073030 0.478376 0.399588 0.004470
C27   C     C_3   0.706395 0.218652 0.731464 0.110856
C28   C     C_3   0.783188 0.308791 0.780056 -0.786163
C29   C     C_3   0.051346 0.545007 0.773211 0.089813
C30   C     C_3   0.140220 0.544654 0.865676 -0.775998
C31   C     C_R   0.926745 0.525370 0.582236 -0.319521
C32   C     C_R   0.057028 0.527899 0.589265 0.471591
C33   C     C_R   0.127183 0.506494 0.496461 -0.162737
C34   C     C_R   0.499688 0.461544 0.187056 -0.111511
C35   C     C_R   0.500233 0.537569 0.811838 -0.082130
C36   C     C_R   0.555019 0.639533 0.970808 0.157452
H1    H     H_    0.865146 0.551242 0.648834 0.122197
H2    H     H_    0.144174 0.431583 0.139679 0.157158
H3    H     H_    0.238873 0.493417 0.303265 0.140946
H4    H     H_    0.572329 0.620874 0.175576 0.208355
H5    H     H_    0.751443 0.136014 0.753123 0.138981
H6    H     H_    0.608667 0.233407 0.764776 0.132255
H7    H     H_    0.743908 0.392773 0.757640 0.246927
H8    H     H_    0.780407 0.308416 0.866366 0.212967
H9    H     H_    0.883052 0.292412 0.752703 0.245844
H10   H     H_    0.977561 0.617354 0.787127 0.162201
H11   H     H_    0.007532 0.464538 0.769359 0.138822
H12   H     H_    0.414081 0.291168 0.983501 0.164987
H13   H     H_    0.085117 0.545230 0.939248 0.210505
H14   H     H_    0.207766 0.467659 0.858447 0.242882
H15   H     H_    0.193332 0.619684 0.868816 0.276084
H16   H     H_    0.567477 0.701535 0.819539 0.177017
H17   H     H_    0.433342 0.376139 0.826271 0.158548
H18   H     H_    0.362515 0.186227 0.426833 0.177708
H19   H     H_    0.296102 0.000625 0.370069 0.186511
H20   H     H_    0.710422 0.000661 0.626080 0.159286
H21   H     H_    0.630909 0.813868 0.581951 0.140440
H22   H     H_    0.937494 0.357327 0.140491 0.159685
I1    I     I_    0.260679 0.758498 0.323090 -0.302770
I2    I     I_    0.777406 0.273607 0.301898 -0.267796
I3    I     I_    0.392178 0.226791 0.201124 -0.348239
I4    I     I_    0.620600 0.788149 0.041627 -0.344641
N1    N     N_R   0.523130 0.207800 0.519340 -0.131944
N2    N     N_R   0.476870 0.792180 0.480660 -0.123941
O1    O     O_R   0.506170 0.421690 0.658830 -0.614567
O2    O     O_3   0.120457 0.556647 0.681194 -0.620035
O3    O     O_R   0.491330 0.609320 0.646410 -0.621545
O4    O     O_R   0.690660 0.406170 0.506210 -0.543250
O5    O     O_R   0.675810 0.593790 0.493790 -0.629351
O6    O     O_R   0.508670 0.390680 0.353590 -0.581153
O7    O     O_R   0.493830 0.578310 0.341170 -0.611887
O8    O     O_R   0.324190 0.406210 0.506210 -0.634290
O9    O     O_R   0.309340 0.593830 0.493790 -0.592483
O10   O     O_3   0.706122 0.224000 0.622093 -0.574865
Zn1   Zn    Zn3+2 0.509910 0.374720 0.508290 1.019687
Zn2   Zn    Zn3+2 0.490090 0.625280 0.491710 0.988233

loop_
_geom_bond_atom_site_label_1
_geom_bond_atom_site_label_2
_ccdc_geom_bond_type
C19   H20   S    
C2    C35   A    
C30   H15   S    
O4    Zn1   S    
C12   C23   A    
C29   H11   S    
C10   C15   A    
C5    C6    A    
C36   I4    S    
C18   N1    A    
C13   H21   S    
O5    Zn2   S    
C18   C19   A    
C16   C34   S    
C8    C9    A    
C1    O1    A    
C7    H4    S    
C27   O10   S    
C8    I3    S    
C30   H14   S    
C18   O10   S    
C13   C14   A    
C16   O7    A    
O8    Zn1   S    
C11   I1    S    
C4    O5    A    
C28   H9    S    
C16   O6    A    
C24   C25   A    
C21   I2    S    
C11   N2    A    
C4    O4    A    
C4    C23   S    
C25   C26   A    
C12   C21   A    
C28   H8    S    
C31   H1    S    
C12   C26   A    
C23   C31   A    
C5    C9    A    
C29   C30   S    
C27   H5    S    
C26   C33   A    
C24   H2    S    
C31   C32   A    
C3    C35   A    
N2    Zn2   S    
C8    C34   A    
C10   H19   S    
C2    H16   S    
C20   C33   S    
C30   H13   S    
C7    C34   A    
C22   C24   A    
C27   C28   S    
C1    C35   S    
C32   O2    S    
C2    C36   A    
C15   C17   A    
C14   C19   A    
C3    C5    A    
C22   H22   S    
C6    C7    A    
C28   H7    S    
O1    Zn1   S    
C29   H10   S    
C32   C33   A    
C25   H3    S    
C3    H17   S    
C27   H6    S    
O7    Zn2   S    
C13   N2    A    
N1    Zn1   S    
C1    O3    A    
C6    C36   A    
C20   O9    A    
C10   C11   A    
C29   O2    S    
O9    Zn2   S    
C9    H12   S    
O6    Zn1   S    
C14   C15   A    
C20   O8    A    
O3    Zn2   S    
C21   C22   A    
C17   H18   S    
C17   N1    A    
