data_mof_unit_10967.cif
_audit_creation_date              2012-12-10T16:57:18-0500
_audit_creation_method            fapswitch 2.2
_symmetry_space_group_name_H-M    P1
_symmetry_Int_Tables_number       1
_space_group_crystal_system       triclinic
_cell_length_a                    15.883553
_cell_length_b                    10.996344
_cell_length_c                    9.750025
_cell_angle_alpha                 89.811267
_cell_angle_beta                  91.1064
_cell_angle_gamma                 90.110226
_cell_volume                      1702.61956118

loop_
_atom_site_label
_atom_site_type_symbol
_atom_type_description
_atom_site_fract_x
_atom_site_fract_y
_atom_site_fract_z
_atom_type_partial_charge
C1    C     C_R   0.496387 0.266138 0.499860 0.811311
C2    C     C_2   0.510519 0.863794 0.499343 -0.460668
C3    C     C_2   0.510238 0.062884 0.403805 0.100941
C4    C     C_R   0.340494 0.499886 0.498808 0.844811
C5    C     C_2   0.475295 0.137496 0.497943 -0.055554
C6    C     C_2   0.466420 0.581537 0.924464 0.010878
C7    C     C_2   0.483616 0.592291 0.076366 -0.064153
C8    C     C_R   0.500037 0.733807 0.499717 0.915758
C9    C     C_R   0.659525 0.500630 0.501051 0.818550
C10   C     C_3   0.051858 0.441489 0.608269 -0.477367
C11   C     C_3   0.046928 0.448261 0.339401 0.303684
C12   C     C_3   0.954724 0.437989 0.610805 -0.028000
C13   C     C_3   0.945726 0.441794 0.351847 -0.122193
C14   C     C_1   0.748934 0.504139 0.502355 -0.151101
C15   C     C_3   0.083584 0.510010 0.478126 0.189405
C16   C     C_3   0.918647 0.458459 0.756613 -0.376274
C17   C     C_3   0.921671 0.587567 0.813642 -0.814674
C18   C     C_2   0.908844 0.723570 0.370252 0.818347
C19   C     C_2   0.420839 0.900673 0.287517 0.837796
C20   C     C_3   0.581987 0.103865 0.311761 -0.347335
C21   C     C_3   0.633796 0.999667 0.252861 -0.830738
C22   C     C_3   0.402975 0.099048 0.589889 -0.419560
C23   C     C_3   0.916359 0.511323 0.485404 0.083802
C24   C     C_3   0.317915 0.127936 0.521652 -0.808282
C25   C     C_3   0.574207 0.430943 0.893486 -0.070260
C26   C     C_3   0.649867 0.513844 0.926540 -0.806704
C27   C     C_3   0.071431 0.524642 0.207540 -0.425566
C28   C     C_3   0.164890 0.547469 0.177320 -0.839741
C29   C     C_3   0.084631 0.317018 0.311716 -0.340565
C30   C     C_3   0.068798 0.209771 0.409355 -0.905791
C31   C     C_3   0.891047 0.470702 0.219189 -0.387568
C32   C     C_3   0.884462 0.363331 0.119619 -0.895842
C33   C     C_3   0.101588 0.751237 0.432642 -0.343691
C34   C     C_3   0.950671 0.646320 0.482981 -0.132873
C35   C     C_3   0.081466 0.874761 0.496321 -0.841926
C36   C     C_3   0.050022 0.644806 0.496855 -0.115016
C37   C     C_1   0.824238 0.507827 0.497392 -0.021270
C38   C     C_1   0.175752 0.505007 0.487627 -0.056567
C39   C     C_1   0.251113 0.501725 0.494816 -0.196738
C40   C     C_2   0.482259 0.936403 0.397636 0.037292
Cu1   Cu    Cu3+1 0.500020 0.500020 0.638630 0.928626
Cu2   Cu    Cu3+1 0.499980 0.499980 0.361370 0.955126
H1    H     H_    0.937339 0.341159 0.593555 0.117115
H2    H     H_    0.928908 0.692860 0.575820 0.130737
H3    H     H_    0.983862 0.630731 0.798873 0.239569
H4    H     H_    0.870244 0.643264 0.767629 0.250782
H5    H     H_    0.910490 0.584343 0.925372 0.243570
H6    H     H_    0.852210 0.426519 0.758508 0.197020
H7    H     H_    0.954063 0.398660 0.829474 0.199527
H8    H     H_    0.800990 0.800634 0.299609 0.329921
H9    H     H_    0.372671 0.936064 0.098592 0.321619
H10   H     H_    0.660689 0.942560 0.337010 0.258300
H11   H     H_    0.594422 0.942410 0.183273 0.267352
H12   H     H_    0.077121 0.486185 0.702787 0.181770
H13   H     H_    0.686503 0.037692 0.192915 0.235101
H14   H     H_    0.555548 0.158310 0.224997 0.232793
H15   H     H_    0.626525 0.162127 0.371658 0.179801
H16   H     H_    0.312174 0.227084 0.501527 0.240280
H17   H     H_    0.310647 0.078057 0.423254 0.264167
H18   H     H_    0.266378 0.099785 0.590310 0.234798
H19   H     H_    0.404467 0.001357 0.617376 0.216246
H20   H     H_    0.407496 0.147943 0.689370 0.220327
H21   H     H_    0.652113 0.591978 0.854339 0.264857
H22   H     H_    0.647181 0.549092 0.032724 0.247412
H23   H     H_    0.548028 0.902020 0.583396 0.151453
H24   H     H_    0.709129 0.461311 0.917983 0.207688
H25   H     H_    0.562800 0.365169 0.976371 0.111869
H26   H     H_    0.593286 0.369721 0.810118 0.204000
H27   H     H_    0.195038 0.609478 0.252395 0.269106
H28   H     H_    0.201560 0.462390 0.170125 0.249210
H29   H     H_    0.169086 0.593399 0.076024 0.240215
H30   H     H_    0.046373 0.478528 0.114459 0.210221
H31   H     H_    0.040440 0.613123 0.206621 0.241864
H32   H     H_    0.120245 0.202740 0.487602 0.246540
H33   H     H_    0.007377 0.211052 0.459781 0.241025
H34   H     H_    0.427230 0.650834 0.876405 0.126890
H35   H     H_    0.070871 0.124256 0.349366 0.256196
H36   H     H_    0.062001 0.286590 0.208996 0.199165
H37   H     H_    0.154004 0.322698 0.304241 0.213583
H38   H     H_    0.946393 0.338027 0.078757 0.244980
H39   H     H_    0.856701 0.282903 0.171199 0.259275
H40   H     H_    0.842512 0.388250 0.031711 0.246324
H41   H     H_    0.825151 0.491457 0.245304 0.235314
H42   H     H_    0.911969 0.552686 0.164086 0.220111
H43   H     H_    0.015633 0.902363 0.473086 0.273539
H44   H     H_    0.091521 0.872116 0.609336 0.236173
H45   H     H_    0.481812 0.681861 0.122027 0.172103
H46   H     H_    0.124513 0.944471 0.454137 0.247435
H47   H     H_    0.169687 0.736310 0.453697 0.213465
H48   H     H_    0.095041 0.759012 0.320406 0.257124
H49   H     H_    0.077651 0.348869 0.618178 0.184270
H50   H     H_    0.476162 0.417725 0.115225 0.209622
H51   H     H_    0.928214 0.346017 0.370750 0.180069
H52   H     H_    0.062717 0.664648 0.607219 0.163311
N1    N     N_2   0.499090 0.498660 0.846910 -0.161897
N2    N     N_2   0.499070 0.498630 0.153040 -0.291454
O1    O     O_R   0.500010 0.321960 0.617040 -0.604823
O2    O     O_R   0.822796 0.748627 0.378627 -0.779270
O3    O     O_2   0.370520 0.818118 0.305821 -0.617656
O4    O     O_R   0.417572 0.967167 0.165045 -0.783450
O5    O     O_R   0.499990 0.321920 0.382900 -0.594662
O6    O     O_R   0.379450 0.500030 0.617120 -0.576182
O7    O     O_R   0.379420 0.499980 0.382980 -0.555531
O8    O     O_R   0.500010 0.678080 0.617100 -0.590749
O9    O     O_R   0.499990 0.678040 0.382960 -0.553692
O10   O     O_R   0.620580 0.500020 0.617020 -0.592958
O11   O     O_R   0.620550 0.499970 0.382880 -0.566062
O12   O     O_2   0.948240 0.766899 0.275691 -0.637131

loop_
_geom_bond_atom_site_label_1
_geom_bond_atom_site_label_2
_ccdc_geom_bond_type
C36   H52   S    
C11   C13   S    
Cu1   Cu2   S    
C28   H27   S    
C25   H25   S    
C20   H14   S    
C2    H23   S    
Cu2   O7    S    
C16   H6    S    
C7    N2    D    
C12   C23   S    
Cu2   N2    S    
C22   C24   S    
C17   H3    S    
C12   H1    S    
C10   C15   S    
C38   C39   T    
C30   H32   S    
C35   H44   S    
C32   H38   S    
C4    O7    A    
H50   N2    S    
C33   C36   S    
C31   H41   S    
Cu1   O6    S    
C13   C23   S    
C26   H22   S    
Cu1   O1    S    
C30   H35   S    
C11   C15   S    
C7    H45   S    
C29   H36   S    
C12   C16   S    
C16   C17   S    
C4    O6    A    
Cu2   O11   S    
C8    O9    A    
C25   H26   S    
C2    C8    S    
H8    O2    S    
Cu1   O10   S    
C5    C22   S    
C26   H24   S    
C34   H2    S    
C17   H4    S    
C1    O1    A    
C21   H13   S    
C9    C14   S    
C19   O3    D    
C9    O10   A    
C23   C37   S    
C31   H42   S    
C13   H51   S    
C26   H21   S    
C15   C38   S    
C29   C30   S    
C32   H39   S    
C33   H47   S    
C22   H20   S    
C8    O8    A    
C35   H46   S    
C31   C32   S    
C29   H37   S    
C4    C39   S    
C11   C27   S    
C24   H18   S    
C23   C34   S    
C3    C20   S    
C16   H7    S    
C18   C34   S    
C10   C12   S    
C10   H49   S    
C25   N1    S    
C1    C5    S    
C28   H29   S    
Cu2   O5    S    
C1    O5    A    
C15   C36   S    
H9    O4    S    
C13   C31   S    
C28   H28   S    
C17   H5    S    
C3    C5    D    
C3    C40   S    
C19   O4    S    
C6    H34   S    
C6    C7    S    
C9    O11   A    
C32   H40   S    
Cu1   O8    S    
C25   C26   S    
C33   H48   S    
C22   H19   S    
C21   H11   S    
C30   H33   S    
C35   H43   S    
Cu1   N1    S    
C24   H17   S    
C33   C35   S    
C34   C36   S    
C10   H12   S    
Cu2   O9    S    
C18   O12   D    
C19   C40   S    
C2    C40   D    
C20   C21   S    
C11   C29   S    
C24   H16   S    
C6    N1    D    
C27   C28   S    
C18   O2    S    
C20   H15   S    
C27   H31   S    
C21   H10   S    
C27   H30   S    
C14   C37   T    
