data_mof_unit_22473.cif
_audit_creation_date              2012-12-10T16:57:05-0500
_audit_creation_method            fapswitch 2.2
_symmetry_space_group_name_H-M    P1
_symmetry_Int_Tables_number       1
_space_group_crystal_system       triclinic
_cell_length_a                    7.74674
_cell_length_b                    8.584609
_cell_length_c                    16.526261
_cell_angle_alpha                 91.326927
_cell_angle_beta                  82.347593
_cell_angle_gamma                 93.46677
_cell_volume                      1087.13360682

loop_
_atom_site_label
_atom_site_type_symbol
_atom_type_description
_atom_site_fract_x
_atom_site_fract_y
_atom_site_fract_z
_atom_type_partial_charge
C1    C     C_R   0.546051 0.794760 0.497866 0.979810
C2    C     C_R   0.357623 0.362430 0.234268 -0.017201
C3    C     C_R   0.594149 0.360646 0.855671 -0.191239
C4    C     C_R   0.368820 0.276039 0.161667 -0.189585
C5    C     C_R   0.426561 0.331574 0.898216 0.172516
C6    C     C_R   0.526212 0.272937 0.109568 0.165613
C7    C     C_R   0.281389 0.374772 0.863953 -0.153052
C8    C     C_R   0.679029 0.340377 0.134984 -0.146725
C9    C     C_R   0.302288 0.441186 0.787328 -0.164613
C10   C     C_R   0.672842 0.417374 0.210212 -0.188789
C11   C     C_2   0.399770 0.284205 0.983912 -0.199951
C12   C     C_R   0.453957 0.205239 0.502032 0.961082
C13   C     C_2   0.526595 0.232824 0.022816 -0.209361
C14   C     C_2   0.797326 0.464466 0.740621 0.909123
C15   C     C_2   0.179204 0.381029 0.276711 0.875996
C16   C     C_2   0.570447 0.958053 0.496600 -0.361102
C17   C     C_2   0.429577 0.041964 0.503129 -0.353681
C18   C     C_R   0.480014 0.499463 0.655188 0.879864
C19   C     C_R   0.517590 0.488369 0.345185 0.865455
C20   C     C_R   0.468523 0.464380 0.742596 -0.132928
C21   C     C_R   0.513077 0.431434 0.260615 -0.123020
C22   C     C_R   0.616766 0.428372 0.778881 -0.009181
H1    H     H_    0.793540 0.467295 0.228702 0.191741
H2    H     H_    0.296415 0.991302 0.509346 0.188533
H3    H     H_    0.019922 0.372162 0.445340 0.208754
H4    H     H_    0.979984 0.627382 0.555078 0.204470
H5    H     H_    0.980764 0.630089 0.698562 0.329120
H6    H     H_    0.942210 0.277216 0.314722 0.339497
H7    H     H_    0.187252 0.471251 0.762303 0.202883
H8    H     H_    0.647394 0.195818 0.989176 0.152165
H9    H     H_    0.279806 0.320778 0.018805 0.143794
H10   H     H_    0.151168 0.358753 0.897022 0.135656
H11   H     H_    0.801903 0.339629 0.095070 0.130478
H12   H     H_    0.250854 0.220970 0.142572 0.158665
H13   H     H_    0.709452 0.339181 0.883088 0.132651
H14   H     H_    0.703611 0.008727 0.490354 0.189154
N1    N     N_2   0.953500 0.457650 0.478520 -0.143999
N2    N     N_2   0.046500 0.542350 0.521480 -0.153328
O1    O     O_R   0.388470 0.738640 0.505270 -0.611789
O2    O     O_R   0.851970 0.618237 0.720001 -0.805928
O3    O     O_2   0.129358 0.511305 0.294843 -0.610263
O4    O     O_R   0.063272 0.249878 0.289396 -0.820418
O5    O     O_R   0.611530 0.261360 0.494730 -0.619301
O6    O     O_R   0.679650 0.711510 0.491500 -0.615318
O7    O     O_R   0.320350 0.288490 0.508500 -0.623154
O8    O     O_R   0.337210 0.515200 0.623500 -0.618220
O9    O     O_R   0.662790 0.484800 0.376500 -0.610704
O10   O     O_R   0.628380 0.488060 0.609730 -0.600056
O11   O     O_R   0.371620 0.511940 0.390270 -0.588257
O12   O     O_2   0.898862 0.360231 0.728715 -0.643891
Zn1   Zn    Zn3+2 0.305580 0.518120 0.509190 0.994045
Zn2   Zn    Zn3+2 0.694420 0.481880 0.490810 0.993988

loop_
_geom_bond_atom_site_label_1
_geom_bond_atom_site_label_2
_ccdc_geom_bond_type
C12   C17   S    
O1    Zn1   S    
O9    Zn2   S    
N2    Zn1   S    
C9    H7    S    
C10   H1    S    
C19   O11   A    
C1    O6    A    
C2    C4    A    
C3    H13   S    
H5    O2    S    
C3    C5    A    
O6    Zn2   S    
C2    C21   A    
C11   H9    S    
C1    C16   S    
C14   O12   D    
C16   H14   S    
C6    C13   S    
C2    C15   S    
C11   C13   D    
C14   C22   S    
N1    N2    D    
C18   O8    A    
H6    O4    S    
C19   C21   S    
C20   C22   A    
C5    C11   S    
C12   O5    A    
C4    H12   S    
C8    H11   S    
C10   C21   A    
C19   O9    A    
O5    Zn2   S    
C17   H2    S    
C16   C17   D    
O7    Zn1   S    
C14   O2    S    
C7    C9    A    
C13   H8    S    
O10   Zn2   S    
C15   O3    D    
C18   C20   S    
C8    C10   A    
C4    C6    A    
C5    C7    A    
N1    Zn2   S    
C1    O1    A    
H4    N2    S    
C3    C22   A    
C6    C8    A    
C7    H10   S    
C9    C20   A    
H3    N1    S    
O8    Zn1   S    
C15   O4    S    
C12   O7    A    
O11   Zn1   S    
C18   O10   A    
