data_mof_unit_53841.cif
_audit_creation_date              2012-10-26T18:52:45-0400
_audit_creation_method            fapswitch 2.2
_symmetry_space_group_name_H-M    P1
_symmetry_Int_Tables_number       1
_space_group_crystal_system       triclinic
_cell_length_a                    11.033604
_cell_length_b                    14.75604
_cell_length_c                    15.414822
_cell_angle_alpha                 64.077677
_cell_angle_beta                  105.911111
_cell_angle_gamma                 103.232906
_cell_volume                      2153.40782116

loop_
_atom_site_label
_atom_site_type_symbol
_atom_type_description
_atom_site_fract_x
_atom_site_fract_y
_atom_site_fract_z
_atom_type_partial_charge
C1    C     C_R   0.479474 0.120796 0.313155 0.580487
C2    C     C_R   0.519442 0.358919 0.076366 0.027010
C3    C     C_R   0.458848 0.317092 0.005092 0.059659
C4    C     C_R   0.259008 0.002470 0.494798 0.573778
C5    C     C_R   0.572289 0.464947 0.043395 0.033146
C6    C     C_R   0.555085 0.525816 0.940869 0.036214
C7    C     C_R   0.508425 0.479143 0.874208 -0.092176
C8    C     C_R   0.459071 0.377419 0.905311 -0.090879
C9    C     C_R   0.636973 0.515697 0.106786 0.008191
C10   C     C_R   0.713478 0.608889 0.070796 0.118873
C11   C     C_R   0.682758 0.671087 0.970720 0.029457
C12   C     C_3   0.876285 0.002772 0.494254 0.009466
C13   C     C_R   0.588238 0.632708 0.907791 0.027890
C14   C     C_R   0.731806 0.773898 0.935273 -0.109542
C15   C     C_R   0.677169 0.840456 0.844128 -0.152263
C16   C     C_R   0.526483 0.879111 0.685765 0.545419
C17   C     C_R   0.523193 0.702893 0.819262 0.079353
C18   C     C_R   0.706337 0.278165 0.677815 -0.110681
C19   C     C_R   0.677627 0.200518 0.643971 0.168734
C20   C     C_R   0.519311 0.289044 0.514833 0.210612
C21   C     C_R   0.535976 0.363278 0.556097 0.024381
C22   C     C_R   0.638387 0.359844 0.633516 0.002766
C23   C     C_3   0.956476 0.949737 0.602652 -0.118351
C24   C     C_R   0.462613 0.446375 0.517619 0.005097
C25   C     C_R   0.509513 0.534856 0.538984 0.025781
C26   C     C_R   0.623391 0.530707 0.612020 0.060926
C27   C     C_R   0.678679 0.440856 0.662660 -0.083306
C28   C     C_R   0.739395 0.000715 0.498655 0.557259
C29   C     C_R   0.339266 0.440625 0.463135 -0.080493
C30   C     C_R   0.281537 0.526997 0.400626 0.108099
C31   C     C_R   0.341178 0.622013 0.401531 0.056314
C32   C     C_R   0.441561 0.622140 0.482545 -0.014189
C33   C     C_R   0.300522 0.716066 0.329770 -0.014667
C34   C     C_3   0.938550 0.115519 0.439333 0.194290
C35   C     C_R   0.340691 0.802295 0.351135 0.077310
C36   C     C_R   0.464054 0.708451 0.504193 0.068426
C37   C     C_3   0.024569 0.918649 0.450361 0.083425
C38   C     C_3   0.882085 0.934966 0.438293 -0.135798
C39   C     C_3   0.103220 0.968306 0.604541 0.060867
C40   C     C_3   0.072295 0.112084 0.421175 0.067525
C41   C     C_3   0.119336 0.000591 0.492771 0.048781
C42   C     C_3   0.037957 0.803952 0.517038 -0.351216
C43   C     C_3   0.922505 0.957844 0.688862 -0.376708
C44   C     C_3   0.583953 0.500733 0.191456 -0.362560
C45   C     C_R   0.470914 0.189969 0.206905 0.003350
C46   C     C_3   0.756658 0.116695 0.705442 -0.335242
C47   C     C_3   0.803687 0.964823 0.331818 -0.347404
C48   C     C_3   0.230765 0.731434 0.226637 -0.364367
C49   C     C_3   0.165780 0.871798 0.683189 -0.352338
C50   C     C_3   0.163949 0.204166 0.429484 -0.315156
C51   C     C_R   0.570534 0.807618 0.786803 0.029753
C52   C     C_R   0.402543 0.214589 0.035177 0.092827
C53   C     C_R   0.407780 0.153001 0.134806 -0.084822
C54   C     C_R   0.528221 0.291912 0.177083 -0.097848
Cu1   Cu    Cu3+1 0.465900 0.918260 0.475680 0.983415
Cu2   Cu    Cu3+1 0.534100 0.081740 0.524320 1.025073
H1    H     H_    0.421029 0.346964 0.849661 0.165588
H2    H     H_    0.783659 0.274432 0.740220 0.123018
H3    H     H_    0.289137 0.368204 0.465927 0.150186
H4    H     H_    0.829360 0.859645 0.476233 0.175838
H5    H     H_    0.925814 0.867540 0.622486 0.147165
H6    H     H_    0.984157 0.770456 0.576464 0.126524
H7    H     H_    0.992244 0.754564 0.476416 0.188298
H8    H     H_    0.137916 0.788726 0.546978 0.198583
H9    H     H_    0.821558 0.927594 0.692154 0.121604
H10   H     H_    0.978384 0.909613 0.759775 0.161615
H11   H     H_    0.943026 0.035757 0.684744 0.195855
H12   H     H_    0.719515 0.918002 0.818960 0.114233
H13   H     H_    0.484164 0.465580 0.180619 0.169938
H14   H     H_    0.646322 0.457555 0.261158 0.202022
H15   H     H_    0.576319 0.573965 0.192688 0.174452
H16   H     H_    0.742866 0.061103 0.674947 0.186035
H17   H     H_    0.858813 0.147871 0.712709 0.138714
H18   H     H_    0.734333 0.080342 0.780163 0.115290
H19   H     H_    0.785604 0.899421 0.310399 0.171175
H20   H     H_    0.709290 0.984757 0.323657 0.173835
H21   H     H_    0.852338 0.029260 0.277664 0.216353
H22   H     H_    0.266814 0.805928 0.173034 0.134870
H23   H     H_    0.363003 0.075073 0.155872 0.157042
H24   H     H_    0.246505 0.673061 0.205190 0.175604
H25   H     H_    0.128159 0.730840 0.220333 0.210509
H26   H     H_    0.174743 0.864861 0.759330 0.174449
H27   H     H_    0.262818 0.874542 0.674252 0.177969
H28   H     H_    0.112006 0.797991 0.688825 0.139932
H29   H     H_    0.190921 0.208906 0.500455 0.181495
H30   H     H_    0.250205 0.205241 0.408749 0.197199
H31   H     H_    0.124361 0.275949 0.377265 0.207108
H32   H     H_    0.583922 0.316115 0.233822 0.178329
H33   H     H_    0.509900 0.521810 0.796703 0.163193
H34   H     H_    0.810456 0.805079 0.977922 0.166226
H35   H     H_    0.762268 0.437476 0.720356 0.159017
H36   H     H_    0.513570 0.705985 0.574827 0.182920
H37   H     H_    0.312144 0.875008 0.297738 0.157876
I1    I     I_    0.945682 0.215404 0.514038 -0.294641
I2    I     I_    0.080638 0.161696 0.263906 -0.290572
I3    I     I_    0.813375 0.202905 0.306364 -0.295175
I4    I     I_    0.210951 0.070500 0.677921 -0.352305
I5    I     I_    0.333163 0.658371 0.752955 -0.409410
I6    I     I_    0.835930 0.668502 0.173857 -0.349016
I7    I     I_    0.305146 0.144929 0.935645 -0.325361
I8    I     I_    0.062838 0.913691 0.318052 -0.350390
I9    I     I_    0.094508 0.497682 0.325276 -0.283162
I10   I     I_    0.444091 0.341390 0.363604 -0.425844
I11   I     I_    0.742325 0.649994 0.649763 -0.491904
N1    N     N_R   0.585360 0.204570 0.560800 -0.193349
N2    N     N_R   0.414550 0.795430 0.439160 -0.252377
O1    O     O_R   0.455060 0.022100 0.338110 -0.520408
O2    O     O_R   0.512640 0.160150 0.379180 -0.459516
O3    O     O_R   0.288900 0.930980 0.479450 -0.481312
O4    O     O_R   0.346480 0.069030 0.520520 -0.486165
O5    O     O_R   0.487360 0.839850 0.620820 -0.493608
O6    O     O_R   0.544940 0.977900 0.661890 -0.519211
O7    O     O_R   0.653520 0.930970 0.479480 -0.518016
O8    O     O_R   0.711100 0.069020 0.520550 -0.482263

loop_
_geom_bond_atom_site_label_1
_geom_bond_atom_site_label_2
_ccdc_geom_bond_type
C54   H32   S    
Cu1   Cu2   S    
C16   C51   S    
C4    O3    A    
C1    C45   S    
C17   C51   A    
C19   C46   S    
C7    C8    A    
C39   C41   S    
C20   I10   S    
C12   C23   S    
C26   C27   A    
C29   C30   A    
C12   C28   S    
C34   C40   S    
C32   C36   A    
C49   H28   S    
C53   H23   S    
C34   I3    S    
C47   H20   S    
C28   O7    A    
C30   C31   A    
C11   C14   A    
C40   C50   S    
C39   I4    S    
C4    C41   S    
C7    H33   S    
C23   C43   S    
C48   H25   S    
C44   H15   S    
C18   C19   A    
C48   H22   S    
C37   C42   S    
C24   C29   A    
C14   H34   S    
C50   H29   S    
C26   I11   S    
C18   H2    S    
Cu2   O2    S    
C29   H3    S    
C31   C33   A    
C27   H35   S    
C15   C51   A    
C17   I5    S    
C42   H6    S    
C46   H16   S    
C36   H36   S    
C25   C32   A    
C45   C53   A    
C21   C22   A    
Cu1   O3    S    
C12   C38   S    
Cu2   O4    S    
C35   H37   S    
Cu1   N2    S    
C36   N2    A    
C24   C25   A    
C3    C8    A    
C2    C54   A    
Cu1   O7    S    
C25   C26   A    
C52   I7    S    
Cu1   O1    S    
C49   H26   S    
C5    C9    A    
C37   C38   S    
C8    H1    S    
C31   C32   A    
C43   H9    S    
C30   I9    S    
C44   H13   S    
C44   H14   S    
C38   C47   S    
C28   O8    A    
C50   H31   S    
C1    O1    A    
C38   H4    S    
C19   N1    A    
C40   C41   S    
C39   C49   S    
C45   C54   A    
C22   C27   A    
C2    C5    A    
C47   H21   S    
C40   I2    S    
C12   C34   S    
C42   H8    S    
C46   H18   S    
C52   C53   A    
C16   O6    A    
C20   N1    A    
C9    C10   A    
C4    O4    A    
C9    C44   S    
Cu1   O5    S    
C18   C22   A    
C34   I1    S    
C3    C52   A    
C6    C7    A    
C13   C17   A    
C49   H27   S    
C2    C3    A    
C47   H19   S    
C35   N2    A    
C6    C13   A    
C37   I8    S    
C11   C13   A    
C48   H24   S    
C5    C6    A    
C43   H10   S    
C23   C39   S    
C15   H12   S    
C33   C35   A    
C37   C41   S    
C10   I6    S    
Cu2   N1    S    
C10   C11   A    
C50   H30   S    
C1    O2    A    
C23   H5    S    
C20   C21   A    
C43   H11   S    
C21   C24   A    
C33   C48   S    
Cu2   O8    S    
C14   C15   A    
C42   H7    S    
Cu2   O6    S    
C46   H17   S    
C16   O5    A    
