data_mof_unit_51501.cif
_audit_creation_date              2012-12-11T16:37:24-0500
_audit_creation_method            fapswitch 2.2
_symmetry_space_group_name_H-M    P1
_symmetry_Int_Tables_number       1
_space_group_crystal_system       triclinic
_cell_length_a                    19.477851
_cell_length_b                    6.953248
_cell_length_c                    17.703384
_cell_angle_alpha                 90.083555
_cell_angle_beta                  108.827216
_cell_angle_gamma                 89.841435
_cell_volume                      2269.35335987

loop_
_atom_site_label
_atom_site_type_symbol
_atom_type_description
_atom_site_fract_x
_atom_site_fract_y
_atom_site_fract_z
_atom_type_partial_charge
O1    O     O_R   0.561710 0.369960 0.440200 -0.535127
O2    O     O_R   0.061710 0.630040 0.940200 -0.515326
O3    O     O_R   0.412630 0.033330 0.406330 -0.510408
O4    O     O_R   0.912630 0.966670 0.906330 -0.531387
O5    O     O_R   0.438290 0.869790 0.559800 -0.544265
O6    O     O_R   0.938290 0.130210 0.059800 -0.509171
C1    C     C_R   0.385293 0.203521 0.382527 0.821689
C2    C     C_R   0.886230 0.796288 0.881315 0.750256
O7    O     O_R   0.559570 0.039810 0.430640 -0.536575
O8    O     O_R   0.059570 0.960190 0.930640 -0.555051
O9    O     O_R   0.586280 0.876320 0.584290 -0.526787
O10   O     O_R   0.086280 0.123680 0.084290 -0.507628
C3    C     C_R   0.580836 0.208653 0.415817 0.861138
C4    C     C_R   0.082245 0.790493 0.916722 0.815883
O11   O     O_R   0.413720 0.363440 0.415710 -0.562137
O12   O     O_R   0.913720 0.636560 0.915710 -0.538131
O13   O     O_3   0.508590 0.205630 0.550380 -0.378420
O14   O     O_3   0.008590 0.794370 0.050380 -0.359739
V1    V     V_3+5 0.498410 0.928130 0.490650 1.603555
V2    V     V_3+5 0.998410 0.071870 0.990650 1.593086
O15   O     O_R   0.587370 0.546990 0.593670 -0.532959
O16   O     O_R   0.087370 0.453010 0.093670 -0.550030
C5    C     C_R   0.615961 0.716535 0.615698 0.821993
C6    C     C_R   0.116123 0.283293 0.115504 0.782500
O17   O     O_R   0.440430 0.540520 0.569360 -0.540222
O18   O     O_R   0.940430 0.459480 0.069360 -0.517915
C7    C     C_R   0.419106 0.709618 0.584188 0.879790
C8    C     C_R   0.919317 0.290755 0.085251 0.872516
V3    V     V_3+5 0.501590 0.428960 0.509350 1.578892
V4    V     V_3+5 0.001590 0.571040 0.009350 1.606934
O19   O     O_3   0.491410 0.701330 0.449620 -0.385418
O20   O     O_3   0.991410 0.298670 0.949620 -0.392776
C9    C     C_R   0.251243 0.787942 0.645374 0.585022
C10   C     C_R   0.819874 0.102691 0.225049 0.600645
C11   C     C_R   0.297302 0.777566 0.597873 0.201810
C12   C     C_R   0.868210 0.111791 0.180079 0.229264
C13   C     C_R   0.370316 0.722076 0.632950 -0.358925
C14   C     C_R   0.870845 0.279999 0.135866 -0.400345
C15   C     C_R   0.397378 0.685930 0.715213 0.473659
C16   C     C_R   0.825905 0.437049 0.139384 0.464797
C17   C     C_R   0.352353 0.704161 0.762559 0.594110
C18   C     C_R   0.779110 0.427275 0.185019 0.612453
C19   C     C_R   0.278444 0.751720 0.727991 -0.199250
C20   C     C_R   0.775201 0.259958 0.227830 -0.215337
C21   C     C_R   0.223504 0.601196 0.824821 0.320670
C22   C     C_R   0.648742 0.275378 0.238159 0.320983
C23   C     C_R   0.174666 0.608207 0.869959 0.264436
C24   C     C_R   0.601197 0.269073 0.284986 0.232563
C25   C     C_R   0.133645 0.777507 0.869645 -0.190512
C26   C     C_R   0.628882 0.218554 0.366205 -0.204232
C27   C     C_R   0.141170 0.934454 0.823182 -0.354134
C28   C     C_R   0.703338 0.186465 0.401560 -0.303428
H1    H     H_    0.109599 0.063968 0.820844 0.185739
H2    H     H_    0.725095 0.151589 0.464468 0.224044
C29   C     C_R   0.188038 0.926222 0.777834 0.693297
C30   C     C_R   0.750697 0.204654 0.357163 0.700922
C31   C     C_R   0.229155 0.759803 0.777556 0.024808
C32   C     C_R   0.724154 0.248604 0.275230 0.031057
C33   C     C_R   0.775961 0.612738 0.802948 -0.057336
C34   C     C_R   0.279704 0.394979 0.296275 -0.134380
C35   C     C_R   0.818975 0.778459 0.810741 -0.227927
C36   C     C_R   0.319433 0.222017 0.310752 -0.226031
C37   C     C_R   0.800505 0.907005 0.744973 0.313122
C38   C     C_R   0.297610 0.077301 0.251433 0.352048
C39   C     C_R   0.733111 0.888576 0.683653 0.577812
C40   C     C_R   0.232222 0.101007 0.185851 0.568080
C41   C     C_R   0.685657 0.734888 0.682204 -0.184328
C42   C     C_R   0.187875 0.267058 0.179008 -0.270981
C43   C     C_R   0.710820 0.589746 0.738766 -0.124492
C44   C     C_R   0.215607 0.416197 0.232829 -0.077227
C45   C     C_3   0.731075 0.393532 0.718635 0.241237
C46   C     C_3   0.179915 0.535896 0.279838 0.224842
C47   C     C_3   0.800569 0.415163 0.788771 0.608324
C48   C     C_3   0.250626 0.516135 0.349574 0.698804
H3    H     H_    0.693195 0.279834 0.724729 0.098122
H4    H     H_    0.131765 0.466675 0.289277 0.043691
F1    F     F_    0.179663 0.829073 0.610910 -0.600240
F2    F     F_    0.815323 0.939047 0.265050 -0.584393
F3    F     F_    0.718100 0.005661 0.619229 -0.683840
F4    F     F_    0.211646 0.960458 0.129646 -0.672957
O21   O     O_3   0.740935 0.396385 0.643178 -0.596919
H5    H     H_    0.778394 0.300137 0.643335 0.407351
O22   O     O_3   0.167499 0.724399 0.250479 -0.585042
H6    H     H_    0.118574 0.724489 0.209831 0.319069
O23   O     O_3   0.863387 0.419814 0.765737 -0.612351
H7    H     H_    0.904792 0.376193 0.811639 0.335254
O24   O     O_3   0.287748 0.690872 0.370533 -0.566400
H8    H     H_    0.334963 0.660287 0.411193 0.320246
O25   O     O_3   0.806303 0.286104 0.851990 -0.646640
H9    H     H_    0.761636 0.297044 0.867233 0.272997
O26   O     O_3   0.243260 0.418536 0.416270 -0.633016
H10   H     H_    0.218488 0.294252 0.397718 0.276002
O27   O     O_3   0.272433 0.818754 0.517269 -0.598413
H11   H     H_    0.220755 0.857460 0.501312 0.376567
O28   O     O_3   0.913956 0.959813 0.179368 -0.589079
H12   H     H_    0.907309 0.855362 0.214317 0.373669
F5    F     F_    0.468209 0.637953 0.750070 -0.618743
F6    F     F_    0.825719 0.599637 0.096932 -0.606686
F7    F     F_    0.381343 0.678094 0.842607 -0.582697
F8    F     F_    0.737501 0.582566 0.187601 -0.554181
O29   O     O_3   0.265551 0.440857 0.825029 -0.572160
H13   H     H_    0.280484 0.383300 0.879061 0.335455
O30   O     O_3   0.623260 0.300249 0.156388 -0.586813
H14   H     H_    0.572688 0.253225 0.135665 0.329192
O31   O     O_3   0.166303 0.452757 0.914712 -0.625280
H15   H     H_    0.176811 0.332926 0.890366 0.303057
O32   O     O_3   0.528223 0.312419 0.253689 -0.635553
H16   H     H_    0.520898 0.402245 0.208407 0.321981
F9    F     F_    0.194112 0.083242 0.734972 -0.599230
F10   F     F_    0.822918 0.180621 0.394566 -0.592156
O33   O     O_3   0.849318 0.037137 0.733336 -0.599351
H17   H     H_    0.899144 0.998343 0.765213 0.299747
O34   O     O_3   0.340355 0.914939 0.258747 -0.604207
H18   H     H_    0.317643 0.825460 0.214172 0.359503

loop_
_geom_bond_atom_site_label_1
_geom_bond_atom_site_label_2
_ccdc_geom_bond_type
C40   C42   A    
O24   H8    S    
C37   C39   A    
O27   H11   S    
C39   F3    S    
O13   V3    S    
O31   H15   S    
O28   H12   S    
O4    C2    A    
V1    O19   S    
O21   H5    S    
C23   C25   A    
O23   H7    S    
C21   C31   A    
O29   H13   S    
C11   C13   A    
O3    C1    A    
C16   F6    S    
C15   F5    S    
C24   O32   S    
O12   V4    S    
C34   C36   A    
C21   C23   A    
O9    C5    A    
C43   C45   S    
O7    C3    A    
C36   C38   A    
O13   V1    S    
O5    C7    A    
O7    V1    S    
O6    C8    A    
O33   H17   S    
O8    V2    S    
C25   C27   A    
C26   C28   A    
O32   H16   S    
C17   F7    S    
O3    V1    S    
O14   V4    S    
C8    C14   S    
C48   O24   S    
V4    O20   S    
C33   C47   S    
C27   C29   A    
C46   H4    S    
C2    C35   S    
C24   C26   A    
C2    O12   A    
C14   C16   A    
C29   F9    S    
C17   C19   A    
C18   C20   A    
C30   F10   S    
C28   H2    S    
O11   V3    S    
C11   O27   S    
O17   V3    S    
C22   C24   A    
C33   C35   A    
C9    C19   A    
C10   C20   A    
C46   C48   S    
O8    C4    A    
C20   C32   S    
O26   H10   S    
C45   C47   S    
C6    C42   S    
C1    O11   A    
C39   C41   A    
O15   V3    S    
C27   H1    S    
C38   C40   A    
C48   O26   S    
C1    C36   S    
C18   F8    S    
O22   H6    S    
C34   C44   A    
O9    V1    S    
O10   V2    S    
O1    V3    S    
C47   O23   S    
C21   O29   S    
C33   C43   A    
C42   C44   A    
O18   V4    S    
O15   C5    A    
O16   C6    A    
O1    C3    A    
C12   C14   A    
C40   F4    S    
O34   H18   S    
V2    O20   S    
C38   O34   S    
O16   V4    S    
C35   C37   A    
C16   C18   A    
O5    V1    S    
O4    V2    S    
O17   C7    A    
O6    V2    S    
C22   O30   S    
O10   C6    A    
O18   C8    A    
O2    V4    S    
C29   C31   A    
C47   O25   S    
V3    O19   S    
C10   F2    S    
C45   H3    S    
C12   O28   S    
C9    F1    S    
C5    C41   S    
C7    C13   S    
C34   C48   S    
C9    C11   A    
C10   C12   A    
C30   C32   A    
O14   V2    S    
C37   O33   S    
O2    C4    A    
C46   O22   S    
C19   C31   S    
C3    C26   S    
C4    C25   S    
C15   C17   A    
C13   C15   A    
O30   H14   S    
C23   O31   S    
C44   C46   S    
C41   C43   A    
O25   H9    S    
C22   C32   A    
C28   C30   A    
C45   O21   S    
