data_mof_unit_37120.cif
_audit_creation_date              2012-12-10T18:16:26-0500
_audit_creation_method            fapswitch 2.2
_symmetry_space_group_name_H-M    P1
_symmetry_Int_Tables_number       1
_space_group_crystal_system       triclinic
_cell_length_a                    12.589656
_cell_length_b                    13.138555
_cell_length_c                    27.720555
_cell_angle_alpha                 90.761634
_cell_angle_beta                  103.102261
_cell_angle_gamma                 82.246305
_cell_volume                      4424.34503839

loop_
_atom_site_label
_atom_site_type_symbol
_atom_type_description
_atom_site_fract_x
_atom_site_fract_y
_atom_site_fract_z
_atom_type_partial_charge
C1    C     C_R   0.438623 0.691218 0.492346 0.859466
C2    C     C_R   0.604936 0.513947 0.731759 -0.096665
C3    C     C_R   0.509361 0.504726 0.748004 0.313081
C4    C     C_R   0.511976 0.502789 0.899565 -0.055798
C5    C     C_R   0.462449 0.589997 0.869823 -0.124379
C6    C     C_R   0.415137 0.676361 0.891030 -0.193880
C7    C     C_R   0.563613 0.417391 0.878412 0.002272
C8    C     C_R   0.503928 0.502017 0.646928 -0.045094
C9    C     C_R   0.497080 0.496705 0.353181 -0.040049
C10   C     C_R   0.439132 0.576883 0.019678 0.059069
C11   C     C_R   0.568867 0.415981 0.031862 0.050489
C12   C     C_R   0.501164 0.500517 0.593907 0.875326
C13   C     C_R   0.502153 0.495084 0.050796 0.071061
C14   C     C_R   0.362331 0.645261 0.038482 -0.129804
C15   C     C_R   0.357187 0.640809 0.087862 -0.161604
C16   C     C_R   0.426488 0.566290 0.119873 -0.022105
C17   C     C_R   0.497869 0.492092 0.101324 -0.056228
C18   C     C_R   0.564904 0.414923 0.133357 -0.019216
C19   C     C_R   0.561225 0.414905 0.183413 0.505340
C20   C     C_R   0.425468 0.563460 0.170178 0.513275
C21   C     C_R   0.587823 0.514608 0.286217 -0.102265
C22   C     C_R   0.589342 0.517542 0.336453 -0.225989
C23   C     C_R   0.561200 0.308694 0.505062 0.871037
C24   C     C_R   0.403578 0.472497 0.318957 -0.210947
C25   C     C_R   0.402446 0.469387 0.268710 -0.097518
C26   C     C_R   0.494478 0.490566 0.252335 0.313474
C27   C     C_R   0.452033 0.585263 0.970485 -0.101528
C28   C     C_R   0.509759 0.500921 0.950348 0.008194
C29   C     C_R   0.565502 0.414778 0.980486 0.080711
C30   C     C_R   0.411394 0.675338 0.940684 0.592363
C31   C     C_R   0.614018 0.331161 0.907849 -0.131025
C32   C     C_R   0.636693 0.340616 0.065132 -0.213407
C33   C     C_R   0.634751 0.340395 0.114976 -0.128485
C34   C     C_R   0.498951 0.499329 0.406106 0.853862
C35   C     C_R   0.615249 0.329757 0.957990 -0.208309
C36   C     C_R   0.701857 0.063642 0.465508 -0.188708
C37   C     C_R   0.596829 0.200000 0.500919 -0.050124
C38   C     C_R   0.299532 0.838440 0.499122 -0.184277
C39   C     C_R   0.270992 0.943289 0.503592 -0.137467
C40   C     C_R   0.344667 0.010438 0.498876 -0.185009
C41   C     C_R   0.446774 0.973450 0.487081 0.086352
C42   C     C_R   0.467082 0.869389 0.474920 0.083445
C43   C     C_R   0.529466 0.036163 0.486941 0.077833
C44   C     C_R   0.621873 0.999727 0.467128 0.171071
C45   C     C_R   0.463598 0.589470 0.819478 0.546063
C46   C     C_R   0.631917 0.900870 0.448486 -0.242605
C47   C     C_R   0.555490 0.836310 0.452292 -0.191105
C48   C     C_R   0.523584 0.133812 0.506886 -0.249222
C49   C     C_R   0.688284 0.164545 0.481567 -0.197175
C50   C     C_R   0.399124 0.800787 0.486468 -0.112301
C51   C     C_R   0.087484 0.345115 0.432084 -0.300534
C52   C     C_R   0.799991 0.630899 0.558153 0.020323
C53   C     C_R   0.904658 0.660075 0.569888 -0.241311
C54   C     C_R   0.985959 0.610695 0.547816 -0.197229
C55   C     C_R   0.962690 0.531164 0.513770 0.016519
C56   C     C_R   0.562351 0.419931 0.827857 0.506119
C57   C     C_R   0.854586 0.504180 0.503190 0.236375
C58   C     C_R   0.041769 0.477630 0.489855 -0.013115
C59   C     C_R   0.011089 0.398726 0.456020 0.193426
C60   C     C_R   0.904613 0.373715 0.446480 -0.290146
C61   C     C_R   0.827812 0.425587 0.469829 -0.219405
C62   C     C_R   0.150848 0.498623 0.498096 -0.050674
C63   C     C_R   0.193782 0.369633 0.441896 0.008011
C64   C     C_R   0.411023 0.494433 0.713975 -0.103009
C65   C     C_R   0.408178 0.492948 0.663580 -0.214336
C66   C     C_R   0.602338 0.512787 0.681382 -0.209902
H1    H     H_    0.677294 0.519908 0.669514 0.165570
H2    H     H_    0.337131 0.487140 0.726701 0.140706
H3    H     H_    0.652822 0.264000 0.892237 0.193510
H4    H     H_    0.694695 0.282198 0.054033 0.147980
H5    H     H_    0.331541 0.455776 0.330923 0.164678
H6    H     H_    0.688411 0.281258 0.139076 0.191536
H7    H     H_    0.330248 0.450599 0.242452 0.145759
H8    H     H_    0.653052 0.259395 0.977888 0.148364
H9    H     H_    0.745665 0.215689 0.476589 0.149622
H10   H     H_    0.699894 0.872776 0.431729 0.153313
H11   H     H_    0.772159 0.036937 0.450043 0.139186
H12   H     H_    0.680985 0.521982 0.758222 0.142976
H13   H     H_    0.459579 0.162203 0.525695 0.151975
H14   H     H_    0.245405 0.786661 0.507121 0.152581
H15   H     H_    0.318422 0.090907 0.503398 0.135570
H16   H     H_    0.193558 0.972318 0.512852 0.145458
H17   H     H_    0.565647 0.760598 0.436759 0.173542
H18   H     H_    0.254270 0.328727 0.423948 0.137179
H19   H     H_    0.880461 0.313441 0.420864 0.160300
H20   H     H_    0.065275 0.284751 0.406228 0.150895
H21   H     H_    0.181979 0.556518 0.523181 0.123369
H22   H     H_    0.736346 0.669256 0.575040 0.144038
H23   H     H_    0.381904 0.746168 0.869368 0.219748
H24   H     H_    0.065620 0.636433 0.558090 0.137494
H25   H     H_    0.922699 0.720962 0.595928 0.158569
H26   H     H_    0.747887 0.402243 0.461076 0.212010
H27   H     H_    0.662530 0.536286 0.362049 0.169232
H28   H     H_    0.658903 0.531426 0.273483 0.144308
H29   H     H_    0.298119 0.695922 0.100773 0.197729
H30   H     H_    0.301674 0.700366 0.015318 0.217331
H31   H     H_    0.331194 0.484907 0.637788 0.162377
N1    N     N_R   0.512237 0.504892 0.799664 -0.357102
N2    N     N_R   0.492966 0.489054 0.200739 -0.357157
N3    N     N_R   0.222180 0.444690 0.474320 -0.102351
N4    N     N_R   0.776980 0.554780 0.525420 -0.132307
O1    O     O_R   0.366730 0.627160 0.487740 -0.613294
O2    O     O_2   0.358953 0.635292 0.188653 -0.555101
O3    O     O_2   0.609840 0.338024 0.806840 -0.553717
O4    O     O_2   0.625012 0.341406 0.214589 -0.560974
O5    O     O_R   0.544830 0.662520 0.504140 -0.618651
O6    O     O_R   0.410970 0.482310 0.563040 -0.621372
O7    O     O_R   0.589070 0.517670 0.579450 -0.618857
O8    O     O_R   0.455170 0.337480 0.495860 -0.615313
O9    O     O_R   0.633270 0.372840 0.512260 -0.632691
O10   O     O_R   0.410930 0.482330 0.420550 -0.615769
O11   O     O_R   0.589030 0.517690 0.436960 -0.646982
O12   O     O_2   0.416653 0.672594 0.790466 -0.553387
Zn1   Zn    Zn3+2 0.381080 0.476390 0.489050 0.946024
Zn2   Zn    Zn3+2 0.618920 0.523610 0.510950 0.932770
F1    F     F_    0.376323 0.766191 0.959543 -0.673284

loop_
_geom_bond_atom_site_label_1
_geom_bond_atom_site_label_2
_ccdc_geom_bond_type
C10   C27   A    
C58   C62   A    
C21   C26   A    
C35   H8    S    
C8    C66   A    
C34   O11   A    
C41   C42   A    
C56   N1    A    
C46   H10   S    
O5    Zn2   S    
C20   O2    S    
C30   F1    S    
C3    C64   A    
C2    H12   S    
C64   H2    S    
O7    Zn2   S    
C28   C29   A    
C54   H24   S    
C45   N1    A    
C15   H29   S    
C5    C6    A    
C9    C22   A    
C21   H28   S    
C15   C16   A    
C18   C19   A    
C33   H6    S    
C54   C55   A    
C16   C17   A    
C53   H25   S    
C49   H9    S    
C47   H17   S    
C1    C50   S    
C61   H26   S    
C16   C20   A    
C26   N2    S    
C66   H1    S    
C59   C60   A    
C1    O5    A    
C21   C22   A    
C27   C30   A    
C34   O10   A    
C41   C43   A    
C7    C56   A    
C4    C7    A    
C51   H20   S    
C14   H30   S    
C4    C28   A    
C44   C46   A    
C23   O8    A    
C52   N4    A    
C7    C31   A    
C52   H22   S    
N3    Zn1   S    
C24   C25   A    
C56   O3    S    
C10   C14   A    
C39   C40   A    
C12   O7    A    
C19   N2    A    
C32   H4    S    
C58   C59   A    
C23   C37   S    
C5    C45   A    
C60   C61   A    
C43   C44   A    
O6    Zn1   S    
C63   N3    A    
O1    Zn1   S    
C37   C49   A    
C8    C65   A    
C8    C12   S    
C17   C18   A    
C51   C63   A    
C37   C48   A    
C57   C61   A    
O8    Zn1   S    
C42   C50   A    
C62   N3    A    
C19   O4    S    
C40   C41   A    
C6    C30   A    
C11   C32   A    
C55   C57   A    
C9    C34   S    
N4    Zn2   S    
C22   H27   S    
C31   C35   A    
C36   C44   A    
C51   C59   A    
C52   C53   A    
C48   H13   S    
C43   C48   A    
C23   O9    A    
C46   C47   A    
C40   H15   S    
C39   H16   S    
C4    C5    A    
C2    C66   A    
C10   C13   A    
C12   O6    A    
C60   H19   S    
C9    C24   A    
C53   C54   A    
C38   C50   A    
C6    H23   S    
C57   N4    A    
C62   H21   S    
C29   C35   A    
C13   C17   A    
C63   H18   S    
C36   H11   S    
C32   C33   A    
C2    C3    A    
C25   C26   A    
C65   H31   S    
C64   C65   A    
C11   C13   A    
C3    N1    S    
C38   C39   A    
C20   N2    A    
C38   H14   S    
C1    O1    A    
O10   Zn1   S    
C25   H7    S    
C42   C47   A    
C18   C33   A    
C45   O12   S    
C31   H3    S    
C11   C29   A    
C55   C58   A    
C27   C28   A    
C14   C15   A    
O9    Zn2   S    
O11   Zn2   S    
C36   C49   A    
C24   H5    S    
