data_mof_unit_35998.cif
_audit_creation_date              2012-12-10T16:43:23-0500
_audit_creation_method            fapswitch 2.2
_symmetry_space_group_name_H-M    P1
_symmetry_Int_Tables_number       1
_space_group_crystal_system       triclinic
_cell_length_a                    10.74701
_cell_length_b                    8.680416
_cell_length_c                    7.457918
_cell_angle_alpha                 102.936052
_cell_angle_beta                  94.17376
_cell_angle_gamma                 92.426255
_cell_volume                      675.051148192

loop_
_atom_site_label
_atom_site_type_symbol
_atom_type_description
_atom_site_fract_x
_atom_site_fract_y
_atom_site_fract_z
_atom_type_partial_charge
C1    C     C_R   0.496377 0.199780 0.453290 0.888779
C2    C     C_R   0.075254 0.646147 0.601276 0.094912
C3    C     C_R   0.129872 0.509473 0.507231 -0.100128
C4    C     C_R   0.056940 0.378116 0.405137 -0.240952
C5    C     C_R   0.928113 0.376916 0.398929 -0.029487
C6    C     C_R   0.871309 0.510117 0.494991 -0.139450
C7    C     C_2   0.494821 0.031852 0.427062 -0.344454
C8    C     C_2   0.505859 0.968163 0.572957 -0.378537
C9    C     C_R   0.263004 0.502679 0.502699 0.786878
C10   C     C_R   0.503956 0.800232 0.546701 0.856066
C11   C     C_R   0.737208 0.503036 0.498073 0.792359
C12   C     C_R   0.148133 0.783395 0.696994 -0.168075
C13   C     C_R   0.091393 0.918124 0.784874 -0.141683
C14   C     C_R   0.961756 0.919289 0.777730 -0.115841
C15   C     C_R   0.888158 0.785598 0.683000 -0.153509
C16   C     C_R   0.943708 0.646878 0.594328 0.078342
Cu1   Cu    Cu3+1 0.513920 0.517380 0.684380 0.955232
Cu2   Cu    Cu3+1 0.486080 0.482620 0.315620 0.963875
H1    H     H_    0.101244 0.275105 0.331945 0.144805
H2    H     H_    0.597703 0.622084 0.051244 0.231952
H3    H     H_    0.249050 0.788897 0.703187 0.144102
H4    H     H_    0.148249 0.022511 0.857405 0.135792
H5    H     H_    0.917996 0.024665 0.844515 0.154244
H6    H     H_    0.787848 0.793301 0.677791 0.138953
H7    H     H_    0.484527 0.960289 0.286468 0.182850
H8    H     H_    0.516208 0.039710 0.713556 0.182761
H9    H     H_    0.402308 0.377909 0.948747 0.224517
N1    N     N_2   0.465100 0.456430 0.038520 -0.214320
N2    N     N_2   0.534900 0.543570 0.961480 -0.212167
O1    O     O_R   0.509050 0.286130 0.619770 -0.584121
O2    O     O_R   0.485540 0.256780 0.308360 -0.581757
O3    O     O_R   0.331410 0.514680 0.655740 -0.592666
O4    O     O_R   0.307900 0.485330 0.344330 -0.575735
O5    O     O_R   0.514460 0.743220 0.691640 -0.594619
O6    O     O_R   0.490950 0.713870 0.380230 -0.580208
O7    O     O_R   0.692100 0.514670 0.655670 -0.577546
O8    O     O_R   0.668590 0.485320 0.344260 -0.577542
C17   C     C_1   0.856136 0.235371 0.297987 0.245915
N3    N     N_1   0.798539 0.122174 0.217382 -0.299536

loop_
_geom_bond_atom_site_label_1
_geom_bond_atom_site_label_2
_ccdc_geom_bond_type
C14   H5    S    
C10   O6    A    
C3    C9    S    
Cu1   O7    S    
C13   C14   A    
C2    C16   A    
Cu2   O6    S    
C7    H7    S    
C2    C12   A    
C2    C3    A    
Cu2   N1    S    
C7    C8    D    
C10   O5    A    
C5    C17   S    
C9    O4    A    
Cu1   O1    S    
N1    N2    D    
C5    C6    A    
C1    O1    A    
Cu2   O8    S    
C13   H4    S    
Cu1   Cu2   S    
H2    N2    S    
C17   N3    T    
Cu2   O4    S    
Cu1   O5    S    
C6    C16   A    
C3    C4    A    
Cu1   N2    S    
C1    O2    A    
C8    H8    S    
C12   C13   A    
C8    C10   S    
C6    C11   S    
C11   O8    A    
Cu1   O3    S    
C14   C15   A    
C15   H6    S    
Cu2   O2    S    
C9    O3    A    
C1    C7    S    
C4    H1    S    
C12   H3    S    
C15   C16   A    
C4    C5    A    
H9    N1    S    
C11   O7    A    
