data_mof_unit_10200.cif
_audit_creation_date              2012-12-10T20:32:46-0500
_audit_creation_method            fapswitch 2.2
_symmetry_space_group_name_H-M    P1
_symmetry_Int_Tables_number       1
_space_group_crystal_system       triclinic
_cell_length_a                    11.521063
_cell_length_b                    10.704687
_cell_length_c                    9.909906
_cell_angle_alpha                 89.608699
_cell_angle_beta                  88.719586
_cell_angle_gamma                 89.771548
_cell_volume                      1221.83984203

loop_
_atom_site_label
_atom_site_type_symbol
_atom_type_description
_atom_site_fract_x
_atom_site_fract_y
_atom_site_fract_z
_atom_type_partial_charge
C1    C     C_R   0.501755 0.260177 0.500170 0.868846
C2    C     C_R   0.601541 0.504964 0.067904 0.149345
C3    C     C_R   0.600938 0.501756 0.924483 -0.133830
C4    C     C_R   0.282023 0.499610 0.501189 0.891144
C5    C     C_R   0.399223 0.516008 0.931650 0.099379
C6    C     C_3   0.289263 0.442199 0.924862 -0.221715
C7    C     C_3   0.293376 0.430246 0.078986 -0.169810
C8    C     C_R   0.500860 0.739686 0.499382 0.876861
C9    C     C_R   0.717991 0.499546 0.498792 0.900990
C10   C     C_1   0.161530 0.498327 0.502872 -0.189747
C11   C     C_1   0.059334 0.497551 0.501133 0.010373
C12   C     C_R   0.513560 0.128364 0.497601 -0.095795
C13   C     C_1   0.940730 0.497573 0.498004 -0.007358
C14   C     C_1   0.838507 0.498346 0.496806 -0.205073
C15   C     C_R   0.548706 0.061733 0.611034 -0.002402
C16   C     C_R   0.613653 0.124698 0.846342 0.195561
C17   C     C_R   0.714406 0.179383 0.788077 -0.123312
C18   C     C_R   0.804135 0.219741 0.869344 -0.183122
C19   C     C_R   0.794038 0.208658 0.009447 -0.144367
C20   C     C_R   0.693173 0.159161 0.068869 -0.119066
C21   C     C_R   0.603606 0.117169 0.988044 -0.199233
C22   C     C_R   0.183582 0.516128 0.880755 0.158933
C23   C     C_R   0.496364 0.065281 0.375889 -0.240316
C24   C     C_R   0.073719 0.460234 0.894010 -0.173411
C25   C     C_R   0.973684 0.526333 0.859403 -0.144961
C26   C     C_R   0.982102 0.648367 0.809762 -0.090445
C27   C     C_R   0.090754 0.704665 0.794509 -0.168547
C28   C     C_R   0.191098 0.639452 0.829914 -0.107859
C29   C     C_R   0.496332 0.936504 0.375002 -0.222893
C30   C     C_R   0.512449 0.871122 0.496174 -0.100065
C31   C     C_R   0.547261 0.934565 0.610042 0.077160
C32   C     C_3   0.514429 0.923509 0.756582 -0.179484
C33   C     C_3   0.519048 0.068220 0.760223 0.067451
C34   C     C_R   0.399174 0.511363 0.073190 0.115285
H1    H     H_    0.475608 0.114398 0.283596 0.162556
H2    H     H_    0.686221 0.894557 0.811770 0.197464
H3    H     H_    0.375050 0.097392 0.882839 0.164332
H4    H     H_    0.344408 0.091845 0.718818 0.173550
H5    H     H_    0.725806 0.188688 0.679857 0.119709
H6    H     H_    0.882194 0.258301 0.823240 0.135455
H7    H     H_    0.864188 0.239148 0.072029 0.127319
H8    H     H_    0.685169 0.151625 0.177628 0.146987
H9    H     H_    0.527774 0.075483 0.036089 0.111077
H10   H     H_    0.764265 0.444568 0.102634 0.167948
H11   H     H_    0.748171 0.601093 0.099004 0.163110
H12   H     H_    0.301294 0.352909 0.869433 0.190484
H13   H     H_    0.065562 0.365808 0.932949 0.129669
H14   H     H_    0.889535 0.483056 0.871279 0.121241
H15   H     H_    0.904451 0.699074 0.782664 0.128173
H16   H     H_    0.097285 0.799109 0.755467 0.125585
H17   H     H_    0.273929 0.685835 0.817248 0.126557
H18   H     H_    0.219105 0.473772 0.135314 0.179825
H19   H     H_    0.476185 0.889302 0.282064 0.168522
H20   H     H_    0.426527 0.882798 0.773699 0.155537
H21   H     H_    0.682176 0.501934 0.868103 0.150402
H22   H     H_    0.396997 0.271234 0.083224 0.199242
H23   H     H_    0.321734 0.300445 0.227426 0.228097
H24   H     H_    0.584887 0.864313 0.934569 0.185191
N1    N     N_R   0.499240 0.499140 0.142800 -0.105518
N2    N     N_R   0.499240 0.499180 0.857150 -0.106626
N3    N     N_3   0.316722 0.301605 0.122397 -0.462863
N4    N     N_3   0.604028 0.856468 0.831421 -0.430053
N5    N     N_3   0.404775 0.125473 0.786984 -0.445111
N6    N     N_3   0.709959 0.517843 0.132912 -0.393206
O1    O     O_R   0.500010 0.316790 0.614690 -0.593572
O2    O     O_R   0.500000 0.316760 0.385350 -0.638172
O3    O     O_R   0.334450 0.500030 0.614670 -0.612575
O4    O     O_R   0.334440 0.500000 0.385330 -0.627835
O5    O     O_R   0.500000 0.683240 0.614650 -0.603880
O6    O     O_R   0.499990 0.683210 0.385310 -0.620169
O7    O     O_R   0.665560 0.500000 0.614670 -0.625960
O8    O     O_R   0.665550 0.499970 0.385330 -0.580504
Zn1   Zn    Zn3+2 0.500010 0.500020 0.653130 0.954186
Zn2   Zn    Zn3+2 0.499990 0.499980 0.346870 0.945309

loop_
_geom_bond_atom_site_label_1
_geom_bond_atom_site_label_2
_ccdc_geom_bond_type
H24   N4    S    
C4    O3    A    
C1    O1    A    
C9    C14   S    
C9    O8    A    
C24   C25   A    
C15   C31   A    
C16   C21   A    
O3    Zn1   S    
C16   C33   S    
H11   N6    S    
C8    O6    A    
C31   C32   S    
C25   H14   S    
C12   C15   A    
C30   C31   A    
C33   N5    S    
C8    C30   S    
C32   C33   S    
C24   H13   S    
C6    C22   S    
N1    Zn2   S    
C2    C3    A    
C26   C27   A    
C32   N4    S    
C1    O2    A    
C22   C28   A    
C13   C14   T    
C5    C34   A    
H23   N3    S    
C20   H8    S    
C11   C13   S    
C12   C23   A    
C19   H7    S    
C8    O5    A    
C29   C30   A    
C1    C12   S    
C29   H19   S    
H2    N4    S    
H10   N6    S    
C23   C29   A    
C32   H20   S    
O5    Zn1   S    
H3    N5    S    
C2    N6    S    
C7    H18   S    
C17   C18   A    
C6    C7    S    
C23   H1    S    
O6    Zn2   S    
C5    C6    S    
C28   H17   S    
C22   C24   A    
C34   N1    A    
C21   H9    S    
C10   C11   T    
O4    Zn2   S    
O2    Zn2   S    
C9    O7    A    
N2    Zn1   S    
O1    Zn1   S    
C20   C21   A    
C27   H16   S    
O8    Zn2   S    
H4    N5    S    
C17   H5    S    
C7    C34   S    
C27   C28   A    
O7    Zn1   S    
C18   H6    S    
C2    N1    A    
C18   C19   A    
C6    H12   S    
C5    N2    A    
C25   C26   A    
H22   N3    S    
C3    N2    A    
C3    H21   S    
C15   C33   S    
C7    N3    S    
C4    O4    A    
C19   C20   A    
C4    C10   S    
C16   C17   A    
C26   H15   S    
