data_mof_unit_7568.cif
_audit_creation_date              2012-10-26T19:35:33-0400
_audit_creation_method            fapswitch 2.2
_symmetry_space_group_name_H-M    P1
_symmetry_Int_Tables_number       1
_space_group_crystal_system       triclinic
_cell_length_a                    15.880213
_cell_length_b                    10.821535
_cell_length_c                    9.57042
_cell_angle_alpha                 89.803148
_cell_angle_beta                  90.100791
_cell_angle_gamma                 89.823635
_cell_volume                      1644.64014952

loop_
_atom_site_label
_atom_site_type_symbol
_atom_type_description
_atom_site_fract_x
_atom_site_fract_y
_atom_site_fract_z
_atom_type_partial_charge
C1    C     C_R   0.499163 0.262377 0.500124 0.573502
C2    C     C_R   0.492300 0.129139 0.500370 0.015973
C3    C     C_R   0.472876 0.064980 0.376901 -0.140153
C4    C     C_R   0.340000 0.500124 0.499879 0.546400
C5    C     C_R   0.472347 0.936055 0.376761 -0.136935
C6    C     C_R   0.490811 0.870599 0.500268 0.014289
C7    C     C_R   0.499139 0.935513 0.625205 -0.019745
C8    C     C_3   0.565433 0.924630 0.735742 -0.241201
C9    C     C_3   0.568750 0.065226 0.734075 0.138930
C10   C     C_R   0.547284 0.584092 0.073393 0.096425
C11   C     C_R   0.446299 0.427207 0.074489 0.028230
C12   C     C_3   0.083637 0.500407 0.497874 0.037138
C13   C     C_R   0.445426 0.428613 0.925714 0.033925
C14   C     C_R   0.552373 0.575850 0.927244 0.117304
C15   C     C_3   0.647234 0.577309 0.932052 0.121419
C16   C     C_R   0.498479 0.737521 0.499821 0.544003
C17   C     C_3   0.639573 0.606382 0.086905 -0.207233
C18   C     C_R   0.659931 0.500217 0.499928 0.563042
C19   C     C_3   0.971458 0.384808 0.531013 -0.184383
C20   C     C_3   0.028030 0.418400 0.403937 0.159589
C21   C     C_1   0.250509 0.500556 0.499640 0.047347
C22   C     C_1   0.749284 0.500346 0.498939 0.067401
C23   C     C_3   0.971414 0.581178 0.589858 0.243279
C24   C     C_3   0.027098 0.469058 0.623245 0.206542
C25   C     C_3   0.915954 0.499556 0.496391 -0.040015
C26   C     C_3   0.027029 0.612244 0.463862 0.177170
C27   C     C_3   0.971718 0.531059 0.369225 0.187548
C28   C     C_1   0.175115 0.500781 0.499190 0.099941
C29   C     C_1   0.824611 0.500148 0.497470 0.077382
C30   C     C_R   0.500682 0.062809 0.624960 0.010143
Cu1   Cu    Cu3+1 0.500000 0.499980 0.640670 1.040195
Cu2   Cu    Cu3+1 0.500000 0.500020 0.359330 0.989411
H1    H     H_    0.623708 0.878281 0.697976 0.153431
H2    H     H_    0.460974 0.888209 0.279326 0.146108
H3    H     H_    0.539791 0.886457 0.834862 0.114989
H4    H     H_    0.950188 0.207115 0.275989 0.342995
H5    H     H_    0.659214 0.072446 0.593819 0.331286
H6    H     H_    0.809950 0.367868 0.797022 0.373752
H7    H     H_    0.042756 0.677531 0.133961 0.366074
H8    H     H_    0.006036 0.781857 0.416987 0.366568
H9    H     H_    0.991329 0.701670 0.732245 0.370590
H10   H     H_    0.006320 0.424572 0.814030 0.390124
H11   H     H_    0.548269 0.108740 0.833462 0.180213
H12   H     H_    0.404263 0.366011 0.130207 0.131286
H13   H     H_    0.402297 0.369122 0.870170 0.127007
H14   H     H_    0.674941 0.653935 0.869883 0.124264
H15   H     H_    0.673044 0.542551 0.157654 0.230029
H16   H     H_    0.652650 0.705027 0.110576 0.107608
H17   H     H_    0.948389 0.291259 0.559136 0.157012
H18   H     H_    0.461491 0.113755 0.279618 0.145421
N1    N     N_R   0.500530 0.500930 0.147930 -0.225630
N2    N     N_R   0.500530 0.500890 0.852020 -0.214713
O1    O     O_R   0.500000 0.319640 0.618810 -0.468239
O2    O     O_2   0.119294 0.213088 0.356288 -0.260488
O3    O     O_3   0.986250 0.239267 0.199841 -0.417246
O4    O     O_3   0.645923 0.112093 0.684676 -0.623885
O5    O     O_2   0.720853 0.366369 0.040545 -0.243386
O6    O     O_2   0.641091 0.342513 0.825683 -0.219909
O7    O     O_3   0.786438 0.451491 0.813171 -0.474724
O8    O     O_2   0.882923 0.469905 0.140819 -0.162084
O9    O     O_2   0.878833 0.686925 0.211743 -0.286606
O10   O     O_3   0.015172 0.603847 0.093553 -0.424285
O11   O     O_3   0.056983 0.730006 0.430409 -0.660793
O12   O     O_R   0.500010 0.319680 0.381230 -0.511145
O13   O     O_3   0.940703 0.665852 0.687435 -0.614403
O14   O     O_3   0.057219 0.438419 0.756299 -0.610385
O15   O     O_R   0.379070 0.499970 0.618770 -0.505293
O16   O     O_R   0.379080 0.500010 0.381190 -0.495849
O17   O     O_R   0.499990 0.680320 0.618770 -0.512025
O18   O     O_R   0.500000 0.680360 0.381190 -0.510454
O19   O     O_R   0.620920 0.499990 0.618810 -0.442044
O20   O     O_R   0.620930 0.500030 0.381230 -0.514021
O21   O     O_2   0.120716 0.373591 0.175150 -0.187885
S1    S     S_3+6 0.067052 0.308576 0.281377 0.088903
S2    S     S_3+6 0.697728 0.428243 0.904845 0.076569
S3    S     S_3+6 0.933727 0.574074 0.200290 0.094400

loop_
_geom_bond_atom_site_label_1
_geom_bond_atom_site_label_2
_ccdc_geom_bond_type
C15   S2    S    
C22   C29   T    
O21   S1    D    
C19   C20   S    
C17   H16   S    
Cu1   N2    S    
C7    C8    S    
Cu2   O20   S    
Cu1   O15   S    
C26   C27   S    
H8    O11   S    
C12   C28   S    
C5    C6    A    
C10   C17   S    
C1    C2    S    
C23   C26   S    
C1    O1    A    
O2    S1    D    
H5    O4    S    
C14   N2    A    
C8    C9    S    
C23   C24   S    
C24   O14   S    
Cu2   O16   S    
Cu1   O19   S    
C7    C30   A    
C25   C29   S    
O3    S1    S    
O10   S3    S    
C10   N1    A    
C3    H18   S    
O6    S2    D    
O9    S3    D    
C18   O20   A    
C9    H11   S    
C16   O18   A    
Cu2   O12   S    
C10   C14   A    
C4    O16   A    
H9    O13   S    
O8    S3    D    
C12   C26   S    
C8    H3    S    
C26   O11   S    
Cu2   N1    S    
C13   N2    A    
C19   H17   S    
Cu1   Cu2   S    
C5    H2    S    
C12   C20   S    
C20   S1    S    
C11   H12   S    
C9    O4    S    
Cu1   O1    S    
C9    C30   S    
C21   C28   T    
C27   S3    S    
C1    O12   A    
O7    S2    S    
C18   O19   A    
C15   C17   S    
H7    O10   S    
C18   C22   S    
C16   O17   A    
C17   H15   S    
C3    C5    A    
C4    O15   A    
Cu2   O18   S    
C6    C7    A    
C20   C27   S    
C25   C27   S    
C12   C24   S    
C2    C30   A    
C23   O13   S    
C2    C3    A    
H4    O3    S    
C13   H13   S    
C4    C21   S    
C11   C13   A    
O5    S2    D    
C19   C24   S    
C8    H1    S    
C23   C25   S    
C19   C25   S    
C11   N1    A    
C6    C16   S    
H6    O7    S    
Cu1   O17   S    
H10   O14   S    
C14   C15   S    
C15   H14   S    
