data_mof_unit_64996.cif
_audit_creation_date              2013-03-05T15:40:09-0500
_audit_creation_method            fapswitch 2.2
_symmetry_space_group_name_H-M    P1
_symmetry_Int_Tables_number       1
_space_group_crystal_system       triclinic
_cell_length_a                    30.172706
_cell_length_b                    31.307808
_cell_length_c                    21.829656
_cell_angle_alpha                 89.955913
_cell_angle_beta                  135.215447
_cell_angle_gamma                 90.068095
_cell_volume                      14526.443248

loop_
_atom_site_label
_atom_site_type_symbol
_atom_site_description
_atom_site_fract_x
_atom_site_fract_y
_atom_site_fract_z
_atom_type_partial_charge
O1    O     O_R   0.679710 0.768740 0.859430 -0.577446
O2    O     O_R   0.320290 0.768740 0.140570 -0.577672
O3    O     O_R   0.179710 0.268740 0.859430 -0.577723
O4    O     O_R   0.820290 0.268740 0.140570 -0.574961
O5    O     O_R   0.731220 0.820270 0.962460 -0.576421
O6    O     O_R   0.268780 0.820270 0.037540 -0.575769
O7    O     O_R   0.231220 0.320270 0.962460 -0.576398
O8    O     O_R   0.768780 0.320270 0.037540 -0.578159
C1    C     C_R   0.689554 0.808403 0.881744 0.839681
C2    C     C_R   0.310431 0.808407 0.118255 0.844140
C3    C     C_R   0.189554 0.308403 0.881743 0.839801
C4    C     C_R   0.810078 0.308644 0.117805 0.842468
O9    O     O_R   0.659370 0.724200 0.948480 -0.579716
O10   O     O_R   0.340630 0.724200 0.051520 -0.579929
O11   O     O_R   0.159370 0.224200 0.948480 -0.579568
O12   O     O_R   0.840630 0.224200 0.051520 -0.583312
O13   O     O_R   0.710880 0.775730 0.051510 -0.572818
O14   O     O_R   0.289120 0.775730 0.948490 -0.572718
O15   O     O_R   0.210880 0.275730 0.051510 -0.572733
O16   O     O_R   0.789120 0.275730 0.948490 -0.569539
C5    C     C_R   0.664020 0.749786 0.999386 0.806685
C6    C     C_R   0.335948 0.749800 0.000551 0.806907
C7    C     C_R   0.164030 0.249778 0.999399 0.806892
C8    C     C_R   0.835951 0.249800 0.000551 0.806996
Cu1   Cu    Cu3+1 0.719490 0.719480 0.938970 1.015924
Cu2   Cu    Cu3+1 0.280510 0.719480 0.061030 1.008338
Cu3   Cu    Cu3+1 0.219490 0.219480 0.938970 1.014741
Cu4   Cu    Cu3+1 0.780510 0.219480 0.061030 1.004914
Cu5   Cu    Cu3+1 0.780480 0.780500 0.060980 1.012669
Cu6   Cu    Cu3+1 0.219520 0.780500 0.939020 1.015163
Cu7   Cu    Cu3+1 0.280480 0.280500 0.060980 1.012498
Cu8   Cu    Cu3+1 0.719520 0.280500 0.939020 1.018115
O17   O     O_R   0.768760 0.679710 0.037490 -0.575075
O18   O     O_R   0.231240 0.679710 0.962510 -0.576645
O19   O     O_R   0.268760 0.179710 0.037490 -0.575523
O20   O     O_R   0.731240 0.179710 0.962510 -0.575964
O21   O     O_R   0.820270 0.731240 0.140520 -0.581015
O22   O     O_R   0.179730 0.731240 0.859480 -0.580623
O23   O     O_R   0.320270 0.231240 0.140520 -0.580913
O24   O     O_R   0.679730 0.231240 0.859480 -0.580893
O25   O     O_R   0.789100 0.724240 0.948440 -0.575397
O26   O     O_R   0.210900 0.724240 0.051560 -0.583029
O27   O     O_R   0.289100 0.224240 0.948440 -0.575732
O28   O     O_R   0.710900 0.224240 0.051560 -0.581930
O29   O     O_R   0.840600 0.775770 0.051470 -0.583834
O30   O     O_R   0.159400 0.775770 0.948530 -0.581308
O31   O     O_R   0.340600 0.275770 0.051470 -0.583811
O32   O     O_R   0.659400 0.275770 0.948530 -0.582631
C9    C     C_R   0.812043 0.691773 0.118105 0.841238
C10   C     C_R   0.187927 0.691765 0.881907 0.841147
C11   C     C_R   0.312069 0.191773 0.118099 0.841161
C12   C     C_R   0.687982 0.191763 0.881893 0.840829
C13   C     C_R   0.835805 0.750344 0.000266 0.788945
C14   C     C_R   0.164270 0.750391 0.999867 0.792845
C15   C     C_R   0.335804 0.250344 0.000266 0.788830
C16   C     C_R   0.664269 0.250391 0.999866 0.792749
C17   C     C_R   0.406134 0.788730 0.998724 -0.141236
C18   C     C_R   0.593696 0.788719 0.000743 -0.141024
C19   C     C_R   0.905816 0.288713 0.998069 -0.140982
C20   C     C_R   0.093399 0.288712 0.000135 -0.141156
C21   C     C_R   0.384911 0.749835 0.001800 -0.077454
C22   C     C_R   0.614966 0.749816 0.997952 -0.077489
C23   C     C_R   0.884913 0.249833 0.001784 -0.079719
C24   C     C_R   0.114981 0.249802 0.997961 -0.077325
C25   C     C_R   0.409380 0.711289 0.004225 -0.204731
C26   C     C_R   0.590481 0.711270 0.995683 -0.205004
C27   C     C_R   0.909703 0.211297 0.004828 -0.205836
C28   C     C_R   0.090810 0.211246 0.996295 -0.205056
C29   C     C_R   0.454500 0.711369 0.001998 0.143587
C30   C     C_R   0.545322 0.711360 0.997840 0.143622
C31   C     C_R   0.954824 0.211368 0.002599 0.143450
C32   C     C_R   0.045650 0.211342 0.998448 0.143482
C33   C     C_R   0.476659 0.750682 0.999912 0.022895
C34   C     C_R   0.523140 0.750679 0.999683 0.022861
C35   C     C_R   0.976656 0.250671 0.999876 0.023148
C36   C     C_R   0.023141 0.250667 0.999655 0.022718
C37   C     C_R   0.452375 0.789775 0.998213 -0.063115
C38   C     C_R   0.547417 0.789771 0.001173 -0.063158
C39   C     C_R   0.952042 0.289755 0.997532 -0.063885
C40   C     C_R   0.047097 0.289764 0.000520 -0.062805
C41   C     C_R   0.477561 0.672722 0.001430 -0.181146
C42   C     C_R   0.522266 0.672717 0.998612 -0.181059
C43   C     C_R   0.978206 0.172720 0.002658 -0.181551
C44   C     C_R   0.022912 0.172704 0.999841 -0.181035
C45   C     C_R   0.524055 0.828891 0.001175 0.242838
C46   C     C_R   0.475707 0.828892 0.997954 0.242620
C47   C     C_R   0.023397 0.328882 0.999860 0.242647
C48   C     C_R   0.975038 0.328869 0.996616 0.240726
H1    H     H_    0.387141 0.818016 0.998793 0.188827
H2    H     H_    0.612703 0.818001 0.000551 0.188784
H3    H     H_    0.886587 0.318002 0.997661 0.192453
H4    H     H_    0.112178 0.317991 0.999493 0.188590
H5    H     H_    0.392172 0.681300 0.005817 0.155378
H6    H     H_    0.607721 0.681277 0.994301 0.155465
H7    H     H_    0.892747 0.181313 0.006906 0.155874
H8    H     H_    0.108298 0.181251 0.995386 0.155330
H9    H     H_    0.460702 0.642465 0.002625 0.158856
H10   H     H_    0.539139 0.642455 0.997599 0.159004
H11   H     H_    0.961599 0.142468 0.004342 0.158973
H12   H     H_    0.040037 0.142439 0.999317 0.159210
C49   C     C_2   0.596401 0.908247 0.749605 -0.136399
C50   C     C_2   0.403471 0.908344 0.250329 -0.138442
C51   C     C_2   0.096413 0.408250 0.749607 -0.134326
C52   C     C_2   0.938613 0.374209 0.321177 -0.135982
C53   C     C_2   0.597731 0.911080 0.689670 -0.298273
C54   C     C_2   0.402166 0.911096 0.310292 -0.296204
C55   C     C_2   0.097717 0.411069 0.689645 -0.298303
C56   C     C_2   0.908717 0.404774 0.323475 -0.292596
H13   H     H_    0.567739 0.930103 0.748169 0.177068
H14   H     H_    0.432130 0.930265 0.251753 0.177113
H15   H     H_    0.067776 0.430121 0.748200 0.177126
H16   H     H_    0.989538 0.374746 0.367006 0.174339
H17   H     H_    0.631335 0.892497 0.696317 0.165166
H18   H     H_    0.368564 0.892448 0.303664 0.170092
H19   H     H_    0.131296 0.392470 0.696256 0.163419
H20   H     H_    0.858855 0.401802 0.284603 0.167192
C57   C     C_2   0.637092 0.877790 0.822385 -0.135744
C58   C     C_2   0.362787 0.877874 0.177558 -0.137096
C59   C     C_2   0.137104 0.377793 0.822388 -0.136002
C60   C     C_2   0.903852 0.337792 0.260567 -0.134057
C61   C     C_2   0.651860 0.839910 0.812258 -0.301465
C62   C     C_2   0.348095 0.839927 0.187733 -0.295184
C63   C     C_2   0.151858 0.339908 0.812254 -0.301850
C64   C     C_2   0.844713 0.342563 0.182502 -0.288598
H21   H     H_    0.652055 0.885673 0.883279 0.179340
H22   H     H_    0.347788 0.885804 0.116641 0.179361
H23   H     H_    0.152081 0.385683 0.883290 0.179355
H24   H     H_    0.928464 0.307769 0.277998 0.172674
H25   H     H_    0.631335 0.830069 0.748795 0.165744
H26   H     H_    0.368653 0.830057 0.251215 0.167467
H27   H     H_    0.131320 0.330061 0.748786 0.164916
H28   H     H_    0.822618 0.373832 0.161332 0.162471
C65   C     C_R   0.133759 0.750858 0.079189 -0.164096
C66   C     C_R   0.866576 0.749620 0.921375 -0.163959
C67   C     C_R   0.633758 0.250847 0.079189 -0.164192
C68   C     C_R   0.366575 0.249633 0.921374 -0.164570
C69   C     C_R   0.116110 0.751637 0.000143 -0.073989
C70   C     C_R   0.884162 0.751191 0.000337 -0.074924
C71   C     C_R   0.616109 0.251636 0.000142 -0.074705
C72   C     C_R   0.384162 0.251191 0.000338 -0.074893
C73   C     C_R   0.052671 0.753471 0.921527 -0.190583
C74   C     C_R   0.947591 0.753147 0.078964 -0.190712
C75   C     C_R   0.552671 0.253482 0.921528 -0.191240
C76   C     C_R   0.447592 0.253136 0.078966 -0.190972
C77   C     C_R   0.006227 0.752885 0.921159 0.067376
C78   C     C_R   0.994071 0.752974 0.079371 0.067790
C79   C     C_R   0.506226 0.252897 0.921159 0.067297
C80   C     C_R   0.494072 0.252963 0.079373 0.067813
C81   C     C_R   0.023686 0.752680 0.000689 0.022537
C82   C     C_R   0.976656 0.751868 0.999887 0.022806
C83   C     C_R   0.523686 0.252681 0.000690 0.022605
C84   C     C_R   0.476656 0.251869 0.999887 0.022648
C85   C     C_R   0.088130 0.753048 0.080833 -0.002559
C86   C     C_R   0.912275 0.749868 0.919781 -0.003215
C87   C     C_R   0.588130 0.253037 0.080833 -0.003011
C88   C     C_R   0.412274 0.249882 0.919780 -0.003344
C89   C     C_R   0.942687 0.751665 0.842253 -0.247220
C90   C     C_R   0.057630 0.754128 0.158273 -0.248411
C91   C     C_R   0.442686 0.251690 0.842253 -0.247823
C92   C     C_R   0.557631 0.254106 0.158275 -0.248537
C93   C     C_R   0.895486 0.749162 0.840522 0.327738
C94   C     C_R   0.104957 0.754467 0.160093 0.328878
C95   C     C_R   0.395485 0.249188 0.840520 0.328252
C96   C     C_R   0.604958 0.254444 0.160095 0.328048
H29   H     H_    0.183262 0.748738 0.138829 0.196199
H30   H     H_    0.816970 0.749503 0.861671 0.194513
H31   H     H_    0.683261 0.248718 0.138827 0.197389
H32   H     H_    0.316969 0.249525 0.861670 0.194269
H33   H     H_    0.039571 0.753774 0.860644 0.148834
H34   H     H_    0.960639 0.754089 0.139790 0.149537
H35   H     H_    0.539570 0.253793 0.860644 0.148847
H36   H     H_    0.460640 0.254068 0.139792 0.149509
H37   H     H_    0.929681 0.751204 0.781470 0.188186
H38   H     H_    0.070620 0.755470 0.219009 0.188292
H39   H     H_    0.429679 0.251239 0.781469 0.188075
H40   H     H_    0.570622 0.255438 0.219012 0.188291
C97   C     C_2   0.904394 0.592295 0.250946 -0.220070
C98   C     C_2   0.096267 0.591975 0.749526 -0.223770
C99   C     C_2   0.404092 0.092161 0.250701 -0.223670
C100  C     C_2   0.595627 0.092229 0.749052 -0.223875
C101  C     C_2   0.898331 0.586681 0.305845 0.126748
C102  C     C_2   0.101497 0.586947 0.693656 0.130193
C103  C     C_2   0.398452 0.086815 0.306097 0.130033
C104  C     C_2   0.601810 0.086607 0.694294 0.129911
H41   H     H_    0.939120 0.574211 0.259353 0.164212
H42   H     H_    0.062357 0.573266 0.742107 0.160700
H43   H     H_    0.438391 0.073782 0.258594 0.160912
H44   H     H_    0.560761 0.074176 0.740481 0.161193
C105  C     C_2   0.862997 0.621548 0.176226 -0.113490
C106  C     C_2   0.137685 0.621275 0.824166 -0.114874
C107  C     C_2   0.362684 0.121436 0.176022 -0.113551
C108  C     C_2   0.637002 0.121501 0.823757 -0.114623
C109  C     C_2   0.853465 0.661055 0.188106 -0.246181
C110  C     C_2   0.146380 0.661023 0.811961 -0.245707
C111  C     C_2   0.353579 0.161052 0.188071 -0.245773
C112  C     C_2   0.646637 0.161014 0.811898 -0.245226
H45   H     H_    0.842800 0.611287 0.113144 0.175426
H46   H     H_    0.158685 0.610786 0.887555 0.173803
H47   H     H_    0.342059 0.111065 0.112774 0.174556
H48   H     H_    0.657051 0.111265 0.886785 0.173311
H49   H     H_    0.879733 0.672125 0.253596 0.189352
H50   H     H_    0.119420 0.672224 0.746320 0.189657
H51   H     H_    0.380217 0.172186 0.253644 0.189363
H52   H     H_    0.620498 0.172062 0.746432 0.189188
O33   O     O_R   0.006940 0.544490 0.589000 -0.596155
O34   O     O_R   0.993060 0.544490 0.411000 -0.592590
O35   O     O_R   0.506940 0.044490 0.589000 -0.596480
O36   O     O_R   0.493060 0.044490 0.411000 -0.596510
O37   O     O_R   0.082020 0.544510 0.588970 -0.536047
O38   O     O_R   0.917980 0.544510 0.411030 -0.535580
O39   O     O_R   0.582020 0.044510 0.588970 -0.535822
O40   O     O_R   0.417980 0.044510 0.411030 -0.535471
C113  C     C_R   0.060802 0.557484 0.620104 0.792944
C114  C     C_R   0.939162 0.557420 0.379769 0.798501
C115  C     C_R   0.560881 0.057404 0.620264 0.792683
C116  C     C_R   0.439194 0.057453 0.379832 0.792958
O41   O     O_R   0.506970 0.955460 0.589020 -0.578669
O42   O     O_R   0.493030 0.955460 0.410980 -0.579729
O43   O     O_R   0.006970 0.455460 0.589020 -0.577993
O44   O     O_R   0.993030 0.455460 0.410980 -0.579462
O45   O     O_R   0.582050 0.955480 0.588990 -0.576781
O46   O     O_R   0.417950 0.955480 0.411010 -0.574470
O47   O     O_R   0.082050 0.455480 0.588990 -0.582016
O48   O     O_R   0.917950 0.455480 0.411010 -0.574372
C117  C     C_R   0.560170 0.942144 0.619289 0.834855
C118  C     C_R   0.439797 0.942146 0.380705 0.834577
C119  C     C_R   0.060169 0.442142 0.619286 0.829280
C120  C     C_R   0.941839 0.440217 0.384721 0.833615
Cu9   Cu    Cu3+1 0.455530 0.999980 0.499990 1.037919
Cu10  Cu    Cu3+1 0.544470 0.999980 0.500010 1.034641
Cu11  Cu    Cu3+1 0.955530 0.499980 0.499990 1.038635
Cu12  Cu    Cu3+1 0.044470 0.499980 0.500010 1.033948
N1    N     N_R   0.831206 0.745183 0.757915 0.120805
O49   O     O_R   0.796671 0.713920 0.744443 -0.336543
O50   O     O_R   0.811137 0.767375 0.691755 -0.326779
N2    N     N_R   0.169406 0.757467 0.242738 0.124047
O51   O     O_R   0.205754 0.787008 0.255808 -0.351011
O52   O     O_R   0.188228 0.736349 0.309177 -0.322127
N3    N     N_R   0.331202 0.245225 0.757910 0.120256
O53   O     O_R   0.296655 0.213964 0.744414 -0.338188
O54   O     O_R   0.311141 0.267430 0.691768 -0.329491
N4    N     N_R   0.669408 0.257431 0.242741 0.124243
O55   O     O_R   0.705765 0.286972 0.255830 -0.347752
O56   O     O_R   0.688225 0.236302 0.309167 -0.321709
Br1   Br    Br    0.827052 0.609232 0.281259 -0.466173
Br2   Br    Br    0.171559 0.610583 0.716322 -0.466461
Br3   Br    Br    0.327792 0.109866 0.282482 -0.465817
Br4   Br    Br    0.673304 0.109091 0.719204 -0.465882
N5    N     N_R   0.548101 0.868824 0.002361 0.146140
O57   O     O_R   0.606650 0.879075 0.069161 -0.322947
O58   O     O_R   0.510259 0.896628 0.940677 -0.279104
N6    N     N_R   0.451637 0.868826 0.996518 0.146251
O59   O     O_R   0.393069 0.878958 0.929683 -0.321897
O60   O     O_R   0.489464 0.896738 0.058003 -0.279353
N7    N     N_R   0.047100 0.368817 0.000376 0.146015
O61   O     O_R   0.105552 0.379347 0.067021 -0.323175
O62   O     O_R   0.009027 0.396359 0.938198 -0.278662
N8    N     N_R   0.950602 0.368796 0.994462 0.147843
O63   O     O_R   0.891947 0.378644 0.927434 -0.317724
O64   O     O_R   0.988176 0.396977 0.055435 -0.275101

loop_
_geom_bond_atom_site_label_1
_geom_bond_atom_site_label_2
_geom_bond_distance
_ccdc_geom_bond_type
O12   Cu4   1.972144 S    
C90   C94   1.400091 A    
O23   C11   1.286807 A    
C47   C48   1.409730 A    
N7    O62   1.301028 A    
C65   C69   1.399033 A    
O39   Cu10  1.968671 S    
C89   C93   1.399705 A    
O21   C9    1.286698 A    
Cu8   O32   1.972167 S    
C33   C34   1.406015 A    
C74   C78   1.396155 A    
C86   C93   1.416542 A    
O39   C115  1.286868 A    
N3    O53   1.301257 A    
C12   C112  1.453043 S    
O3    C3    1.289238 A    
O32   C16   1.293825 A    
C76   C80   1.396156 A    
C96   N4    1.436961 S    
C41   C42   1.393213 A    
C109  H49   1.088022 S    
C66   C86   1.403764 A    
C45   C46   1.409762 A    
C25   C29   1.396335 A    
C45   N5    1.435726 S    
C64   H28   1.086214 S    
N5    O57   1.301084 A    
C28   H8    1.084775 S    
C17   H1    1.082367 S    
C54   H18   1.086368 S    
C65   C85   1.404196 A    
O37   C113  1.286669 A    
C108  C112  1.336891 D    
C53   H17   1.086292 S    
C107  H47   1.086043 S    
C40   C47   1.413807 A    
C102  Br2   1.942528 S    
C100  C104  1.345941 D    
C58   C62   1.339934 D    
C60   H24   1.086185 S    
C98   C106  1.472125 S    
O47   C119  1.290886 A    
C8    C23   1.458342 S    
C14   C69   1.457961 S    
C99   H43   1.086258 S    
O46   C118  1.290959 A    
O17   C9    1.297125 A    
C110  H50   1.087767 S    
O45   C117  1.290888 A    
C97   H41   1.086439 S    
N2    O51   1.301310 A    
Cu6   O22   1.968573 S    
C111  H51   1.087865 S    
C51   H15   1.086316 S    
C80   C92   1.398860 A    
C81   C85   1.418726 A    
O42   Cu10  1.961114 S    
C57   C61   1.339906 D    
C100  H44   1.086530 S    
O41   Cu9   1.961610 S    
O29   C13   1.294421 A    
C78   C82   1.412006 A    
C71   C75   1.396222 A    
C68   C72   1.398893 A    
C90   H38   1.084262 S    
O1    C1    1.289250 A    
C84   C88   1.418888 A    
O46   Cu9   1.968142 S    
Cu7   O23   1.968715 S    
C55   C119  1.455747 S    
O45   Cu10  1.967934 S    
C30   C34   1.416057 A    
C102  C113  1.462039 S    
C1    C61   1.455623 S    
C83   C84   1.406854 A    
C54   C118  1.455708 S    
C29   C33   1.416025 A    
C101  C114  1.462672 S    
O14   Cu6   1.964579 S    
C83   C87   1.418727 A    
C112  H52   1.088076 S    
N1    O49   1.301253 A    
C31   C43   1.400915 A    
C50   C58   1.473718 S    
C105  C109  1.336824 D    
C48   N8    1.435716 S    
C74   H34   1.084853 S    
C94   N2    1.436958 S    
O34   C114  1.304074 A    
O11   C7    1.294536 A    
C49   H13   1.086293 S    
O15   Cu7   1.964224 S    
O12   C8    1.294676 A    
Cu7   O31   1.972515 S    
C27   H7    1.084767 S    
C104  Br4   1.943290 S    
O9    Cu1   1.972491 S    
O48   C120  1.290605 A    
O35   C115  1.303937 A    
C39   C48   1.413881 A    
O4    Cu4   1.968575 S    
Cu2   O18   1.961349 S    
C66   H30   1.081569 S    
O7    C3    1.295629 A    
O5    Cu5   1.961499 S    
O3    Cu3   1.968717 S    
C20   H4    1.082380 S    
Cu1   Cu5   2.678039 S    
O11   Cu3   1.972491 S    
C23   C27   1.396747 A    
N5    O58   1.301030 A    
C49   C53   1.339993 D    
O7    Cu7   1.961497 S    
C22   C26   1.396653 A    
Cu3   Cu7   2.678041 S    
C13   C70   1.458192 S    
O8    Cu8   1.961355 S    
C99   C103  1.345747 D    
C17   C37   1.403493 A    
Cu4   Cu8   2.678238 S    
C97   C105  1.472335 S    
C88   C95   1.416545 A    
O2    Cu2   1.968575 S    
C100  C108  1.472217 S    
C67   C87   1.404198 A    
Cu1   O25   1.964500 S    
C52   H16   1.086264 S    
C16   C71   1.457966 S    
C106  C110  1.336554 D    
O15   C7    1.291681 A    
O35   Cu9   1.960626 S    
C104  C115  1.462609 S    
C19   H3    1.082339 S    
C56   C120  1.456187 S    
Cu3   O19   1.961491 S    
O24   C12   1.286776 A    
O34   Cu12  1.961122 S    
Cu4   O28   1.964851 S    
O13   C5    1.291705 A    
C15   C72   1.458188 S    
O44   Cu12  1.961114 S    
Cu5   O29   1.972515 S    
C28   C32   1.396364 A    
C43   H11   1.083725 S    
O37   Cu12  1.968671 S    
C44   H12   1.083723 S    
C75   C79   1.395755 A    
C35   C36   1.406007 A    
C66   C70   1.398895 A    
Cu9   Cu10  2.683252 S    
C65   H29   1.081688 S    
C91   H39   1.084289 S    
N1    O50   1.301258 A    
O36   Cu10  1.961122 S    
O28   C16   1.292606 A    
N6    O60   1.301036 A    
N4    O56   1.301277 A    
C43   C44   1.393228 A    
C4    C64   1.455675 S    
O43   Cu11  1.961610 S    
O8    C4    1.286875 A    
O25   C13   1.291996 A    
O30   C14   1.293820 A    
Cu1   O17   1.961491 S    
C73   H33   1.084901 S    
N4    O55   1.301314 A    
O9    C5    1.294619 A    
C32   C36   1.416044 A    
N3    O54   1.301257 A    
C103  Br3   1.942926 S    
O10   Cu2   1.972144 S    
C18   H2    1.082375 S    
C55   H19   1.086310 S    
C5    C22   1.458062 S    
C32   C44   1.400902 A    
C51   C59   1.473882 S    
C18   C22   1.398726 A    
C78   C90   1.398854 A    
C38   C45   1.413858 A    
O27   C15   1.291994 A    
C7    C24   1.457852 S    
O6    Cu6   1.961355 S    
C46   N6    1.435732 S    
C31   C35   1.416021 A    
C37   C46   1.413861 A    
Cu2   Cu6   2.678238 S    
O38   Cu11  1.968461 S    
C53   C117  1.455799 S    
C70   C74   1.396213 A    
C42   H10   1.083725 S    
C91   C95   1.399700 A    
C50   H14   1.086378 S    
O4    C4    1.298193 A    
C19   C39   1.403465 A    
N7    O61   1.301079 A    
O2    C2    1.289298 A    
C24   C28   1.396624 A    
C92   C96   1.400094 A    
N8    O64   1.301042 A    
C52   C56   1.341003 D    
Cu8   O24   1.968573 S    
C95   N3    1.436697 S    
O47   Cu12  1.967934 S    
C106  H46   1.085931 S    
O31   C15   1.294419 A    
C79   C91   1.398648 A    
O16   Cu8   1.964579 S    
C105  H45   1.086205 S    
C103  C116  1.462416 S    
Cu2   O26   1.964851 S    
C69   C73   1.396217 A    
C20   C40   1.403436 A    
C33   C37   1.414109 A    
C63   H27   1.086311 S    
O14   C6    1.291849 A    
C92   H40   1.084262 S    
Cu6   O30   1.972167 S    
C3    C63   1.455618 S    
C80   C84   1.412009 A    
C61   H25   1.086281 S    
C2    C62   1.455532 S    
C93   N1    1.436692 S    
O20   C12   1.297140 A    
O42   C118  1.297038 A    
O6    C2    1.295644 A    
O18   C10   1.297038 A    
C21   C25   1.396690 A    
C36   C40   1.414112 A    
O1    Cu1   1.968717 S    
O44   C120  1.297647 A    
C17   C21   1.398730 A    
O22   C10   1.286902 A    
C59   C63   1.339924 D    
C87   C96   1.416507 A    
C98   C102  1.345606 D    
C62   H26   1.086378 S    
C68   H32   1.081572 S    
C77   C89   1.398645 A    
C76   H36   1.084853 S    
C27   C31   1.396369 A    
C19   C23   1.398804 A    
C26   H6    1.084773 S    
C85   C94   1.416509 A    
C20   C24   1.398621 A    
C67   C71   1.399034 A    
C49   C57   1.473893 S    
C56   H20   1.086150 S    
C72   C76   1.396215 A    
N8    O63   1.301081 A    
C75   H35   1.084902 S    
O33   Cu11  1.960626 S    
O38   C114  1.286727 A    
O13   Cu5   1.964223 S    
O26   C14   1.292610 A    
C6    C21   1.458129 S    
O19   C11   1.297065 A    
O40   Cu9   1.968461 S    
C10   C110  1.453110 S    
O10   C6    1.294616 A    
C26   C30   1.396365 A    
O41   C117  1.297152 A    
C9    C109  1.453098 S    
C59   H23   1.086338 S    
C97   C101  1.345910 D    
C79   C83   1.411864 A    
O40   C116  1.286654 A    
C25   H5    1.084772 S    
C73   C77   1.395753 A    
C41   H9    1.083727 S    
N2    O52   1.301272 A    
C50   C54   1.340052 D    
C101  Br1   1.943300 S    
C108  H48   1.086280 S    
C68   C88   1.403765 A    
C30   C42   1.400899 A    
C107  C111  1.336733 D    
C47   N7    1.435718 S    
C29   C41   1.400910 A    
C18   C38   1.403465 A    
O33   C113  1.303877 A    
C98   H42   1.086123 S    
Cu3   O27   1.964500 S    
O48   Cu11  1.968142 S    
C99   C107  1.472339 S    
Cu4   O20   1.961349 S    
O36   C116  1.304060 A    
C82   C86   1.418884 A    
Cu5   O21   1.968712 S    
Cu11  Cu12  2.683252 S    
C67   H31   1.081689 S    
C51   C55   1.340011 D    
O5    C1    1.295619 A    
C58   H22   1.086406 S    
O43   C119  1.297160 A    
C81   C82   1.406856 A    
C57   H21   1.086308 S    
C35   C39   1.414069 A    
O16   C8    1.291899 A    
C11   C111  1.453196 S    
C77   C81   1.411863 A    
C60   C64   1.339456 D    
C89   H37   1.084286 S    
N6    O59   1.301079 A    
C52   C60   1.476526 S    
C34   C38   1.414090 A    
