data_mof_unit_31317.cif
_audit_creation_date              2012-12-11T15:48:39-0500
_audit_creation_method            fapswitch 2.2
_symmetry_space_group_name_H-M    P1
_symmetry_Int_Tables_number       1
_space_group_crystal_system       triclinic
_cell_length_a                    10.952006
_cell_length_b                    10.972739
_cell_length_c                    18.802584
_cell_angle_alpha                 90.534249
_cell_angle_beta                  90.14405
_cell_angle_gamma                 60.163412
_cell_volume                      1959.97027845

loop_
_atom_site_label
_atom_site_type_symbol
_atom_type_description
_atom_site_fract_x
_atom_site_fract_y
_atom_site_fract_z
_atom_type_partial_charge
C1    C     C_R   0.240042 0.645504 0.610446 0.540279
C2    C     C_3   0.638686 0.576952 0.799528 -0.257786
C3    C     C_3   0.699581 0.675033 0.811397 0.062496
C4    C     C_3   0.671725 0.649090 0.675137 0.033003
C5    C     C_3   0.828716 0.591978 0.693070 -0.256593
C6    C     C_3   0.614299 0.568894 0.719544 -0.226836
C7    C     C_R   0.680955 0.154895 0.822944 0.006249
C8    C     C_R   0.775463 0.181449 0.785871 -0.008124
C9    C     C_R   0.769668 0.191040 0.711864 0.014549
C10   C     C_R   0.578266 0.143031 0.710168 -0.187026
C11   C     C_R   0.574308 0.149029 0.783273 -0.173705
C12   C     C_R   0.655134 0.623616 0.599964 0.541131
C13   C     C_3   0.931380 0.106129 0.787268 -0.268125
C14   C     C_3   0.926594 0.114331 0.706692 -0.275300
C15   C     C_R   0.673433 0.167662 0.672827 0.009606
C16   C     C_R   0.179521 0.668523 0.834845 0.015141
C17   C     C_R   0.155385 0.575717 0.793930 0.017662
C18   C     C_R   0.163478 0.573760 0.720183 -0.006619
C19   C     C_R   0.212680 0.764357 0.725769 -0.182216
C20   C     C_R   0.209000 0.762715 0.799581 -0.188276
C21   C     C_3   0.230610 0.419627 0.797446 -0.273842
C22   C     C_3   0.236866 0.417785 0.716924 -0.265885
C23   C     C_R   0.630045 0.226401 0.602072 0.538003
C24   C     C_R   0.195105 0.665906 0.684724 0.012498
C25   C     C_R   0.651822 0.658550 0.165171 0.017439
C26   C     C_R   0.747806 0.536676 0.201699 0.030621
C27   C     C_R   0.743637 0.530503 0.274342 0.037693
C28   C     C_R   0.530985 0.753633 0.277932 -0.162627
C29   C     C_R   0.534353 0.760762 0.203161 -0.171803
C30   C     C_3   0.906146 0.455373 0.202374 -0.265992
C31   C     C_3   0.899486 0.451550 0.282406 -0.280646
C32   C     C_R   0.643362 0.642365 0.314481 0.019202
C33   C     C_R   0.634096 0.190532 0.168488 0.019578
C34   C     C_R   0.220569 0.649084 0.402050 0.555125
C35   C     C_R   0.516633 0.207926 0.206504 0.019626
C36   C     C_R   0.513551 0.219436 0.279262 0.033000
C37   C     C_R   0.729546 0.225929 0.277595 -0.154050
C38   C     C_R   0.731278 0.217798 0.203409 -0.155303
C39   C     C_3   0.448401 0.118876 0.208801 -0.270188
C40   C     C_3   0.444558 0.133056 0.288868 -0.280121
C41   C     C_R   0.626469 0.213858 0.316323 0.021600
C42   C     C_R   0.117861 0.690632 0.188629 0.024777
C43   C     C_R   0.069934 0.810655 0.231527 0.046666
C44   C     C_R   0.082648 0.802106 0.303884 0.014592
C45   C     C_R   0.639270 0.619779 0.390524 0.545957
C46   C     C_R   0.173757 0.551519 0.294457 -0.164766
C47   C     C_R   0.160957 0.561252 0.220697 -0.179763
C48   C     C_3   0.102161 0.927580 0.227612 -0.263893
C49   C     C_3   0.111915 0.921929 0.307705 -0.274099
C50   C     C_R   0.147560 0.670547 0.335686 0.017436
C51   C     C_R   0.701747 0.100679 0.895522 0.534632
C52   C     C_R   0.723409 0.688153 0.887980 0.555663
C53   C     C_R   0.118783 0.705721 0.905959 0.540261
C54   C     C_R   0.672537 0.111732 0.102347 0.545367
C55   C     C_R   0.694991 0.688536 0.096892 0.542555
C56   C     C_R   0.612011 0.238202 0.392240 0.547655
C57   C     C_R   0.089161 0.712115 0.113863 0.546653
C58   C     C_3   0.602495 0.822014 0.776495 0.115045
C59   C     C_3   0.588405 0.806433 0.695499 -0.221645
C60   C     C_3   0.843923 0.611280 0.772558 -0.260014
Cr1   Cr    Cr6+3 0.392960 0.397920 0.502240 1.004341
Cr2   Cr    Cr6+3 0.398340 0.708480 0.501250 1.000433
Cr3   Cr    Cr6+3 0.708670 0.393570 0.496460 1.006055
Cr4   Cr    Cr6+3 0.937650 0.938540 0.007610 1.009812
Cr5   Cr    Cr6+3 0.625330 0.937370 0.994520 1.039328
Cr6   Cr    Cr6+3 0.937940 0.625230 0.001190 1.004180
H1    H     H_    0.655718 0.884501 0.784066 0.162362
H2    H     H_    0.666785 0.457408 0.702663 0.148339
H3    H     H_    0.920148 0.507328 0.795002 0.147205
H4    H     H_    0.892459 0.478052 0.679705 0.145363
H5    H     H_    0.498791 0.128792 0.682971 0.142873
H6    H     H_    0.493804 0.133689 0.807913 0.192100
H7    H     H_    0.973729 0.998545 0.807832 0.173405
H8    H     H_    0.973123 0.169770 0.812688 0.135370
H9    H     H_    0.966758 0.182039 0.685487 0.135485
H10   H     H_    0.968572 0.010585 0.679665 0.145590
H11   H     H_    0.237630 0.838383 0.701390 0.139655
H12   H     H_    0.220822 0.841332 0.829069 0.141091
H13   H     H_    0.163619 0.378831 0.818877 0.139905
H14   H     H_    0.334315 0.378382 0.823797 0.143003
H15   H     H_    0.344319 0.374629 0.695409 0.179464
H16   H     H_    0.171571 0.378186 0.691339 0.127999
H17   H     H_    0.444667 0.837342 0.307007 0.120566
H18   H     H_    0.451875 0.850764 0.176123 0.116010
H19   H     H_    0.953727 0.517951 0.184219 0.178212
H20   H     H_    0.949521 0.350056 0.176881 0.123064
H21   H     H_    0.940906 0.343992 0.303402 0.130348
H22   H     H_    0.475664 0.852997 0.680511 0.147522
H23   H     H_    0.939331 0.514897 0.309866 0.145316
H24   H     H_    0.810958 0.236284 0.304549 0.129163
H25   H     H_    0.815930 0.218389 0.174252 0.119009
H26   H     H_    0.521156 0.010233 0.190489 0.169002
H27   H     H_    0.342259 0.170979 0.184029 0.128892
H28   H     H_    0.336098 0.194921 0.310613 0.132497
H29   H     H_    0.513415 0.032438 0.316441 0.139744
H30   H     H_    0.218695 0.448443 0.317863 0.142886
H31   H     H_    0.190525 0.467681 0.188980 0.122569
H32   H     H_    0.012968 0.025891 0.207636 0.142289
H33   H     H_    0.630988 0.864421 0.665783 0.089942
H34   H     H_    0.204550 0.895232 0.201053 0.137848
H35   H     H_    0.218622 0.893532 0.326290 0.162122
H36   H     H_    0.025327 0.015908 0.334375 0.128847
H37   H     H_    0.886614 0.683529 0.779904 0.121212
H38   H     H_    0.871512 0.647927 0.661676 0.120199
H39   H     H_    0.713688 0.470151 0.819559 0.129551
H40   H     H_    0.538546 0.614812 0.829394 0.123408
H41   H     H_    0.500061 0.613128 0.709531 0.130353
O1    O     O_R   0.507380 0.255700 0.581440 -0.535084
O2    O     O_R   0.524480 0.695810 0.424040 -0.508668
O3    O     O_R   0.736390 0.504290 0.414790 -0.520628
O4    O     O_R   0.691300 0.277290 0.422170 -0.511767
O5    O     O_3   0.499990 0.499990 0.499980 -0.249223
O6    O     O_R   0.089400 0.825690 0.930570 -0.526892
O7    O     O_R   0.818460 0.054440 0.929850 -0.503255
O8    O     O_R   0.606060 0.077150 0.915510 -0.517456
O9    O     O_R   0.646550 0.806680 0.917570 -0.452477
O10   O     O_R   0.837170 0.593410 0.915250 -0.538963
O11   O     O_R   0.065200 0.635530 0.931570 -0.500464
O12   O     O_R   0.280320 0.527350 0.578930 -0.504164
O13   O     O_R   0.068260 0.828890 0.091840 -0.519152
O14   O     O_R   0.798870 0.057410 0.079340 -0.507686
O15   O     O_R   0.584930 0.080350 0.076780 -0.524192
O16   O     O_R   0.626960 0.809650 0.067060 -0.507376
O17   O     O_R   0.816040 0.596610 0.076510 -0.526127
O18   O     O_R   0.045610 0.638500 0.081060 -0.513758
O19   O     O_3   0.833640 0.833710 0.001100 -0.256857
O20   O     O_R   0.260510 0.739590 0.584590 -0.532425
O21   O     O_R   0.532300 0.695080 0.573820 -0.511336
O22   O     O_R   0.744840 0.503500 0.576370 -0.526331
O23   O     O_R   0.699120 0.276560 0.571960 -0.499289
O24   O     O_R   0.498940 0.256500 0.419860 -0.519697
O25   O     O_R   0.272500 0.528080 0.429150 -0.510655
O26   O     O_R   0.252060 0.740380 0.423010 -0.524911
O27   O     O_3   0.469536 0.896436 0.809314 -0.710533
H42   H     H_    0.417050 0.847315 0.797393 0.318918

loop_
_geom_bond_atom_site_label_1
_geom_bond_atom_site_label_2
_ccdc_geom_bond_type
C44   C49   S    
C8    C13   S    
Cr1   O12   S    
C59   H33   S    
C32   C45   S    
C19   C20   A    
C9    C14   S    
C7    C8    A    
C58   O27   S    
C7    C11   A    
C26   C27   A    
C5    H4    S    
C37   H24   S    
C18   C24   A    
C22   H16   S    
Cr2   O26   S    
C28   C29   A    
C10   C15   A    
C57   O18   A    
C30   C31   S    
C45   O2    A    
Cr4   O14   S    
C4    C59   S    
C1    O12   A    
Cr3   O23   S    
Cr3   O5    S    
C19   H11   S    
Cr1   O1    S    
C16   C53   S    
C39   H27   S    
Cr1   O25   S    
C59   H22   S    
C35   C36   A    
C8    C9    A    
C31   H23   S    
Cr6   O10   S    
C6    H41   S    
C30   H20   S    
C60   H37   S    
C43   C48   S    
C56   O4    A    
C3    C60   S    
C15   C23   S    
C54   O15   A    
C5    H38   S    
C34   O25   A    
C21   C22   S    
C28   H17   S    
C37   C41   A    
Cr5   O8    S    
C36   C41   A    
C2    C6    S    
C42   C57   S    
C53   O6    A    
C52   O9    A    
C25   C29   A    
C48   H34   S    
C55   O16   A    
C34   C50   S    
C51   O7    A    
Cr4   O7    S    
C12   O22   A    
C27   C31   S    
C22   H15   S    
C1    O20   A    
C28   C32   A    
C31   H21   S    
C29   H18   S    
C4    C6    S    
C49   H36   S    
C11   H6    S    
C16   C17   A    
C34   O26   A    
C25   C26   A    
C38   H25   S    
C2    H40   S    
C51   O8    A    
Cr6   O19   S    
C23   O23   A    
C14   H10   S    
C35   C39   S    
C43   C44   A    
C41   C56   S    
C37   C38   A    
C36   C40   S    
C16   C20   A    
C21   H13   S    
C17   C18   A    
Cr2   O5    S    
Cr5   O15   S    
C30   H19   S    
C57   O13   A    
C53   O11   A    
C48   C49   S    
C54   O14   A    
C13   H7    S    
C26   C30   S    
Cr4   O19   S    
Cr6   O11   S    
Cr5   O9    S    
Cr6   O17   S    
C4    C12   S    
C42   C43   A    
C40   H29   S    
C39   H26   S    
C39   C40   S    
C49   H35   S    
C45   O3    A    
C44   C50   A    
C33   C54   S    
C46   C47   A    
Cr4   O6    S    
C5    C60   S    
C27   C32   A    
C18   C22   S    
Cr5   O16   S    
C25   C55   S    
C40   H28   S    
C4    C5    S    
C47   H31   S    
C3    C52   S    
O27   H42   S    
C12   O21   A    
C48   H32   S    
C46   C50   A    
C2    H39   S    
C33   C38   A    
Cr4   O13   S    
Cr6   O18   S    
C20   H12   S    
C14   H9    S    
Cr3   O3    S    
C19   C24   A    
C58   C59   S    
C7    C51   S    
Cr5   O19   S    
Cr2   O21   S    
Cr2   O20   S    
Cr2   O2    S    
C60   H3    S    
C23   O1    A    
C21   H14   S    
C6    H2    S    
C33   C35   A    
C2    C3    S    
C42   C47   A    
Cr3   O22   S    
Cr3   O4    S    
C17   C21   S    
C56   O24   A    
C10   C11   A    
Cr1   O24   S    
C10   H5    S    
C3    C58   S    
C58   H1    S    
C46   H30   S    
C13   H8    S    
C1    C24   S    
C55   O17   A    
C52   O10   A    
C13   C14   S    
Cr1   O5    S    
C9    C15   A    
