data_mof_unit_56389.cif
_audit_creation_date              2012-12-10T16:51:29-0500
_audit_creation_method            fapswitch 2.2
_symmetry_space_group_name_H-M    P1
_symmetry_Int_Tables_number       1
_space_group_crystal_system       triclinic
_cell_length_a                    7.831632
_cell_length_b                    8.571318
_cell_length_c                    12.087105
_cell_angle_alpha                 92.256481
_cell_angle_beta                  101.459925
_cell_angle_gamma                 94.138063
_cell_volume                      791.929195918

loop_
_atom_site_label
_atom_site_type_symbol
_atom_type_description
_atom_site_fract_x
_atom_site_fract_y
_atom_site_fract_z
_atom_type_partial_charge
C1    C     C_R   0.044617 0.794706 0.497320 0.967201
C2    C     C_R   0.388876 0.472826 0.994230 0.057578
C3    C     C_R   0.305818 0.427963 0.882155 0.046099
C4    C     C_R   0.562509 0.433143 0.029922 0.084895
C5    C     C_R   0.632107 0.318644 0.967229 0.164131
C6    C     C_R   0.532814 0.253477 0.865339 -0.245405
C7    C     C_R   0.372738 0.309789 0.821892 -0.191987
C8    C     C_R   0.672384 0.510905 0.123024 -0.248648
C9    C     C_R   0.896083 0.334573 0.111735 -0.184205
C10   C     C_R   0.159142 0.504283 0.832737 -0.117784
C11   C     C_2   0.067897 0.958449 0.495975 -0.395875
C12   C     C_R   0.106458 0.504575 0.710499 0.860032
C13   C     C_2   0.932469 0.041635 0.504727 -0.385753
C14   C     C_R   0.955500 0.205315 0.502906 0.956950
C15   C     C_R   0.892080 0.487944 0.289530 0.864252
C16   C     C_R   0.800152 0.271639 0.007922 -0.185403
C17   C     C_R   0.828723 0.452355 0.169986 -0.085114
C18   C     C_R   0.074099 0.595949 0.899939 -0.211585
C19   C     C_R   0.137744 0.616351 0.015417 -0.156393
C20   C     C_R   0.294568 0.555355 0.064524 0.083153
H1    H     H_    0.018142 0.287540 0.148218 0.149077
H2    H     H_    0.804893 0.990150 0.513074 0.179529
H3    H     H_    0.469617 0.374551 0.416784 0.186475
H4    H     H_    0.530460 0.625205 0.583431 0.190682
H5    H     H_    0.581691 0.163577 0.817184 0.147318
H6    H     H_    0.853599 0.182235 0.962090 0.134988
H7    H     H_    0.635849 0.614082 0.163916 0.180737
H8    H     H_    0.958764 0.652888 0.863000 0.163337
H9    H     H_    0.065291 0.681380 0.066576 0.139161
H10   H     H_    0.300719 0.258376 0.741418 0.169152
H11   H     H_    0.195508 0.009950 0.487703 0.178355
N1    N     N_2   0.434800 0.456690 0.470850 -0.174619
N2    N     N_2   0.565200 0.543310 0.529150 -0.166625
O1    O     O_R   0.893060 0.738880 0.507150 -0.609480
O2    O     O_R   0.172250 0.711130 0.488470 -0.626416
O3    O     O_R   0.944700 0.520730 0.667600 -0.611653
O4    O     O_R   0.223890 0.492980 0.648920 -0.615656
O5    O     O_R   0.827750 0.288870 0.511530 -0.623641
O6    O     O_R   0.106940 0.261120 0.492850 -0.617292
O7    O     O_R   0.776110 0.507020 0.351080 -0.604356
O8    O     O_R   0.055300 0.479270 0.332400 -0.633558
Zn1   Zn    Zn3+2 0.813580 0.518530 0.512470 0.939272
Zn2   Zn    Zn3+2 0.186420 0.481470 0.487530 0.918460
N3    N     N_3   0.347645 0.563746 0.185610 -0.467109
H12   H     H_    0.270098 0.635635 0.222938 0.203632
H13   H     H_    0.327714 0.450836 0.212788 0.194092

loop_
_geom_bond_atom_site_label_1
_geom_bond_atom_site_label_2
_ccdc_geom_bond_type
O4    Zn2   S    
C2    C4    A    
C18   H8    S    
C6    C7    A    
H4    N2    S    
C14   O5    A    
O8    Zn2   S    
O3    Zn1   S    
C8    C17   A    
O1    Zn1   S    
C4    C8    A    
C1    O1    A    
N1    N2    D    
O7    Zn1   S    
C2    C3    A    
C11   H11   S    
C3    C10   A    
C13   C14   S    
H3    N1    S    
C11   C13   D    
C9    H1    S    
C10   C12   S    
C10   C18   A    
N2    Zn1   S    
C9    C17   A    
C20   N3    S    
C9    C16   A    
N3    H13   S    
C13   H2    S    
O5    Zn1   S    
C3    C7    A    
C16   H6    S    
C5    C6    A    
C15   O7    A    
C6    H5    S    
C12   O3    A    
C15   O8    A    
C2    C20   A    
C19   H9    S    
O2    Zn2   S    
N3    H12   S    
C1    O2    A    
C15   C17   S    
C18   C19   A    
C12   O4    A    
C7    H10   S    
C8    H7    S    
C5    C16   A    
O6    Zn2   S    
C14   O6    A    
N1    Zn2   S    
C19   C20   A    
C4    C5    A    
C1    C11   S    
