data_mof_unit_23812.cif
_audit_creation_date              2012-12-10T19:27:30-0500
_audit_creation_method            fapswitch 2.2
_symmetry_space_group_name_H-M    P1
_symmetry_Int_Tables_number       1
_space_group_crystal_system       triclinic
_cell_length_a                    23.40163
_cell_length_b                    10.493299
_cell_length_c                    9.736967
_cell_angle_alpha                 90.283827
_cell_angle_beta                  90.016462
_cell_angle_gamma                 89.706669
_cell_volume                      2390.95179131

loop_
_atom_site_label
_atom_site_type_symbol
_atom_type_description
_atom_site_fract_x
_atom_site_fract_y
_atom_site_fract_z
_atom_type_partial_charge
C1    C     C_R   0.501715 0.257790 0.499659 0.931091
C2    C     C_R   0.498352 0.742203 0.500336 0.929165
C3    C     C_R   0.238971 0.559826 0.388440 -0.022102
C4    C     C_R   0.762483 0.486091 0.622095 -0.015547
C5    C     C_R   0.298242 0.555804 0.388508 -0.255180
C6    C     C_R   0.703103 0.482687 0.621945 -0.250938
C7    C     C_R   0.327459 0.502873 0.499987 -0.077921
C8    C     C_R   0.672796 0.505039 0.500113 -0.099245
C9    C     C_R   0.297395 0.453363 0.611835 -0.337738
C10   C     C_R   0.702169 0.532604 0.378498 -0.297489
C11   C     C_R   0.237377 0.457474 0.613839 0.548704
C12   C     C_R   0.761570 0.539848 0.378588 0.523988
C13   C     C_R   0.208814 0.509426 0.500158 0.201828
C14   C     C_R   0.791665 0.514038 0.499929 0.175463
C15   C     C_3   0.531414 0.041141 0.609992 -0.381783
C16   C     C_3   0.468771 0.958806 0.389976 -0.382415
C17   C     C_3   0.553553 0.954983 0.492423 -0.099179
C18   C     C_3   0.446631 0.044939 0.507532 -0.103752
C19   C     C_3   0.498509 0.876827 0.500551 -0.153075
C20   C     C_3   0.501662 0.123138 0.499417 -0.153562
C21   C     C_3   0.475904 0.962380 0.616071 0.535043
C22   C     C_3   0.524275 0.037572 0.383891 0.535307
C23   C     C_R   0.389506 0.500130 0.499988 0.908029
C24   C     C_R   0.610597 0.500802 0.500019 0.910222
C25   C     C_3   0.493713 0.385841 0.047955 -0.075657
C26   C     C_3   0.506282 0.614160 0.952043 -0.077413
C27   C     C_3   0.541181 0.430272 0.950888 -0.067208
C28   C     C_3   0.458815 0.569729 0.049113 -0.069601
C29   C     C_3   0.452489 0.455610 0.951146 -0.077148
C30   C     C_3   0.547506 0.544394 0.048849 -0.074478
C31   C     C_R   0.880674 0.618252 0.549260 0.504163
C32   C     C_R   0.119848 0.408738 0.444458 0.557715
C33   C     C_R   0.880724 0.411426 0.444562 0.577236
C34   C     C_R   0.119880 0.614191 0.552295 0.545925
C35   C     C_R   0.940347 0.409066 0.442209 -0.034342
C36   C     C_R   0.060237 0.617853 0.551922 -0.024692
C37   C     C_R   0.970272 0.514166 0.496243 -0.018711
C38   C     C_R   0.030291 0.513257 0.496743 -0.017609
C39   C     C_R   0.940324 0.619949 0.550234 -0.013444
C40   C     C_R   0.060220 0.407560 0.442456 -0.026924
C41   C     C_R   0.970547 0.304380 0.388125 -0.150292
C42   C     C_R   0.030028 0.722877 0.605211 -0.153477
C43   C     C_R   0.030018 0.303717 0.388060 -0.151530
C44   C     C_R   0.970540 0.724011 0.604157 -0.155573
H1    H     H_    0.948377 0.222707 0.345940 0.193008
H2    H     H_    0.052204 0.804323 0.647882 0.196523
H3    H     H_    0.575787 0.371660 0.904233 0.120908
H4    H     H_    0.424210 0.628343 0.095771 0.117300
H5    H     H_    0.488323 0.289733 0.093217 0.154514
H6    H     H_    0.511680 0.710263 0.906776 0.154864
H7    H     H_    0.412558 0.418092 0.904869 0.115252
H8    H     H_    0.587422 0.581975 0.095117 0.120532
H9    H     H_    0.052184 0.221589 0.345775 0.193999
H10   H     H_    0.948368 0.806271 0.646121 0.194574
H11   H     H_    0.321591 0.595158 0.302472 0.163790
H12   H     H_    0.680672 0.460764 0.716305 0.170770
H13   H     H_    0.320943 0.409177 0.694664 0.146669
H14   H     H_    0.679269 0.549410 0.283529 0.168865
H15   H     H_    0.556846 0.078993 0.697284 0.165162
H16   H     H_    0.443334 0.920947 0.302692 0.164438
N1    N     N_R   0.852506 0.514756 0.497740 -0.340570
N2    N     N_R   0.148007 0.510864 0.498951 -0.337091
N3    N     N_3   0.499960 0.500030 0.863290 -0.074666
N4    N     N_3   0.500040 0.499970 0.136710 -0.074664
O1    O     O_R   0.500000 0.313960 0.616610 -0.645364
O2    O     O_R   0.500000 0.686040 0.383390 -0.646163
O3    O     O_R   0.500030 0.313950 0.383350 -0.583403
O4    O     O_R   0.499970 0.686050 0.616650 -0.583821
O5    O     O_R   0.416140 0.499970 0.616650 -0.619211
O6    O     O_R   0.583860 0.500030 0.383350 -0.619244
O7    O     O_R   0.416170 0.499960 0.383400 -0.629041
O8    O     O_R   0.583830 0.500040 0.616600 -0.629409
O9    O     O_2   0.850881 0.718655 0.599408 -0.570048
O10   O     O_2   0.149648 0.309044 0.392696 -0.547846
O11   O     O_2   0.850991 0.311355 0.394961 -0.536275
O12   O     O_2   0.149712 0.712637 0.605214 -0.549771
Zn1   Zn    Zn3+2 0.499980 0.500010 0.655740 0.956501
Zn2   Zn    Zn3+2 0.500020 0.499990 0.344260 0.957170
C45   C     C_1   0.209374 0.616543 0.273762 0.189383
N5    N     N_1   0.185595 0.662236 0.181996 -0.192386
C46   C     C_1   0.793073 0.458534 0.747294 0.210280
N6    N     N_1   0.817648 0.436382 0.847600 -0.167510
O13   O     O_3   0.204407 0.403595 0.717443 -0.598891
C47   C     C_3   0.229138 0.418087 0.848996 0.075759
H17   H     H_    0.247336 0.515189 0.864105 0.148920
H18   H     H_    0.262806 0.344475 0.864839 0.147852
C48   C     C_3   0.183281 0.398288 0.957380 -0.715985
H19   H     H_    0.163812 0.302622 0.944802 0.263913
H20   H     H_    0.202496 0.404974 0.061426 0.215924
H21   H     H_    0.149442 0.472276 0.947310 0.259973
O14   O     O_3   0.790872 0.563227 0.258181 -0.593994
C49   C     C_3   0.788524 0.695163 0.231079 0.065737
H22   H     H_    0.806157 0.751261 0.318781 0.178458
H23   H     H_    0.743820 0.726618 0.210408 0.144100
C50   C     C_3   0.824333 0.723261 0.104601 -0.730566
H24   H     H_    0.807026 0.671204 0.014275 0.267133
H25   H     H_    0.823332 0.827069 0.083048 0.213687
H26   H     H_    0.869307 0.693074 0.122084 0.258142
C51   C     C_1   0.611437 0.900821 0.483455 0.183520
N7    N     N_1   0.656997 0.857942 0.476269 -0.206534
C52   C     C_1   0.388701 0.098803 0.516331 0.181801
N8    N     N_1   0.343086 0.141385 0.523328 -0.177235
O15   O     O_3   0.448990 0.911494 0.733220 -0.597344
C53   C     C_3   0.443883 0.006896 0.835037 0.097519
H27   H     H_    0.422377 0.093915 0.794638 0.145931
H28   H     H_    0.486687 0.032746 0.875554 0.138385
C54   C     C_3   0.408336 0.956302 0.953383 -0.829906
H29   H     H_    0.428698 0.869453 0.996509 0.236679
H30   H     H_    0.405050 0.029787 0.035543 0.207419
H31   H     H_    0.364722 0.932322 0.916812 0.273621
O16   O     O_3   0.551189 0.088422 0.266725 -0.596452
C55   C     C_3   0.556280 0.992989 0.164932 0.095403
H32   H     H_    0.513474 0.967233 0.124365 0.138976
H33   H     H_    0.577736 0.905922 0.205366 0.144850
C56   C     C_3   0.591881 0.043469 0.046628 -0.828556
H34   H     H_    0.635505 0.067293 0.083247 0.272934
H35   H     H_    0.595133 0.969977 0.964468 0.206869
H36   H     H_    0.571582 0.130387 0.003489 0.238087

loop_
_geom_bond_atom_site_label_1
_geom_bond_atom_site_label_2
_ccdc_geom_bond_type
C48   H19   S    
C29   N3    S    
C15   H15   S    
C52   N8    T    
C8    C24   S    
C30   N4    S    
O6    Zn2   S    
C18   C21   S    
C41   C43   A    
C23   O5    A    
C12   O14   S    
C36   C42   A    
O16   C55   S    
C47   C48   S    
C3    C45   S    
C53   H28   S    
C46   N6    T    
C50   H26   S    
C24   O6    A    
O8    Zn1   S    
O13   C47   S    
C28   C29   S    
C10   H14   S    
C47   H18   S    
C2    O4    A    
C26   H6    S    
C32   O10   S    
C31   O9    S    
C56   H34   S    
C34   N2    A    
C7    C9    A    
C42   H2    S    
C31   N1    A    
C53   H27   S    
C33   C35   A    
O5    Zn1   S    
C33   O11   S    
C40   C43   A    
C4    C46   S    
C50   H24   S    
C56   H35   S    
C1    O1    A    
C54   H29   S    
C34   C36   A    
C3    C13   A    
O7    Zn2   S    
C27   C30   S    
C54   H30   S    
O3    Zn2   S    
C42   C44   A    
C55   H33   S    
C55   H32   S    
C43   H9    S    
C25   C29   S    
C15   C20   S    
O2    Zn2   S    
O1    Zn1   S    
C13   N2    S    
C23   O7    A    
C47   H17   S    
C9    H13   S    
C4    C6    A    
C6    H12   S    
O14   C49   S    
C5    C7    A    
C17   C19   S    
C6    C8    A    
C11   O13   S    
C14   N1    S    
C49   C50   S    
C18   C52   S    
C26   N3    S    
C37   C38   A    
C17   C51   S    
C51   N7    T    
C56   H36   S    
C49   H23   S    
C16   C18   S    
C53   C54   S    
C9    C11   A    
C10   C12   A    
C16   H16   S    
C28   N4    S    
C8    C10   A    
C12   C14   A    
C26   C30   S    
C48   H20   S    
C54   H31   S    
C24   O8    A    
N3    Zn1   S    
C27   H3    S    
O4    Zn1   S    
C15   C17   S    
C30   H8    S    
C28   H4    S    
C1    C20   S    
C16   C22   S    
C35   C37   A    
C2    C19   S    
N4    Zn2   S    
C5    H11   S    
C20   C22   S    
C3    C5    A    
C50   H25   S    
C2    O2    A    
C39   C44   A    
C25   C27   S    
C26   C28   S    
C17   C22   S    
C36   C38   A    
C32   N2    A    
C37   C39   A    
C38   C40   A    
C11   C13   A    
C16   C19   S    
C7    C23   S    
C49   H22   S    
C1    O3    A    
C31   C39   A    
C18   C20   S    
C32   C40   A    
C4    C14   A    
C35   C41   A    
C25   H5    S    
C29   H7    S    
C45   N5    T    
C21   O15   S    
C44   H10   S    
C15   C21   S    
C33   N1    A    
C22   O16   S    
C48   H21   S    
O15   C53   S    
C41   H1    S    
C27   N3    S    
C25   N4    S    
C55   C56   S    
C34   O12   S    
C19   C21   S    
