data_mof_unit_26452.cif
_audit_creation_date              2012-10-26T20:35:50-0400
_audit_creation_method            fapswitch 2.2
_symmetry_space_group_name_H-M    P1
_symmetry_Int_Tables_number       1
_space_group_crystal_system       triclinic
_cell_length_a                    8.782661
_cell_length_b                    15.816211
_cell_length_c                    17.078992
_cell_angle_alpha                 93.933116
_cell_angle_beta                  91.520849
_cell_angle_gamma                 85.736829
_cell_volume                      2359.73132557

loop_
_atom_site_label
_atom_site_type_symbol
_atom_type_description
_atom_site_fract_x
_atom_site_fract_y
_atom_site_fract_z
_atom_type_partial_charge
C1    C     C_R   0.495759 0.492056 0.348683 0.541009
C2    C     C_R   0.361195 0.162550 0.443612 -0.130500
C3    C     C_R   0.628655 0.748827 0.554894 0.268123
C4    C     C_R   0.371336 0.251172 0.445112 0.268191
C5    C     C_R   0.206266 0.520639 0.499637 0.562986
C6    C     C_R   0.793740 0.479361 0.500387 0.562868
C7    C     C_2   0.044573 0.526807 0.482897 -0.009945
C8    C     C_2   0.955449 0.473190 0.517130 -0.010187
C9    C     C_R   0.480555 0.496077 0.263298 -0.010486
C10   C     C_R   0.520153 0.503964 0.736671 -0.010182
C11   C     C_R   0.427295 0.573685 0.233208 -0.142848
C12   C     C_R   0.504186 0.507953 0.651315 0.540875
C13   C     C_R   0.574588 0.426525 0.766699 -0.142845
C14   C     C_R   0.416240 0.582630 0.152632 0.029060
C15   C     C_R   0.588918 0.418046 0.847282 0.030180
C16   C     C_R   0.463104 0.513402 0.100846 0.234603
C17   C     C_R   0.542021 0.487227 0.899137 0.234381
C18   C     C_R   0.513563 0.434716 0.130924 -0.109860
C19   C     C_R   0.489941 0.565679 0.869072 -0.110531
C20   C     C_R   0.521790 0.426251 0.211727 -0.177424
C21   C     C_R   0.479771 0.573888 0.788272 -0.177129
C22   C     C_3   0.990106 0.584369 0.417184 -0.283656
C23   C     C_R   0.416884 0.758856 0.466247 -0.016872
C24   C     C_3   0.086035 0.567328 0.343636 -0.444642
C25   C     C_3   0.009940 0.415601 0.582825 -0.284017
C26   C     C_3   0.914254 0.432761 0.656435 -0.443476
C27   C     C_3   0.650238 0.333916 0.877008 -0.268822
C28   C     C_3   0.814504 0.338330 0.907658 -0.431769
C29   C     C_3   0.359204 0.667471 0.122953 -0.267576
C30   C     C_3   0.491870 0.717425 0.100570 -0.431115
C31   C     C_3   0.730175 0.715279 0.682985 -0.297921
C32   C     C_3   0.269817 0.284771 0.317035 -0.297915
C33   C     C_R   0.583173 0.241139 0.533717 -0.017110
C34   C     C_R   0.421871 0.847740 0.467707 -0.135670
C35   C     C_R   0.578219 0.152251 0.532235 -0.135826
C36   C     C_R   0.534686 0.888378 0.513623 0.182580
C37   C     C_R   0.465376 0.111615 0.486338 0.182667
C38   C     C_R   0.638823 0.837447 0.556377 -0.130610
Cu1   Cu    Cu3+1 0.492520 0.415770 0.496210 0.945887
Cu2   Cu    Cu3+1 0.507480 0.584230 0.503790 0.945979
H1    H     H_    0.606932 0.372002 0.727196 0.115953
H2    H     H_    0.338830 0.883749 0.432897 0.125016
H3    H     H_    0.727871 0.866793 0.591258 0.102437
H4    H     H_    0.272133 0.133205 0.408741 0.102390
H5    H     H_    0.201828 0.589003 0.355135 0.166844
H6    H     H_    0.094145 0.498503 0.324887 0.155897
H7    H     H_    0.032824 0.603253 0.295072 0.129419
H8    H     H_    0.871662 0.576073 0.396255 0.175945
H9    H     H_    0.996202 0.651834 0.439150 0.142184
H10   H     H_    0.906723 0.501556 0.675290 0.155778
H11   H     H_    0.798268 0.411423 0.644895 0.168009
H12   H     H_    0.395418 0.628376 0.272621 0.117352
H13   H     H_    0.967194 0.396611 0.704922 0.128648
H14   H     H_    0.003563 0.348147 0.560882 0.142420
H15   H     H_    0.128467 0.423758 0.603678 0.175917
H16   H     H_    0.820984 0.386289 0.958018 0.174950
H17   H     H_    0.857617 0.275441 0.927630 0.130209
H18   H     H_    0.888758 0.355223 0.860286 0.147394
H19   H     H_    0.576865 0.315689 0.924207 0.155536
H20   H     H_    0.648209 0.282429 0.829339 0.125431
H21   H     H_    0.568779 0.728883 0.152307 0.150966
H22   H     H_    0.558289 0.682357 0.052653 0.171123
H23   H     H_    0.547339 0.379972 0.092018 0.128393
H24   H     H_    0.446883 0.779714 0.079972 0.127842
H25   H     H_    0.280755 0.657909 0.071491 0.156413
H26   H     H_    0.292283 0.706164 0.168744 0.123325
H27   H     H_    0.845612 0.698627 0.578474 0.229809
H28   H     H_    0.798503 0.663923 0.712001 0.140292
H29   H     H_    0.610720 0.717009 0.703017 0.160270
H30   H     H_    0.778305 0.776852 0.700882 0.108270
H31   H     H_    0.154345 0.301325 0.421541 0.229822
H32   H     H_    0.201318 0.336081 0.288042 0.139986
H33   H     H_    0.221890 0.223148 0.299110 0.108326
H34   H     H_    0.456214 0.620420 0.907984 0.127688
H35   H     H_    0.389257 0.283180 0.297003 0.160381
H36   H     H_    0.564321 0.366217 0.233751 0.116909
H37   H     H_    0.436357 0.633789 0.766295 0.116873
H38   H     H_    0.668911 0.271729 0.569838 0.117842
H39   H     H_    0.331170 0.728264 0.430112 0.117596
H40   H     H_    0.661304 0.116238 0.567017 0.125017
N1    N     N_2   0.457304 0.525121 0.019308 -0.262520
N2    N     N_2   0.547569 0.475382 0.980666 -0.263767
N3    N     N_R   0.518730 0.710760 0.509500 -0.203717
N4    N     N_R   0.481270 0.289240 0.490500 -0.203699
N5    N     N_2   0.549293 0.978579 0.518840 -0.241994
N6    N     N_2   0.450780 0.021413 0.481114 -0.241966
N7    N     N_2   0.736022 0.698573 0.598722 -0.449025
N8    N     N_2   0.263936 0.301427 0.401303 -0.449064
O1    O     O_R   0.493000 0.421040 0.382520 -0.470292
O2    O     O_R   0.507000 0.578960 0.617480 -0.470201
O3    O     O_R   0.505640 0.563310 0.388930 -0.524312
O4    O     O_R   0.494360 0.436690 0.611070 -0.524569
O5    O     O_R   0.269980 0.445280 0.497530 -0.488437
O6    O     O_R   0.730020 0.554720 0.502470 -0.488408
O7    O     O_R   0.282610 0.587550 0.503940 -0.511680
O8    O     O_R   0.717390 0.412450 0.496060 -0.511678

loop_
_geom_bond_atom_site_label_1
_geom_bond_atom_site_label_2
_ccdc_geom_bond_type
C22   H8    S    
C30   H24   S    
C34   H2    S    
C32   H35   S    
C13   H1    S    
N1    N2    D    
C28   H16   S    
C7    C8    D    
C32   H32   S    
N5    N6    D    
C23   N3    A    
C24   H5    S    
C22   C24   S    
C12   O2    A    
C19   C21   A    
Cu1   N4    S    
C27   H20   S    
C26   H10   S    
C11   C14   A    
C33   H38   S    
C32   N8    S    
C35   H40   S    
C20   H36   S    
C17   N2    S    
Cu1   O5    S    
C11   H12   S    
C17   C19   A    
C31   H30   S    
C3    C38   A    
C2    H4    S    
C6    O6    A    
C34   C36   A    
C1    O3    A    
C8    C25   S    
Cu2   N3    S    
C5    O7    A    
C10   C21   A    
C31   H28   S    
C31   N7    S    
C3    N7    S    
C37   N6    S    
C1    C9    S    
C25   H14   S    
C32   H33   S    
C5    C7    S    
C6    C8    S    
C25   C26   S    
C28   H17   S    
H31   N8    S    
C2    C4    A    
C29   C30   S    
C9    C20   A    
C15   C27   S    
C4    N4    A    
C23   C34   A    
C9    C11   A    
C10   C12   S    
C22   H9    S    
C29   H25   S    
C6    O8    A    
C30   H22   S    
C3    N3    A    
C14   C16   A    
C14   C29   S    
C26   H13   S    
Cu1   O4    S    
Cu1   Cu2   S    
C15   C17   A    
C1    O1    A    
C35   C37   A    
C24   H7    S    
C12   O4    A    
C19   H34   S    
C25   H15   S    
Cu2   O6    S    
C10   C13   A    
C5    O5    A    
C23   H39   S    
C4    N8    S    
C28   H18   S    
C36   N5    S    
C7    C22   S    
H27   N7    S    
C24   H6    S    
C13   C15   A    
C38   H3    S    
C27   H19   S    
C26   H11   S    
C2    C37   A    
C36   C38   A    
C16   N1    S    
C33   C35   A    
C18   C20   A    
Cu2   O3    S    
C18   H23   S    
C33   N4    A    
Cu1   O8    S    
C29   H26   S    
C31   H29   S    
C16   C18   A    
C30   H21   S    
C21   H37   S    
C27   C28   S    
Cu2   O7    S    
Cu2   O2    S    
Cu1   O1    S    
