data_mof_unit_55659.cif
_audit_creation_date              2012-12-11T15:48:36-0500
_audit_creation_method            fapswitch 2.2
_symmetry_space_group_name_H-M    P1
_symmetry_Int_Tables_number       1
_space_group_crystal_system       triclinic
_cell_length_a                    10.884105
_cell_length_b                    11.165198
_cell_length_c                    18.723652
_cell_angle_alpha                 89.989209
_cell_angle_beta                  90.100599
_cell_angle_gamma                 60.255437
_cell_volume                      1975.56562234

loop_
_atom_site_label
_atom_site_type_symbol
_atom_type_description
_atom_site_fract_x
_atom_site_fract_y
_atom_site_fract_z
_atom_type_partial_charge
C1    C     C_R   0.236527 0.646080 0.609405 0.525297
C2    C     C_3   0.746570 0.494412 0.805329 0.014812
C3    C     C_3   0.689036 0.653590 0.817896 0.034763
C4    C     C_3   0.648763 0.612601 0.684229 0.026634
C5    C     C_3   0.742667 0.680063 0.688456 -0.230323
C6    C     C_3   0.724433 0.474454 0.724624 -0.281507
C7    C     C_R   0.717690 0.060388 0.807326 -0.061637
C8    C     C_R   0.833576 0.046495 0.767118 -0.039811
C9    C     C_R   0.823419 0.067282 0.692441 -0.040642
C10   C     C_R   0.602559 0.072745 0.690284 0.004759
C11   C     C_R   0.599890 0.068631 0.766302 -0.068107
C12   C     C_R   0.627561 0.587209 0.608676 0.559359
C13   C     C_3   0.904177 0.132114 0.771173 -0.089615
C14   C     C_3   0.915245 0.128952 0.690542 -0.235730
C15   C     C_R   0.694274 0.110697 0.657378 0.019339
C16   C     C_R   0.174636 0.670601 0.833738 0.006947
C17   C     C_R   0.157436 0.573105 0.794986 -0.012674
C18   C     C_R   0.165109 0.569117 0.720476 -0.030566
C19   C     C_R   0.184777 0.773774 0.722239 -0.148498
C20   C     C_R   0.195773 0.765568 0.796162 -0.164153
C21   C     C_3   0.250338 0.421310 0.800454 -0.222252
C22   C     C_3   0.256523 0.416402 0.719696 -0.215811
C23   C     C_R   0.634236 0.216739 0.598964 0.553567
C24   C     C_R   0.181429 0.668442 0.682553 0.009442
C25   C     C_R   0.666043 0.684054 0.172743 0.010656
C26   C     C_R   0.752339 0.558923 0.205781 0.005134
C27   C     C_R   0.756114 0.545545 0.277996 -0.010946
C28   C     C_R   0.593063 0.788542 0.291059 -0.167089
C29   C     C_R   0.592053 0.802297 0.216180 -0.166532
C30   C     C_3   0.770312 0.419718 0.191875 -0.106417
C31   C     C_3   0.773949 0.403958 0.272553 -0.266672
C32   C     C_R   0.669379 0.656592 0.321935 0.012273
C33   C     C_R   0.670669 0.122861 0.182056 -0.001743
C34   C     C_R   0.221337 0.649697 0.402218 0.534068
C35   C     C_R   0.551811 0.140900 0.217623 -0.006956
C36   C     C_R   0.543114 0.156130 0.289948 0.015275
C37   C     C_R   0.787388 0.103363 0.296749 -0.035418
C38   C     C_R   0.793622 0.091397 0.222109 -0.125872
C39   C     C_3   0.400709 0.244838 0.204889 -0.274357
C40   C     C_3   0.389480 0.264608 0.284901 -0.251391
C41   C     C_R   0.654912 0.151922 0.329711 -0.022016
C42   C     C_R   0.130218 0.679664 0.185767 0.002400
C43   C     C_R   0.166419 0.768012 0.218867 0.043199
C44   C     C_R   0.181861 0.765463 0.290299 0.083551
C45   C     C_R   0.645076 0.623473 0.393550 0.552293
C46   C     C_R   0.106354 0.596206 0.301709 -0.178688
C47   C     C_R   0.090707 0.598845 0.227448 -0.167413
C48   C     C_3   0.288429 0.788921 0.203658 -0.272957
C49   C     C_3   0.310304 0.781117 0.283347 -0.226785
C50   C     C_R   0.159462 0.675724 0.332703 0.005276
C51   C     C_R   0.726769 0.041080 0.887783 0.551228
C52   C     C_R   0.717888 0.683570 0.891270 0.582105
C53   C     C_R   0.116989 0.707201 0.905705 0.539916
C54   C     C_R   0.679481 0.097576 0.106545 0.614725
C55   C     C_R   0.697273 0.693408 0.098645 0.584484
C56   C     C_R   0.619112 0.224912 0.396870 0.533262
C57   C     C_R   0.089166 0.711302 0.113046 0.547712
C58   C     C_3   0.528955 0.731046 0.799750 -0.255454
C59   C     C_3   0.506344 0.702525 0.721928 -0.245008
C60   C     C_3   0.765940 0.703895 0.766529 -0.272718
Cr1   Cr    Cr6+3 0.392960 0.397920 0.502240 1.037930
Cr2   Cr    Cr6+3 0.398340 0.708480 0.501250 1.037728
Cr3   Cr    Cr6+3 0.708670 0.393570 0.496460 1.008353
Cr4   Cr    Cr6+3 0.937650 0.938540 0.007610 1.055282
Cr5   Cr    Cr6+3 0.625330 0.937370 0.994520 1.021469
Cr6   Cr    Cr6+3 0.937940 0.625230 0.001190 1.078286
H1    H     H_    0.481477 0.842240 0.806490 0.146906
H2    H     H_    0.828542 0.415682 0.698293 0.121787
H3    H     H_    0.847361 0.612699 0.663168 0.143461
H4    H     H_    0.867387 0.227639 0.662938 0.144034
H5    H     H_    0.020490 0.055242 0.668535 0.167434
H6    H     H_    0.203053 0.850155 0.696740 0.167022
H7    H     H_    0.470381 0.699699 0.836708 0.128433
H8    H     H_    0.223349 0.832007 0.825014 0.162193
H9    H     H_    0.193734 0.371744 0.824508 0.209535
H10   H     H_    0.354177 0.391441 0.825863 0.150698
H11   H     H_    0.364671 0.381869 0.699109 0.164237
H12   H     H_    0.201467 0.364922 0.695515 0.177447
H13   H     H_    0.532415 0.903692 0.192486 0.146739
H14   H     H_    0.872672 0.349200 0.165461 0.166485
H15   H     H_    0.682719 0.398418 0.295442 0.137518
H16   H     H_    0.449430 0.643497 0.721508 0.118795
H17   H     H_    0.879263 0.325876 0.292975 0.193041
H18   H     H_    0.893456 0.059710 0.195553 0.186635
H19   H     H_    0.386947 0.336873 0.175037 0.150937
H20   H     H_    0.370561 0.368120 0.301024 0.159652
H21   H     H_    0.086155 0.526969 0.333674 0.140171
H22   H     H_    0.254458 0.893020 0.181297 0.165733
H23   H     H_    0.442264 0.801840 0.693345 0.157000
H24   H     H_    0.374740 0.701656 0.174030 0.131906
H25   H     H_    0.407436 0.685652 0.300009 0.132429
H26   H     H_    0.727873 0.813817 0.775186 0.116338
H27   H     H_    0.666229 0.416878 0.716700 0.073482
O1    O     O_R   0.507380 0.255700 0.581440 -0.477749
O2    O     O_R   0.524480 0.695810 0.424040 -0.497216
O3    O     O_R   0.736390 0.504290 0.414790 -0.510001
O4    O     O_R   0.691300 0.277290 0.422170 -0.522923
O5    O     O_3   0.499990 0.499990 0.499980 -0.282693
O6    O     O_R   0.089400 0.825690 0.930570 -0.547964
O7    O     O_R   0.818460 0.054440 0.929850 -0.463370
O8    O     O_R   0.606060 0.077150 0.915510 -0.525096
O9    O     O_R   0.646550 0.806680 0.917570 -0.556722
O10   O     O_R   0.837170 0.593410 0.915250 -0.445161
O11   O     O_R   0.065200 0.635530 0.931570 -0.496171
O12   O     O_R   0.280320 0.527350 0.578930 -0.506777
O13   O     O_R   0.068260 0.828890 0.091840 -0.520482
O14   O     O_R   0.798870 0.057410 0.079340 -0.484140
O15   O     O_R   0.584930 0.080350 0.076780 -0.510921
O16   O     O_R   0.626960 0.809650 0.067060 -0.516986
O17   O     O_R   0.816040 0.596610 0.076510 -0.481409
O18   O     O_R   0.045610 0.638500 0.081060 -0.511537
O19   O     O_3   0.833640 0.833710 0.001100 -0.302761
O20   O     O_R   0.260510 0.739590 0.584590 -0.536074
O21   O     O_R   0.532300 0.695080 0.573820 -0.479724
O22   O     O_R   0.744840 0.503500 0.576370 -0.524062
O23   O     O_R   0.699120 0.276560 0.571960 -0.536157
O24   O     O_R   0.498940 0.256500 0.419860 -0.497817
O25   O     O_R   0.272500 0.528080 0.429150 -0.512156
O26   O     O_R   0.252060 0.740380 0.423010 -0.509126
H28   H     H_    0.880937 0.650916 0.778103 0.124951
C61   C     C_2   0.515590 0.032024 0.644680 0.244732
H29   H     H_    0.432556 0.016837 0.666439 0.163681
O27   O     O_2   0.543501 0.004309 0.581541 -0.499613
C62   C     C_2   0.473814 0.071954 0.799959 0.196713
H30   H     H_    0.480440 0.017304 0.848233 0.178675
O28   O     O_2   0.356830 0.136416 0.773156 -0.526692
C63   C     C_2   0.039991 0.075430 0.811127 0.263022
H31   H     H_    0.044013 0.046481 0.866610 0.172505
O29   O     O_2   0.143795 0.071251 0.783838 -0.501019
H32   H     H_    0.826993 0.231915 0.792020 0.128377
H33   H     H_    0.528144 0.877986 0.323730 0.138897
C64   C     C_2   0.642745 0.425919 0.156828 0.217405
H34   H     H_    0.546098 0.458042 0.186825 0.081768
O30   O     O_2   0.646485 0.397029 0.093738 -0.445706
C65   C     C_2   0.915648 0.072112 0.338562 0.224133
H35   H     H_    0.919137 0.053921 0.395639 0.134925
O31   O     O_2   0.018659 0.067074 0.309840 -0.562661
H36   H     H_    0.339274 0.197194 0.183967 0.148548
H37   H     H_    0.318901 0.231383 0.310206 0.154060
H38   H     H_    0.049777 0.537791 0.203031 0.150412
H39   H     H_    0.294971 0.878744 0.307141 0.192009
H40   H     H_    0.694032 0.777990 0.658604 0.169464
C66   C     C_2   0.906153 0.406537 0.819866 0.270603
H41   H     H_    0.980787 0.407796 0.782068 0.094379
O32   O     O_2   0.952479 0.336198 0.873772 -0.446154
C67   C     C_2   0.663425 0.447057 0.852475 0.242302
H42   H     H_    0.587821 0.421782 0.828965 0.074717
O33   O     O_2   0.676363 0.441526 0.917405 -0.405049

loop_
_geom_bond_atom_site_label_1
_geom_bond_atom_site_label_2
_ccdc_geom_bond_type
C44   C49   S    
C34   O25   A    
C52   O10   A    
C8    C13   S    
C56   O24   A    
C35   C36   A    
C59   H16   S    
Cr5   O8    S    
C9    C14   S    
C10   C61   S    
C19   H6    S    
C7    C8    A    
C41   C56   S    
C53   O6    A    
C7    C11   A    
C21   H10   S    
C52   O9    A    
C26   C27   A    
C54   O14   A    
C18   C24   A    
C56   O4    A    
C28   C29   A    
Cr2   O21   S    
Cr3   O5    S    
C10   C15   A    
C59   H23   S    
C30   C31   S    
Cr4   O19   S    
C53   O11   A    
C66   H41   S    
C40   H37   S    
C51   O7    A    
C31   H17   S    
C65   O31   D    
C14   H5    S    
C40   H20   S    
C16   C53   S    
C5    H3    S    
C23   O23   A    
Cr2   O5    S    
Cr4   O6    S    
Cr1   O5    S    
Cr2   O2    S    
C64   H34   S    
C49   H39   S    
C47   H38   S    
Cr2   O26   S    
C13   H32   S    
C48   H22   S    
C60   H28   S    
Cr6   O18   S    
C4    C12   S    
Cr1   O12   S    
C43   C48   S    
Cr5   O15   S    
C67   O33   D    
C33   C54   S    
C12   O22   A    
C30   H14   S    
C3    C60   S    
C15   C23   S    
C57   O13   A    
C27   C32   A    
C39   H36   S    
C48   H24   S    
C13   C14   S    
C55   O16   A    
C2    C66   S    
C14   H4    S    
C36   C41   A    
C2    C6    S    
C1    O20   A    
Cr5   O9    S    
C49   H25   S    
C42   C57   S    
C12   O21   A    
C60   H26   S    
C25   C29   A    
C34   C50   S    
C67   H42   S    
C27   C31   S    
Cr6   O11   S    
C28   C32   A    
C22   H12   S    
Cr2   O20   S    
C4    C6    S    
C39   C40   S    
Cr1   O1    S    
C16   C17   A    
C25   C26   A    
Cr1   O24   S    
Cr3   O3    S    
C17   C21   S    
C35   C39   S    
C43   C44   A    
C63   O29   D    
Cr5   O19   S    
C37   C38   A    
C29   H13   S    
C36   C40   S    
C16   C20   A    
C6    H27   S    
C37   C65   S    
C17   C18   A    
C8    C9    A    
C20   H8    S    
C32   C45   S    
Cr6   O17   S    
Cr5   O16   S    
C61   H29   S    
Cr3   O23   S    
C48   C49   S    
C26   C30   S    
C55   O17   A    
C58   C59   S    
C51   O8    A    
C42   C43   A    
C39   H19   S    
C63   H31   S    
C45   O2    A    
Cr4   O14   S    
C62   O28   D    
C46   H21   S    
C44   C50   A    
C34   O26   A    
C66   O32   D    
C46   C50   A    
C46   C47   A    
C5    C60   S    
C38   H18   S    
Cr1   O25   S    
C18   C22   S    
Cr6   O10   S    
C25   C55   S    
C22   H11   S    
C4    C5    S    
C3    C52   S    
Cr4   O13   S    
C2    C67   S    
C21   H9    S    
C33   C38   A    
C31   H15   S    
C23   O1    A    
C54   O15   A    
C28   H33   S    
C19   C20   A    
C2    C3    S    
C9    C15   A    
C7    C51   S    
Cr3   O4    S    
C5    H40   S    
C57   O18   A    
Cr3   O22   S    
C30   C64   S    
C4    C59   S    
C6    H2    S    
C33   C35   A    
C19   C24   A    
C42   C47   A    
C37   C41   A    
C61   O27   D    
C65   H35   S    
C10   C11   A    
C13   C63   S    
C3    C58   S    
C58   H1    S    
Cr4   O7    S    
C1    C24   S    
C64   O30   D    
C11   C62   S    
Cr6   O19   S    
C21   C22   S    
C45   O3    A    
C58   H7    S    
C1    O12   A    
C62   H30   S    
