data_mof_unit_21957.cif
_audit_creation_date              2012-12-10T17:02:11-0500
_audit_creation_method            fapswitch 2.2
_symmetry_space_group_name_H-M    P1
_symmetry_Int_Tables_number       1
_space_group_crystal_system       triclinic
_cell_length_a                    10.608981
_cell_length_b                    10.731205
_cell_length_c                    10.055461
_cell_angle_alpha                 91.593983
_cell_angle_beta                  90.278745
_cell_angle_gamma                 90.658415
_cell_volume                      1144.25164164

loop_
_atom_site_label
_atom_site_type_symbol
_atom_type_description
_atom_site_fract_x
_atom_site_fract_y
_atom_site_fract_z
_atom_type_partial_charge
C1    C     C_R   0.496365 0.263156 0.497899 0.942556
C2    C     C_2   0.481949 0.132373 0.491615 -0.280258
C3    C     C_2   0.579323 0.566144 0.928352 0.230303
C4    C     C_R   0.260788 0.500433 0.499823 0.959222
C5    C     C_2   0.568222 0.575655 0.077859 -0.152044
C6    C     C_R   0.505428 0.737668 0.502215 0.834697
C7    C     C_R   0.739307 0.500434 0.500260 0.892959
C8    C     C_R   0.134822 0.732559 0.545026 -0.149243
C9    C     C_R   0.070789 0.843995 0.566857 -0.135378
C10   C     C_R   0.939642 0.844667 0.564893 -0.151862
C11   C     C_R   0.872269 0.733604 0.542632 -0.173760
C12   C     C_R   0.067616 0.619119 0.522320 0.019121
C13   C     C_R   0.935911 0.619732 0.521997 0.096004
C14   C     C_3   0.078773 0.194097 0.373013 0.065451
C15   C     C_3   0.180582 0.102781 0.327921 -0.315079
C16   C     C_3   0.127180 0.001018 0.234035 -0.957550
C17   C     C_3   0.803553 0.595752 0.895205 -0.761094
C18   C     C_3   0.481567 0.921821 0.743420 -0.762208
C19   C     C_R   0.128361 0.504430 0.499661 -0.193643
C20   C     C_R   0.063757 0.391445 0.476420 0.467636
C21   C     C_R   0.933151 0.393232 0.479566 -0.339128
C22   C     C_R   0.871696 0.505641 0.500769 -0.140644
C23   C     C_2   0.527368 0.932327 0.395067 -0.225883
C24   C     C_2   0.527822 0.869832 0.508904 0.051621
C25   C     C_2   0.537935 0.066243 0.395505 -0.186284
H1    H     H_    0.422843 0.090736 0.566163 0.179293
H2    H     H_    0.514697 0.885458 0.298682 0.164355
H3    H     H_    0.589001 0.110197 0.315548 0.165886
H4    H     H_    0.040679 0.240088 0.283364 0.141600
H5    H     H_    0.002573 0.140699 0.422406 0.146038
H6    H     H_    0.256733 0.154319 0.276446 0.232842
H7    H     H_    0.222239 0.058497 0.416178 0.222726
H8    H     H_    0.052021 0.947149 0.284229 0.274470
H9    H     H_    0.203503 0.936142 0.204300 0.269666
H10   H     H_    0.087700 0.042723 0.143178 0.263197
H11   H     H_    0.662214 0.666027 0.775350 0.278214
H12   H     H_    0.426234 0.458070 0.896359 0.142016
H13   H     H_    0.872637 0.660589 0.850326 0.242481
H14   H     H_    0.816090 0.501223 0.849545 0.258017
H15   H     H_    0.823168 0.593159 0.003709 0.236978
H16   H     H_    0.660256 0.910522 0.657579 0.219145
H17   H     H_    0.489189 0.009867 0.803594 0.237855
H18   H     H_    0.506102 0.843441 0.808110 0.248371
H19   H     H_    0.382294 0.910247 0.708689 0.231078
H20   H     H_    0.623876 0.647163 0.130146 0.174507
H21   H     H_    0.456414 0.427797 0.099475 0.156771
H22   H     H_    0.236701 0.736111 0.546257 0.125252
H23   H     H_    0.123026 0.930004 0.585140 0.135341
H24   H     H_    0.890102 0.931387 0.580757 0.132159
H25   H     H_    0.770640 0.737375 0.541812 0.110690
H26   H     H_    0.878365 0.307752 0.467967 0.132764
N1    N     N_2   0.501340 0.501330 0.852150 -0.221779
N2    N     N_2   0.501380 0.501360 0.147810 -0.210083
N3    N     N_2   0.677016 0.638846 0.870977 -0.308021
N4    N     N_2   0.567976 0.927779 0.632332 -0.295240
O1    O     O_R   0.499980 0.319060 0.613040 -0.605300
O2    O     O_R   0.500020 0.319100 0.386900 -0.618357
O3    O     O_R   0.316750 0.499980 0.613090 -0.614670
O4    O     O_R   0.316790 0.500020 0.386950 -0.606734
O5    O     O_R   0.499980 0.680900 0.613100 -0.631991
O6    O     O_R   0.500020 0.680940 0.386960 -0.628270
O7    O     O_R   0.683210 0.499980 0.613050 -0.623301
O8    O     O_R   0.683250 0.500020 0.386910 -0.611092
O9    O     O_3   0.132774 0.281695 0.464810 -0.657399
Zn1   Zn    Zn3+2 0.499970 0.499970 0.650990 0.936528
Zn2   Zn    Zn3+2 0.500030 0.500030 0.349010 0.938485

loop_
_geom_bond_atom_site_label_1
_geom_bond_atom_site_label_2
_ccdc_geom_bond_type
C20   O9    S    
C3    N1    D    
C7    O7    A    
C15   H6    S    
C18   H19   S    
C16   H8    S    
C7    C22   S    
C4    O4    A    
C9    C10   A    
O3    Zn1   S    
C19   C20   A    
O2    Zn2   S    
C8    C12   A    
C14   O9    S    
C3    C5    S    
C23   C25   S    
C8    C9    A    
O8    Zn2   S    
C6    C24   S    
C15   H7    S    
C2    H1    S    
C11   H25   S    
C18   H18   S    
C20   C21   A    
C24   N4    S    
N2    Zn2   S    
C11   C13   A    
C7    O8    A    
C10   H24   S    
C13   C22   A    
C18   N4    S    
C14   H5    S    
C17   N3    S    
H21   N2    S    
C5    N2    D    
C1    O1    A    
C12   C19   A    
O5    Zn1   S    
C2    C25   D    
C23   H2    S    
C17   H13   S    
C18   H17   S    
C16   H10   S    
C3    N3    S    
C8    H22   S    
H11   N3    S    
C10   C11   A    
C23   C24   D    
O1    Zn1   S    
C6    O5    A    
C21   H26   S    
C12   C13   A    
C6    O6    A    
C9    H23   S    
C1    C2    S    
C17   H14   S    
C4    O3    A    
H12   N1    S    
C14   C15   S    
H16   N4    S    
C14   H4    S    
O7    Zn1   S    
C16   H9    S    
C21   C22   A    
C4    C19   S    
C5    H20   S    
O6    Zn2   S    
N1    Zn1   S    
C15   C16   S    
O4    Zn2   S    
C25   H3    S    
C17   H15   S    
C1    O2    A    
