data_mof_unit_39079.cif
_audit_creation_date              2012-10-26T21:17:55-0400
_audit_creation_method            fapswitch 2.2
_symmetry_space_group_name_H-M    P1
_symmetry_Int_Tables_number       1
_space_group_crystal_system       triclinic
_cell_length_a                    14.682108
_cell_length_b                    14.695467
_cell_length_c                    27.825947
_cell_angle_alpha                 76.845611
_cell_angle_beta                  102.608053
_cell_angle_gamma                 114.708134
_cell_volume                      5259.25572035

loop_
_atom_site_label
_atom_site_type_symbol
_atom_type_description
_atom_site_fract_x
_atom_site_fract_y
_atom_site_fract_z
_atom_type_partial_charge
C1    C     C_R   0.880392 0.312292 0.507939 0.540701
C2    C     C_R   0.929077 0.416570 0.129040 0.025297
C3    C     C_R   0.000376 0.503948 0.645096 0.010952
C4    C     C_R   0.999741 0.496215 0.355022 0.012650
C5    C     C_R   0.933726 0.414402 0.027897 0.018260
C6    C     C_R   0.066399 0.588837 0.971905 0.018288
C7    C     C_R   0.066946 0.587390 0.023240 0.018291
C8    C     C_R   0.938785 0.412993 0.977641 0.018273
C9    C     C_R   0.999275 0.500845 0.050680 0.033950
C10   C     C_R   0.003609 0.500957 0.949656 0.033921
C11   C     C_R   0.864549 0.332312 0.056338 -0.139967
C12   C     C_R   0.119639 0.687748 0.491503 0.541029
C13   C     C_R   0.126234 0.675685 0.941659 -0.139790
C14   C     C_R   0.862626 0.333488 0.105852 -0.112452
C15   C     C_R   0.126608 0.675180 0.891868 -0.112271
C16   C     C_R   0.000252 0.501775 0.592320 0.553157
C17   C     C_R   0.999675 0.498141 0.407726 0.553139
C18   C     C_R   0.881550 0.326051 0.954232 -0.139942
C19   C     C_R   0.133512 0.669572 0.048451 -0.139838
C20   C     C_R   0.812908 0.205134 0.508689 -0.004877
C21   C     C_R   0.187139 0.795411 0.485772 -0.005019
C22   C     C_R   0.782938 0.031402 0.506313 -0.131446
C23   C     C_R   0.005515 0.501097 0.898749 -0.027147
C24   C     C_R   0.215818 0.973076 0.472798 -0.130221
C25   C     C_R   0.850062 0.130851 0.510182 -0.146317
C26   C     C_R   0.149394 0.871750 0.476645 -0.143049
C27   C     C_R   0.708598 0.178756 0.504221 -0.125560
C28   C     C_R   0.291410 0.821424 0.489915 -0.129433
C29   C     C_R   0.639093 0.080304 0.497763 0.034830
C30   C     C_R   0.359847 0.923050 0.484797 0.034225
C31   C     C_R   0.678027 0.005695 0.499908 0.052930
C32   C     C_R   0.320526 0.999183 0.477424 0.053024
C33   C     C_R   0.532437 0.053999 0.489619 0.033392
C34   C     C_R   0.997229 0.500669 0.101574 -0.027126
C35   C     C_R   0.466162 0.950744 0.488364 0.034391
C36   C     C_R   0.508238 0.879019 0.489831 -0.132582
C37   C     C_R   0.489847 0.127713 0.481513 -0.134507
C38   C     C_R   0.612077 0.906397 0.495238 -0.129917
C39   C     C_R   0.385940 0.100559 0.475090 -0.129287
C40   C     C_R   0.947672 0.416069 0.825931 0.399375
C41   C     C_R   0.061096 0.582282 0.175602 0.399402
C42   C     C_R   0.717068 0.670950 0.418385 -0.157728
C43   C     C_R   0.283105 0.329296 0.581714 -0.156484
C44   C     C_R   0.798014 0.640273 0.430813 0.042126
C45   C     C_R   0.945585 0.413981 0.876378 0.024760
C46   C     C_R   0.202144 0.359941 0.569294 0.041931
C47   C     C_R   0.714346 0.508482 0.492580 0.030420
C48   C     C_R   0.285542 0.491391 0.507327 0.031768
C49   C     C_R   0.628733 0.535181 0.481407 0.003750
C50   C     C_R   0.371156 0.464700 0.518478 0.003793
C51   C     C_R   0.632516 0.619151 0.443677 0.039419
C52   C     C_R   0.367494 0.380893 0.556295 0.039456
C53   C     C_R   0.540891 0.482895 0.506392 0.022773
C54   C     C_R   0.458929 0.516895 0.493432 0.024281
C55   C     C_R   0.467705 0.602045 0.456062 -0.141857
C56   C     C_R   0.063499 0.584484 0.125179 0.024651
C57   C     C_R   0.532074 0.397680 0.543725 -0.141789
C58   C     C_R   0.552518 0.651551 0.431667 -0.129413
C59   C     C_R   0.447427 0.348409 0.568249 -0.125258
C60   C     C_R   0.067221 0.587281 0.819733 0.397195
C61   C     C_R   0.928739 0.417648 0.179318 0.397178
C62   C     C_R   0.965583 0.564771 0.710735 -0.019742
C63   C     C_R   0.028898 0.430913 0.289390 -0.019532
C64   C     C_R   0.962008 0.565955 0.660005 0.107953
C65   C     C_R   0.031700 0.429196 0.340102 0.108335
C66   C     C_R   0.042263 0.443672 0.681883 -0.168799
C67   C     C_R   0.884808 0.326860 0.904641 -0.112615
C68   C     C_R   0.964697 0.561954 0.318365 -0.168372
C69   C     C_R   0.044905 0.443202 0.732258 -0.068406
C70   C     C_R   0.962877 0.563021 0.268002 -0.068162
C71   C     C_R   0.006364 0.503484 0.746839 0.206033
C72   C     C_R   0.995188 0.497749 0.253379 0.206678
C73   C     C_3   0.983642 0.265997 0.392856 -0.280590
C74   C     C_3   0.995795 0.726952 0.605647 -0.278451
C75   C     C_R   0.131511 0.668007 0.098294 -0.112674
C76   C     C_R   0.067137 0.588438 0.870034 0.025462
Cu1   Cu    Cu3+1 0.081740 0.475690 0.513040 0.925620
Cu2   Cu    Cu3+1 0.918260 0.524310 0.486960 0.924656
H1    H     H_    0.072253 0.395820 0.671663 0.130546
H2    H     H_    0.534442 0.207936 0.478461 0.107850
H3    H     H_    0.555675 0.716449 0.403158 0.116395
H4    H     H_    0.444337 0.283614 0.596816 0.117299
H5    H     H_    0.280217 0.551963 0.478253 0.118221
H6    H     H_    0.719595 0.447821 0.521610 0.117068
H7    H     H_    0.136429 0.319593 0.588485 0.125355
H8    H     H_    0.863839 0.680763 0.411709 0.124263
H9    H     H_    0.720844 0.735242 0.389415 0.096202
H10   H     H_    0.279452 0.265161 0.610768 0.097185
H11   H     H_    0.410193 0.632979 0.444704 0.093009
H12   H     H_    0.939636 0.613597 0.328732 0.128387
H13   H     H_    0.589441 0.366542 0.554973 0.095043
H14   H     H_    0.076940 0.395893 0.760056 0.140993
H15   H     H_    0.936291 0.614607 0.240254 0.140089
H16   H     H_    0.839095 0.258378 0.888513 0.165968
H17   H     H_    0.184129 0.732936 0.115749 0.165949
H18   H     H_    0.808450 0.268465 0.125949 0.165660
H19   H     H_    0.173800 0.743735 0.870435 0.165589
H20   H     H_    0.809201 0.266047 0.041354 0.111253
H21   H     H_    0.172771 0.746558 0.954914 0.111159
H22   H     H_    0.834233 0.254956 0.973311 0.111324
H23   H     H_    0.317711 0.760600 0.498649 0.121427
H24   H     H_    0.189845 0.736184 0.031109 0.111268
H25   H     H_    0.640938 0.849081 0.495959 0.114850
H26   H     H_    0.356664 0.159511 0.468924 0.115451
H27   H     H_    0.123453 0.387425 0.401793 0.278016
H28   H     H_    0.016191 0.212634 0.417219 0.133796
H29   H     H_    0.932139 0.228595 0.361139 0.166892
H30   H     H_    0.939756 0.283394 0.414774 0.157562
H31   H     H_    0.862018 0.597375 0.599384 0.277268
H32   H     H_    0.956882 0.775238 0.581634 0.136113
H33   H     H_    0.041660 0.714172 0.582946 0.159197
H34   H     H_    0.683657 0.236768 0.506288 0.115908
H35   H     H_    0.046571 0.767701 0.636544 0.165137
H36   H     H_    0.053426 0.380151 0.277826 0.145886
H37   H     H_    0.936021 0.611559 0.722249 0.147122
H38   H     H_    0.068926 0.853179 0.473335 0.122239
H39   H     H_    0.930614 0.149862 0.513510 0.122548
H40   H     H_    0.812991 0.974795 0.507560 0.104601
H41   H     H_    0.185400 0.031116 0.466661 0.105971
H42   H     H_    0.462977 0.801171 0.485344 0.101615
N1    N     N_R   0.007672 0.502024 0.798707 -0.397154
N2    N     N_R   0.994506 0.499547 0.201558 -0.397372
N3    N     N_R   0.795430 0.560780 0.467350 -0.233252
N4    N     N_R   0.204570 0.439220 0.532650 -0.234019
N5    N     N_2   0.064386 0.357612 0.374691 -0.524237
N6    N     N_2   0.921332 0.631626 0.625408 -0.522134
O1    O     O_R   0.977900 0.338120 0.517190 -0.510169
O2    O     O_2   0.125532 0.661673 0.198688 -0.500460
O3    O     O_2   0.863042 0.337671 0.205769 -0.503669
O4    O     O_2   0.126636 0.670511 0.792074 -0.504248
O5    O     O_R   0.022100 0.661880 0.482810 -0.511853
O6    O     O_R   0.839850 0.379180 0.495160 -0.506603
O7    O     O_R   0.160150 0.620820 0.504840 -0.506725
O8    O     O_R   0.069030 0.479490 0.580750 -0.498978
O9    O     O_R   0.930970 0.520510 0.419250 -0.498487
O10   O     O_R   0.930970 0.520550 0.558720 -0.506941
O11   O     O_R   0.069030 0.479450 0.441280 -0.507631
O12   O     O_2   0.889233 0.333313 0.804064 -0.500838

loop_
_geom_bond_atom_site_label_1
_geom_bond_atom_site_label_2
_ccdc_geom_bond_type
C21   C26   A    
C63   C65   A    
C34   C56   A    
C23   C45   A    
C12   O5    A    
C27   C29   A    
C55   H11   S    
C35   C36   A    
C59   H4    S    
C23   C76   A    
C1    O6    A    
C16   O8    A    
C75   H17   S    
C39   H26   S    
C47   C49   A    
C3    C64   A    
C40   N1    A    
C50   C54   A    
C18   H22   S    
C30   C35   A    
C11   H20   S    
C43   H10   S    
Cu1   O11   S    
C5    C11   A    
C4    C65   A    
C19   H24   S    
C49   C53   A    
C43   C52   A    
C73   H29   S    
C66   C69   A    
C20   C25   A    
C29   C33   A    
C22   H40   S    
C32   C39   A    
C69   C71   A    
Cu2   O6    S    
C62   C64   A    
C33   C35   A    
C63   H36   S    
C47   N3    A    
C28   H23   S    
C49   C51   A    
C22   C25   A    
C40   O12   S    
C45   C67   A    
C67   H16   S    
C50   C52   A    
C69   H14   S    
Cu2   O9    S    
Cu1   O1    S    
C2    C61   A    
C61   O3    S    
C42   C51   A    
C46   H7    S    
C2    C34   A    
C48   C50   A    
C15   C76   A    
C56   C75   A    
C41   O2    S    
C46   N4    A    
Cu1   O7    S    
C15   H19   S    
C44   H8    S    
C14   H18   S    
C26   H38   S    
C40   C45   A    
C37   H2    S    
C22   C31   A    
C70   H15   S    
C58   H3    S    
C60   O4    S    
C74   H33   S    
C4    C68   A    
C53   C57   A    
C73   H30   S    
C18   C67   A    
Cu1   Cu2   S    
C74   H35   S    
C12   C21   S    
C60   C76   A    
C33   C37   A    
C61   N2    A    
C65   N5    S    
C41   N2    A    
C13   H21   S    
C36   H42   S    
Cu2   O5    S    
C24   C32   A    
C41   C56   A    
C5    C9    A    
C38   H25   S    
C66   H1    S    
C52   C59   A    
C68   H12   S    
C51   C58   A    
C47   H6    S    
Cu2   N3    S    
C17   O9    A    
C8    C10   A    
C21   C28   A    
C27   H34   S    
C7    C19   A    
C12   O7    A    
C13   C15   A    
C9    C34   A    
C3    C66   A    
Cu1   O8    S    
C4    C17   S    
C16   O10   A    
C19   C75   A    
C7    C9    A    
C54   C55   A    
C24   H41   S    
C57   H13   S    
C72   N2    S    
C71   N1    S    
C1    O1    A    
C24   C26   A    
C1    C20   S    
C25   H39   S    
C6    C10   A    
C5    C8    A    
C17   O11   A    
C31   C38   A    
C53   C54   A    
C6    C7    A    
C20   C27   A    
C10   C23   A    
C44   N3    A    
C64   N6    S    
C48   H5    S    
H27   N5    S    
C36   C38   A    
C42   C44   A    
C62   H37   S    
C37   C39   A    
Cu1   N4    S    
C6    C13   A    
C30   C32   A    
C73   H28   S    
C74   N6    S    
C73   N5    S    
C28   C30   A    
C11   C14   A    
C62   C71   A    
C60   N1    A    
C2    C14   A    
C43   C46   A    
C8    C18   A    
C57   C59   A    
H31   N6    S    
C63   C72   A    
C29   C31   A    
C48   N4    A    
C55   C58   A    
C68   C70   A    
C70   C72   A    
C42   H9    S    
C74   H32   S    
Cu2   O10   S    
C3    C16   S    
