data_mof_unit_66304.cif
_audit_creation_date              2012-12-10T17:00:14-0500
_audit_creation_method            fapswitch 2.2
_symmetry_space_group_name_H-M    P1
_symmetry_Int_Tables_number       1
_space_group_crystal_system       triclinic
_cell_length_a                    13.196553
_cell_length_b                    13.077591
_cell_length_c                    16.054171
_cell_angle_alpha                 80.434497
_cell_angle_beta                  100.377241
_cell_angle_gamma                 91.142134
_cell_volume                      2687.26145977

loop_
_atom_site_label
_atom_site_type_symbol
_atom_type_description
_atom_site_fract_x
_atom_site_fract_y
_atom_site_fract_z
_atom_type_partial_charge
C1    C     C_R   0.465027 0.778275 0.467550 0.504493
C2    C     C_2   0.054606 0.520590 0.489652 -0.085943
C3    C     C_2   0.888155 0.552580 0.528801 0.399240
C4    C     C_R   0.535925 0.222324 0.531327 0.512497
C5    C     C_2   0.944348 0.500800 0.486960 0.358110
C6    C     C_R   0.777223 0.533979 0.523895 0.557808
C7    C     C_R   0.223495 0.466341 0.475552 0.502193
C8    C     C_R   0.515812 0.487741 0.727087 0.507038
C9    C     C_R   0.484180 0.512338 0.273084 0.521718
C10   C     C_1   0.522237 0.482906 0.817765 0.047343
C11   C     C_2   0.533803 0.474143 0.985013 -0.100944
C12   C     C_1   0.472353 0.521467 0.106168 -0.010842
C13   C     C_2   0.466118 0.526257 0.015121 -0.103595
C14   C     C_2   0.351976 0.938903 0.413741 0.208528
C15   C     C_2   0.549458 0.050303 0.630676 0.210896
C16   C     C_1   0.527559 0.478884 0.893969 -0.015910
C17   C     C_1   0.477694 0.517351 0.182383 0.055642
C18   C     C_2   0.544328 0.108678 0.541783 0.023332
C19   C     C_2   0.538285 0.063224 0.471114 0.450233
C20   C     C_2   0.455777 0.892817 0.452367 0.012975
C21   C     C_2   0.540510 0.949739 0.475748 0.446905
C22   C     C_2   0.113254 0.451770 0.467020 -0.059904
F1    F     F_    0.633527 0.902209 0.507963 -0.566384
F2    F     F_    0.527875 0.122622 0.391821 -0.576444
F3    F     F_    0.900521 0.427008 0.441411 -0.613870
F4    F     F_    0.932999 0.624609 0.575558 -0.624355
H1    H     H_    0.405427 0.572955 0.971467 0.152873
H2    H     H_    0.081745 0.379292 0.449572 0.183583
H3    H     H_    0.594487 0.427442 0.028671 0.158933
H4    H     H_    0.089036 0.589258 0.512711 0.155483
H5    H     H_    0.288072 0.888154 0.397180 0.143801
H6    H     H_    0.556350 0.093057 0.683860 0.129239
O1    O     O_3   0.500000 0.500000 0.500000 -0.479913
O2    O     O_R   0.564890 0.556920 0.685230 -0.520131
O3    O     O_R   0.419250 0.562810 0.301190 -0.532801
O4    O     O_R   0.461010 0.422870 0.688230 -0.539260
O5    O     O_R   0.554850 0.457400 0.325340 -0.502131
O6    O     O_2   0.335679 0.032254 0.400403 -0.447346
O7    O     O_2   0.545527 0.955860 0.646107 -0.451593
O8    O     O_R   0.732880 0.470090 0.478000 -0.499728
O9    O     O_R   0.260330 0.535210 0.424090 -0.523361
O10   O     O_R   0.533020 0.732860 0.528350 -0.444601
O11   O     O_R   0.473780 0.261850 0.569570 -0.555036
O12   O     O_R   0.406490 0.723840 0.419860 -0.565929
O13   O     O_R   0.586720 0.281460 0.482230 -0.463424
O14   O     O_R   0.723810 0.584530 0.562340 -0.489957
O15   O     O_R   0.282980 0.410180 0.535580 -0.519373
Zn1   Zn    Zn3+2 0.592010 0.428480 0.447310 1.054305
Zn2   Zn    Zn3+2 0.579060 0.591980 0.567800 1.046629
Zn3   Zn    Zn3+2 0.430650 0.400450 0.572090 0.974267
Zn4   Zn    Zn3+2 0.398290 0.579090 0.412800 0.974710

loop_
_geom_bond_atom_site_label_1
_geom_bond_atom_site_label_2
_ccdc_geom_bond_type
C12   C17   T    
C2    C22   D    
C15   C18   S    
O11   Zn3   S    
C4    O11   A    
C14   O6    D    
C7    C22   S    
C11   C16   S    
C1    O12   A    
C14   H5    S    
C2    H4    S    
C3    C6    S    
C4    C18   S    
C9    O5    A    
C19   F2    S    
C15   H6    S    
C22   H2    S    
C12   C13   S    
O5    Zn1   S    
C11   C13   D    
O14   Zn2   S    
C15   O7    D    
C5    F3    S    
O12   Zn4   S    
C9    C17   S    
C19   C21   S    
O15   Zn3   S    
C4    O13   A    
C7    O9    A    
C21   F1    S    
O3    Zn4   S    
C6    O8    A    
C2    C5    S    
O1    Zn4   S    
O10   Zn2   S    
O1    Zn2   S    
C14   C20   S    
C1    O10   A    
O4    Zn3   S    
C20   C21   D    
C11   H3    S    
C8    C10   S    
C18   C19   D    
C8    O4    A    
O13   Zn1   S    
O8    Zn1   S    
O1    Zn1   S    
C13   H1    S    
O2    Zn2   S    
C10   C16   T    
C6    O14   A    
C3    C5    D    
O1    Zn3   S    
C8    O2    A    
O9    Zn4   S    
C3    F4    S    
C9    O3    A    
C1    C20   S    
C7    O15   A    
