data_mof_unit_66797.cif
_audit_creation_date              2013-03-05T15:41:07-0500
_audit_creation_method            fapswitch 2.2
_symmetry_space_group_name_H-M    P1
_symmetry_Int_Tables_number       1
_space_group_crystal_system       triclinic
_cell_length_a                    8.529645
_cell_length_b                    14.933561
_cell_length_c                    15.298853
_cell_angle_alpha                 96.32229
_cell_angle_beta                  99.122731
_cell_angle_gamma                 91.865116
_cell_volume                      1909.90089212

loop_
_atom_site_label
_atom_site_type_symbol
_atom_site_description
_atom_site_fract_x
_atom_site_fract_y
_atom_site_fract_z
_atom_type_partial_charge
P1    P     P_3+3 0.947560 0.714050 0.560480 0.625795
O1    O     O_2   0.113690 0.728200 0.532750 -0.233243
O2    O     O_3   0.871900 0.612110 0.540440 -0.384190
O3    O     O_3   0.325660 0.668890 0.372600 -0.335098
O4    O     O_2   0.230490 0.825708 0.433446 -0.334867
O5    O     O_3   0.973250 0.749137 0.676845 -0.562564
O6    O     O_3   0.284296 0.811374 0.270177 -0.463773
H1    H     H_    0.198875 0.682619 0.214345 0.097641
C1    C     C_3   0.255868 0.761131 0.112066 0.229812
H2    H     H_    0.294917 0.707190 0.065499 0.114383
H3    H     H_    0.127224 0.767707 0.090827 0.116419
P2    P     P_3+3 0.325150 0.423860 0.297970 0.595899
P3    P     P_3+3 0.852054 0.616627 0.212805 0.625417
O7    O     O_2   0.147570 0.451710 0.282630 -0.289337
O8    O     O_3   0.905540 0.621350 0.329600 -0.276994
O9    O     O_2   0.965237 0.548153 0.176220 -0.344160
O10   O     O_3   0.257550 0.310151 0.283082 -0.519109
O11   O     O_3   0.919688 0.714616 0.171840 -0.589549
C2    C     C_3   0.834822 0.794397 0.181359 0.500314
C3    C     C_3   0.771263 0.820927 0.087793 0.120888
H4    H     H_    0.870886 0.830343 0.050444 0.132557
C4    C     C_3   0.781291 0.276954 0.253349 0.249948
H5    H     H_    0.668363 0.238128 0.234496 0.063358
C5    C     C_3   0.864693 0.261470 0.170624 0.080119
H6    H     H_    0.802816 0.297195 0.116017 0.100661
H7    H     H_    0.989784 0.288182 0.186487 0.172353
Ba1   Ba    Ba6+2 0.142880 0.544780 0.454020 1.759412
C6    C     C_3   0.981796 0.681908 0.733963 0.674218
H8    H     H_    0.911783 0.619490 0.704162 0.085553
C7    C     C_3   0.934795 0.717972 0.825504 -0.108202
H9    H     H_    0.805583 0.722491 0.818205 0.085996
C8    C     C_3   0.356928 0.249146 0.246514 0.213661
H10   H     H_    0.469620 0.252536 0.292932 0.141912
C9    C     C_3   0.379405 0.265522 0.152365 -0.902360
H11   H     H_    0.263962 0.278200 0.111904 0.277672
H12   H     H_    0.430560 0.206372 0.118810 0.331400
H13   H     H_    0.467524 0.321761 0.154832 0.220430
P4    P     P_3+3 0.862730 0.285940 0.439440 0.610393
O12   O     O_2   0.696600 0.271740 0.467230 -0.289149
O13   O     O_3   0.938380 0.387880 0.459490 -0.320668
O14   O     O_3   0.484630 0.331100 0.627330 -0.432286
O15   O     O_3   0.869649 0.241976 0.326067 -0.556879
P5    P     P_3+3 0.945563 0.394300 0.788426 0.532814
O16   O     O_3   0.389110 0.548970 0.605210 -0.339146
O17   O     O_3   0.904740 0.378630 0.670330 -0.313339
O18   O     O_2   0.829629 0.463128 0.819876 -0.320237
O19   O     O_3   0.884452 0.296782 0.829837 -0.557141
Ba2   Ba    Ba6+2 0.667290 0.455210 0.545900 1.790375
P6    P     P_3+3 0.352658 0.784420 0.378213 0.596599
C10   C     C_3   0.288698 0.735343 0.207254 0.276586
H14   H     H_    0.404511 0.704244 0.216824 0.098768
O20   O     O_3   0.421180 0.451020 0.394720 -0.310325
C11   C     C_3   0.558724 0.743055 0.700933 0.678961
H15   H     H_    0.671994 0.719083 0.683218 -0.052161
C12   C     C_3   0.579442 0.839005 0.749385 0.112496
H16   H     H_    0.634105 0.838340 0.819925 0.157722
H17   H     H_    0.461709 0.868522 0.750303 0.219280
P7    P     P_3+3 0.485976 0.572512 0.718886 0.565178
O21   O     O_2   0.662730 0.548230 0.717350 -0.399003
O22   O     O_3   0.497158 0.688305 0.757535 -0.533579
H18   H     H_    0.710887 0.885658 0.093763 0.163476
C13   C     C_3   0.997821 0.230914 0.825746 0.844120
H19   H     H_    0.121644 0.260539 0.837807 -0.094578
C14   C     C_3   0.981272 0.169585 0.898200 -0.687330
H20   H     H_    0.870421 0.126282 0.878927 0.225890
H21   H     H_    0.972281 0.212308 0.961396 0.186480
P8    P     P_3+3 0.466485 0.212168 0.620867 0.635059
C15   C     C_3   0.458364 0.219660 0.788345 0.210883
H22   H     H_    0.336909 0.186724 0.777004 0.069254
O23   O     O_2   0.586455 0.174064 0.562630 -0.230006
O24   O     O_3   0.546189 0.181258 0.725084 -0.418395
H23   H     H_    0.451734 0.293550 0.784949 0.089186
C16   C     C_3   0.542346 0.207755 0.881955 -0.007025
H24   H     H_    0.666744 0.233919 0.890350 0.164333
C17   C     C_R   0.002820 0.951730 0.561322 0.576922
C18   C     C_R   0.823146 0.807131 0.508015 0.238879
C19   C     C_R   0.667989 0.776934 0.470539 -0.274603
C20   C     C_R   0.557653 0.831586 0.428248 0.290695
C21   C     C_R   0.600919 0.921644 0.423046 -0.189264
C22   C     C_R   0.756839 0.959516 0.460213 0.000881
C23   C     C_R   0.864960 0.904587 0.509877 -0.057015
H25   H     H_    0.628930 0.710337 0.480589 0.187716
C24   C     C_R   0.944774 0.097475 0.497772 -0.107871
C25   C     C_R   0.051715 0.041855 0.548420 -0.162505
C26   C     C_R   0.993230 0.193340 0.493691 0.248002
C27   C     C_R   0.159732 0.212735 0.514900 -0.421145
C28   C     C_R   0.260115 0.162953 0.571017 0.065309
C29   C     C_R   0.209318 0.076763 0.584769 0.471127
C30   C     C_R   0.803883 0.050889 0.447827 -0.089925
C31   C     C_R   0.250280 0.462022 0.771836 -0.519211
C32   C     C_R   0.153246 0.438984 0.832237 0.152217
C33   C     C_R   0.211145 0.453639 0.923523 -0.092127
C34   C     C_R   0.366365 0.492501 0.955653 0.157941
C35   C     C_R   0.453861 0.524163 0.891616 -0.140217
C36   C     C_R   0.396288 0.509262 0.799848 0.264060
C37   C     C_R   0.588593 0.542136 0.084962 -0.281788
C38   C     C_R   0.643798 0.567142 0.174989 0.285200
C39   C     C_R   0.411108 0.486332 0.211702 0.150396
C40   C     C_R   0.347849 0.472619 0.119952 -0.363752
C41   C     C_R   0.433073 0.503599 0.054588 0.113232
C42   C     C_R   0.548201 0.544704 0.237212 0.132368
H26   H     H_    0.670274 0.554162 0.040250 0.201983
H27   H     H_    0.132422 0.434345 0.967474 0.126616
H28   H     H_    0.236051 0.434481 0.101451 0.175224
H29   H     H_    0.564324 0.563409 0.910562 0.183547
Cl1   Cl    Cl    0.861269 0.145807 0.126934 -0.573293
Cl2   Cl    Cl    0.178481 0.660129 0.755297 -0.536901
C43   C     C_2   0.011247 0.809474 0.864558 1.214525
O25   O     O_2   0.156014 0.821152 0.880513 -0.535008
O26   O     O_R   0.915630 0.879790 0.886791 -0.782577
H30   H     H_    0.979517 0.935782 0.918052 0.352497
Cl3   Cl    Cl    0.977868 0.641899 0.907639 -0.612177
C44   C     C_2   0.279711 0.156080 0.242025 1.162165
O27   O     O_2   0.332062 0.091541 0.201692 -0.514620
O28   O     O_R   0.146491 0.143793 0.282945 -0.767428
H31   H     H_    0.105255 0.078616 0.275359 0.368262
Cl4   Cl    Cl    0.354488 0.865766 0.101810 -0.389057
Cl5   Cl    Cl    0.425883 0.745899 0.601527 -0.526381
Cl6   Cl    Cl    0.699920 0.910040 0.698277 -0.468069
Cl7   Cl    Cl    0.955363 0.166436 0.718917 -0.551798
C45   C     C_2   0.117906 0.109521 0.914344 1.129350
O29   O     O_2   0.191657 0.109944 0.989692 -0.540047
O30   O     O_R   0.155902 0.050627 0.844214 -0.713938
H32   H     H_    0.244505 0.010210 0.864249 0.356841
Cl8   Cl    Cl    0.451771 0.276438 0.959765 -0.749545
C46   C     C_2   0.950888 0.868675 0.231002 1.040352
O31   O     O_2   0.024771 0.917205 0.190525 -0.589866
O32   O     O_R   0.974762 0.881945 0.324004 -0.738785
H33   H     H_    0.049922 0.935868 0.349319 0.329054
C47   C     C_2   0.542460 0.110707 0.901078 1.069877
O33   O     O_2   0.570653 0.051453 0.844800 -0.555804
O34   O     O_R   0.518716 0.088765 0.984684 -0.692842
H34   H     H_    0.524647 0.021776 0.989715 0.364888
C48   C     C_2   0.473558 0.976248 0.383988 1.086209
O35   O     O_2   0.433210 0.968805 0.303328 -0.511294
O36   O     O_R   0.400529 0.035995 0.438992 -0.757965
H35   H     H_    0.310913 0.066809 0.404667 0.307880
Cl9   Cl    Cl    0.362079 0.007414 0.626454 -0.446287
C49   C     C_2   0.242792 0.278558 0.472031 1.147095
O37   O     O_2   0.353258 0.254328 0.435016 -0.616639
O38   O     O_R   0.223143 0.369223 0.491495 -0.696140
H36   H     H_    0.328212 0.403448 0.512012 0.366042
Cl10  Cl    Cl    0.076226 0.916905 0.665353 -0.434808
C50   C     C_2   0.736469 0.080660 0.361742 1.048699
O39   O     O_2   0.627292 0.131433 0.356911 -0.632246
O40   O     O_R   0.781108 0.038873 0.284070 -0.756034
H37   H     H_    0.704853 0.049886 0.228924 0.389099
Cl11  Cl    Cl    0.674560 0.790379 0.242452 -0.658626
Cl12  Cl    Cl    0.597723 0.594071 0.346252 -0.629097
C51   C     C_2   0.195472 0.433649 0.678373 1.141671
O41   O     O_2   0.129529 0.485896 0.630472 -0.504328
O42   O     O_R   0.183294 0.342202 0.649939 -0.800036
H38   H     H_    0.209442 0.303463 0.699842 0.235652
Cl13  Cl    Cl    0.635688 0.738377 0.020893 -0.579192
C52   C     C_2   0.758984 0.373235 0.274950 0.767981
O43   O     O_2   0.836849 0.429102 0.246798 -0.604689
O44   O     O_R   0.667508 0.398686 0.338600 -0.762858
H39   H     H_    0.719610 0.452899 0.378710 0.388365

loop_
_geom_bond_atom_site_label_1
_geom_bond_atom_site_label_2
_geom_bond_distance
_ccdc_geom_bond_type
Ba1   Ba2   4.700024 S    
C28   C29   1.393166 A    
C35   H29   1.074850 S    
C34   C35   1.432216 A    
C37   H26   1.074993 S    
C52   O44   1.371203 S    
C9    H13   1.102104 S    
C1    Cl4   1.784413 S    
C16   H24   1.101718 S    
C2    C3    1.546848 S    
C31   C51   1.443723 S    
O32   H33   1.014105 S    
O19   C13   1.405029 S    
C31   C36   1.392595 A    
O14   P8    1.768268 S    
C12   Cl6   1.777411 S    
C11   H15   1.104187 S    
C43   O25   1.223025 D    
C46   O31   1.224214 D    
C3    Cl13  1.777224 S    
P3    O11   1.768780 S    
C6    H8    1.103269 S    
C5    H7    1.106948 S    
P4    O15   1.796423 S    
C26   C27   1.418648 A    
C7    H9    1.095081 S    
C9    H11   1.110531 S    
C17   C25   1.439576 A    
P8    O24   1.748185 S    
C6    Cl2   1.706491 S    
P7    O22   1.759269 S    
C14   C45   1.499783 S    
O2    Ba2   2.892409 S    
C3    H18   1.111689 S    
O11   C2    1.419869 S    
P6    C20   1.875126 S    
P1    O1    1.556753 D    
C42   Cl12  1.729217 S    
C22   C30   1.450608 A    
O26   H30   1.012162 S    
C13   C14   1.533695 S    
C33   H27   1.076688 S    
C44   O27   1.222070 D    
Ba1   O16   2.860808 S    
O44   H39   1.005073 S    
O5    C6    1.398084 S    
C40   C41   1.432816 A    
O16   P7    1.794866 S    
C15   H22   1.111879 S    
P2    O10   1.754210 S    
C4    O15   1.402229 S    
O1    Ba1   2.903167 S    
C8    C44   1.508360 S    
C1    H2    1.110720 S    
P4    Ba2   3.471315 S    
C40   H28   1.075826 S    
O4    P6    1.544789 D    
P2    O20   1.577346 S    
C11   O22   1.402246 S    
C4    C52   1.464866 S    
C11   C12   1.530317 S    
C24   C30   1.431564 A    
P4    C26   1.974891 S    
P1    O5    1.776292 S    
O30   H32   1.013110 S    
C5    H6    1.112556 S    
O6    P6    1.757856 S    
C50   O40   1.393571 S    
C32   C33   1.396114 A    
C20   C21   1.397070 A    
C17   C23   1.424225 A    
C48   O36   1.388977 S    
P2    Ba1   3.433327 S    
P7    O21   1.565248 D    
C19   C20   1.394145 A    
P5    C32   1.865650 S    
C7    Cl3   1.788777 S    
P1    O2    1.611978 S    
C8    C9    1.527514 S    
C47   O34   1.398057 S    
P7    C36   1.876891 S    
C13   H19   1.111341 S    
C1    H3    1.104646 S    
O8    Ba1   2.904682 S    
C24   C25   1.445443 A    
Ba1   O13   2.891896 S    
C15   H23   1.113217 S    
C37   C38   1.388436 A    
C12   H16   1.106897 S    
C10   H14   1.100875 S    
C12   H17   1.111255 S    
C18   C19   1.395406 A    
P5    O17   1.772673 S    
C34   C41   1.519116 S    
C29   Cl9   1.773934 S    
C45   O29   1.221795 D    
C17   Cl10  1.755862 S    
C27   C49   1.463671 S    
C24   C26   1.487800 A    
P2    O7    1.572302 D    
P3    O8    1.765649 S    
O7    Ba1   2.835989 S    
C4    C5    1.546937 S    
C5    Cl1   1.779692 S    
C39   C42   1.411940 A    
H1    C10   1.106614 S    
C52   O43   1.206826 D    
O3    Ba1   2.890247 S    
Ba1   O20   3.006317 S    
C27   C28   1.404196 A    
Ba2   O21   2.836302 S    
O40   H37   1.012618 S    
O17   Ba2   2.905415 S    
O13   Ba2   2.988853 S    
C21   C48   1.470124 S    
C16   C47   1.509766 S    
C46   O32   1.395911 S    
C7    C43   1.512635 S    
C11   Cl5   1.751979 S    
P1    C18   1.942736 S    
C13   Cl7   1.781134 S    
C4    H5    1.088992 S    
C1    C10   1.532530 S    
C25   C29   1.428855 A    
O6    C10   1.410959 S    
C22   C23   1.437018 A    
C18   C23   1.483228 A    
C49   O37   1.218879 D    
C48   O35   1.219102 D    
C30   C50   1.472499 S    
C2    C46   1.513890 S    
P8    C28   1.893926 S    
C2    Cl11  1.777066 S    
O3    P6    1.724019 S    
C50   O39   1.218217 D    
P8    O23   1.542755 D    
C14   H20   1.108565 S    
O2    Ba1   2.988132 S    
C47   O33   1.222229 D    
C15   C16   1.527994 S    
O38   H36   1.004281 S    
C8    H10   1.096950 S    
P4    O13   1.611952 S    
C49   O38   1.375412 S    
C31   C32   1.396886 A    
P4    O12   1.557253 D    
C19   H25   1.073356 S    
C15   O24   1.400840 S    
C16   Cl8   1.772083 S    
C37   C41   1.415189 A    
C6    C7    1.561424 S    
C33   C34   1.418491 A    
O14   Ba2   2.889734 S    
C43   O26   1.395901 S    
O34   H34   1.014033 S    
C51   O42   1.382230 S    
P3    C38   1.879035 S    
C35   C36   1.402573 A    
P5    O18   1.540762 D    
C45   O30   1.396662 S    
C21   C22   1.432598 A    
O16   Ba2   3.005500 S    
Ba2   O20   2.860084 S    
C3    H4    1.110057 S    
C9    H12   1.109255 S    
C39   C40   1.411625 A    
P3    O9    1.549347 D    
P2    C39   1.919198 S    
P1    Ba1   3.470723 S    
O10   C8    1.396371 S    
C51   O41   1.219006 D    
O36   H35   1.010265 S    
O42   H38   1.009443 S    
P5    O19   1.747102 S    
C38   C42   1.407823 A    
O28   H31   1.012147 S    
C14   H21   1.112899 S    
O12   Ba2   2.903728 S    
C44   O28   1.397891 S    
