data_mof_unit_36229.cif
_audit_creation_date              2012-12-10T18:41:40-0500
_audit_creation_method            fapswitch 2.2
_symmetry_space_group_name_H-M    P1
_symmetry_Int_Tables_number       1
_space_group_crystal_system       triclinic
_cell_length_a                    15.117671
_cell_length_b                    13.938817
_cell_length_c                    9.102596
_cell_angle_alpha                 90.088601
_cell_angle_beta                  91.059008
_cell_angle_gamma                 90.361978
_cell_volume                      1917.75276773

loop_
_atom_site_label
_atom_site_type_symbol
_atom_type_description
_atom_site_fract_x
_atom_site_fract_y
_atom_site_fract_z
_atom_type_partial_charge
C1    C     C_R   0.329622 0.499482 0.503051 0.920966
C2    C     C_R   0.669460 0.500314 0.501139 0.985845
C3    C     C_R   0.549898 0.210119 0.601191 0.588431
C4    C     C_R   0.423351 0.791737 0.474845 0.586458
C5    C     C_R   0.450258 0.209368 0.398478 0.571025
C6    C     C_R   0.576927 0.792969 0.521636 0.547220
C7    C     C_R   0.548915 0.109007 0.606516 0.300576
C8    C     C_R   0.420505 0.892623 0.486567 0.284594
C9    C     C_R   0.450722 0.108258 0.393483 0.276667
C10   C     C_R   0.579162 0.894028 0.512093 0.297372
C11   C     C_R   0.500006 0.499955 0.220653 0.842320
C12   C     C_R   0.500211 0.500051 0.779352 0.830537
C13   C     C_R   0.499654 0.055520 0.500159 -0.164875
C14   C     C_R   0.499703 0.946454 0.500242 -0.169549
C15   C     C_1   0.500148 0.499945 0.065500 -0.139987
C16   C     C_1   0.500229 0.500076 0.934501 -0.140631
C17   C     C_R   0.094366 0.580466 0.557940 0.560118
C18   C     C_R   0.902867 0.480797 0.376299 0.598613
C19   C     C_R   0.903820 0.521990 0.636254 0.560970
C20   C     C_R   0.091140 0.416448 0.468743 0.567594
C21   C     C_R   0.186582 0.579195 0.562893 0.341011
C22   C     C_R   0.810562 0.480503 0.373791 0.278025
C23   C     C_R   0.811256 0.525808 0.633250 0.323791
C24   C     C_R   0.183589 0.414245 0.471154 0.291642
C25   C     C_R   0.232228 0.497787 0.511486 -0.427162
C26   C     C_R   0.765245 0.501442 0.503038 -0.361936
C27   C     C_R   0.046555 0.499444 0.510845 -0.158545
C28   C     C_R   0.949618 0.501161 0.507456 -0.163924
Cu1   Cu    Cu3+1 0.500000 0.596430 0.500000 1.047065
Cu2   Cu    Cu3+1 0.500000 0.403570 0.500000 1.091638
N1    N     N_R   0.500000 0.258690 0.500000 -0.341012
N2    N     N_R   0.500000 0.741310 0.500000 -0.334172
O1    O     O_R   0.371460 0.581430 0.500010 -0.485136
O2    O     O_R   0.628540 0.418570 0.499990 -0.524767
O3    O     O_R   0.628540 0.581430 0.499990 -0.529633
O4    O     O_R   0.371460 0.418570 0.500010 -0.540703
O5    O     O_R   0.500000 0.581420 0.288390 -0.592996
O6    O     O_R   0.500000 0.418580 0.711610 -0.535252
O7    O     O_R   0.500000 0.581420 0.711610 -0.590376
O8    O     O_R   0.500000 0.418580 0.288390 -0.513557
F1    F     F_    0.600718 0.259579 0.699833 -0.580965
F2    F     F_    0.347636 0.746661 0.433401 -0.560516
F3    F     F_    0.400259 0.258080 0.298893 -0.574672
F4    F     F_    0.654475 0.748695 0.550017 -0.636978
F5    F     F_    0.051565 0.661619 0.597851 -0.591732
F6    F     F_    0.946706 0.461486 0.250795 -0.559064
F7    F     F_    0.948963 0.534756 0.765328 -0.598710
F8    F     F_    0.044825 0.337210 0.425022 -0.576832
O9    O     O_3   0.231353 0.659602 0.614108 -0.463077
C29   C     C_3   0.246877 0.648896 0.766426 -0.148084
H1    H     H_    0.183625 0.645135 0.826929 0.194294
H2    H     H_    0.284154 0.712628 0.807341 0.164724
H3    H     H_    0.287918 0.584619 0.790986 0.102265
O10   O     O_3   0.764665 0.454229 0.247087 -0.514283
C30   C     C_3   0.750817 0.536939 0.161053 -0.186799
H4    H     H_    0.711410 0.591428 0.220309 0.117159
H5    H     H_    0.712520 0.516094 0.060804 0.211732
H6    H     H_    0.814649 0.568707 0.125619 0.201673
O11   O     O_3   0.764411 0.544877 0.759327 -0.557914
C31   C     C_3   0.779932 0.640687 0.804087 -0.141712
H7    H     H_    0.840970 0.645833 0.873320 0.209352
H8    H     H_    0.723879 0.663948 0.872276 0.150882
H9    H     H_    0.784176 0.691568 0.710146 0.213710
O12   O     O_3   0.225791 0.332576 0.422764 -0.466119
C32   C     C_3   0.227255 0.264553 0.537603 -0.081243
H10   H     H_    0.261777 0.293337 0.637577 0.106371
H11   H     H_    0.264311 0.200693 0.500886 0.187132
H12   H     H_    0.159480 0.239931 0.565165 0.183876
O13   O     O_3   0.599181 0.063977 0.713840 -0.455097
C33   C     C_3   0.544699 0.043937 0.833748 -0.226887
H13   H     H_    0.496098 0.986258 0.806017 0.116316
H14   H     H_    0.509981 0.109361 0.872026 0.148894
H15   H     H_    0.586927 0.017736 0.926007 0.180955
O14   O     O_3   0.339355 0.937390 0.475873 -0.462854
C34   C     C_3   0.307699 0.951822 0.618816 -0.161886
H16   H     H_    0.301715 0.882907 0.679688 0.162705
H17   H     H_    0.240679 0.983476 0.610108 0.199721
H18   H     H_    0.350404 0.003336 0.681437 0.096387
O15   O     O_3   0.400395 0.062615 0.285939 -0.460559
C35   C     C_3   0.455066 0.041951 0.166709 -0.207166
H19   H     H_    0.501887 0.983334 0.194612 0.117841
H20   H     H_    0.491812 0.106785 0.129682 0.149868
H21   H     H_    0.412698 0.016728 0.073476 0.176262
O16   O     O_3   0.660206 0.940332 0.520213 -0.470829
C36   C     C_3   0.690648 0.954054 0.376294 -0.158019
H22   H     H_    0.695736 0.884840 0.315786 0.142627
H23   H     H_    0.757895 0.986226 0.383010 0.211166
H24   H     H_    0.647641 0.004871 0.314314 0.117820

loop_
_geom_bond_atom_site_label_1
_geom_bond_atom_site_label_2
_ccdc_geom_bond_type
C2    O3    A    
C6    N2    A    
C30   H4    S    
C4    C8    A    
C21   O9    S    
C1    O1    A    
C22   O10   S    
C36   H22   S    
C23   O11   S    
C31   H9    S    
C17   F5    S    
Cu1   N2    S    
C3    C7    A    
Cu2   N1    S    
C19   F7    S    
C15   C16   T    
Cu1   O1    S    
Cu2   O6    S    
C31   H8    S    
C9    O15   S    
C23   C26   A    
C11   O5    A    
C9    C13   A    
C11   C15   S    
C12   C16   S    
C32   H11   S    
C29   H2    S    
C33   H13   S    
C2    O2    A    
C5    F3    S    
O11   C31   S    
C24   O12   S    
C6    F4    S    
C13   C14   S    
C1    C25   S    
O13   C33   S    
C35   H21   S    
C18   F6    S    
C36   H23   S    
C29   H3    S    
O14   C34   S    
Cu2   O2    S    
C17   C27   A    
C20   C24   A    
C18   C28   A    
O16   C36   S    
C35   H20   S    
C10   C14   A    
C17   C21   A    
C31   H7    S    
C19   C23   A    
C34   H16   S    
C5    C9    A    
Cu1   Cu2   S    
C32   H12   S    
Cu1   O7    S    
C33   H15   S    
C8    O14   S    
C29   H1    S    
Cu2   O8    S    
C2    C26   S    
C20   F8    S    
C24   C25   A    
C3    N1    A    
C19   C28   A    
C34   H17   S    
C4    N2    A    
O9    C29   S    
C30   H5    S    
C36   H24   S    
C21   C25   A    
O10   C30   S    
C3    F1    S    
C8    C14   A    
C18   C22   A    
C35   H19   S    
C6    C10   A    
C20   C27   A    
Cu1   O3    S    
Cu2   O4    S    
O12   C32   S    
C12   O7    A    
C7    O13   S    
C4    F2    S    
C10   O16   S    
C12   O6    A    
C11   O8    A    
C34   H18   S    
O15   C35   S    
C7    C13   A    
C32   H10   S    
C22   C26   A    
C30   H6    S    
Cu1   O5    S    
C27   C28   S    
C33   H14   S    
C1    O4    A    
C5    N1    A    
