data_mof_unit_24260.cif
_audit_creation_date              2012-12-10T18:52:11-0500
_audit_creation_method            fapswitch 2.2
_symmetry_space_group_name_H-M    P1
_symmetry_Int_Tables_number       1
_space_group_crystal_system       triclinic
_cell_length_a                    15.735138
_cell_length_b                    10.655231
_cell_length_c                    9.843722
_cell_angle_alpha                 89.668582
_cell_angle_beta                  90.078008
_cell_angle_gamma                 90.07775
_cell_volume                      1650.38285168

loop_
_atom_site_label
_atom_site_type_symbol
_atom_type_description
_atom_site_fract_x
_atom_site_fract_y
_atom_site_fract_z
_atom_type_partial_charge
C1    C     C_R   0.503014 0.260267 0.500380 0.914018
C2    C     C_R   0.449824 0.418275 0.072366 -0.038859
C3    C     C_R   0.337910 0.499366 0.499880 0.934179
C4    C     C_R   0.662089 0.500631 0.500120 0.934101
C5    C     C_3   0.971792 0.454570 0.619195 0.169380
C6    C     C_3   0.028208 0.545416 0.380804 0.169380
C7    C     C_3   0.028682 0.381557 0.518310 -0.286127
C8    C     C_3   0.971318 0.618429 0.481689 -0.286137
C9    C     C_1   0.249133 0.499368 0.499710 -0.087042
C10   C     C_1   0.750867 0.500625 0.500290 -0.087067
C11   C     C_3   0.027422 0.572432 0.600793 -0.063202
C12   C     C_R   0.496993 0.739734 0.499620 0.914089
C13   C     C_3   0.972577 0.427553 0.399205 -0.063217
C14   C     C_3   0.083154 0.500600 0.500490 0.026498
C15   C     C_3   0.916845 0.499386 0.499509 0.026500
C16   C     C_1   0.173938 0.499722 0.499898 0.079643
C17   C     C_1   0.826062 0.500267 0.500101 0.079640
C18   C     C_R   0.561716 0.061311 0.417911 -0.034346
C19   C     C_R   0.438286 0.938691 0.582070 -0.034403
C20   C     C_2   0.942823 0.345225 0.285561 0.975064
C21   C     C_2   0.057176 0.654759 0.714439 0.975063
C22   C     C_2   0.630599 0.121355 0.336748 0.928779
C23   C     C_R   0.554525 0.932422 0.415950 -0.227366
C24   C     C_2   0.369331 0.878666 0.663092 0.928806
C25   C     C_R   0.445495 0.067578 0.584060 -0.227369
C26   C     C_R   0.494661 0.872253 0.498076 -0.108802
C27   C     C_R   0.505358 0.127747 0.501930 -0.108826
C28   C     C_R   0.550199 0.581755 0.071511 -0.034659
C29   C     C_R   0.449800 0.418245 0.928489 -0.034665
C30   C     C_R   0.550176 0.581724 0.927634 -0.038868
H1    H     H_    0.053533 0.284931 0.532939 0.190475
H2    H     H_    0.155826 0.727535 0.818616 0.357323
H3    H     H_    0.706981 0.112390 0.172516 0.357084
H4    H     H_    0.292656 0.887828 0.826960 0.357113
H5    H     H_    0.946466 0.715055 0.467060 0.190472
H6    H     H_    0.598155 0.877717 0.354882 0.181494
H7    H     H_    0.401861 0.122285 0.645121 0.181571
H8    H     H_    0.590338 0.647122 0.125670 0.141339
H9    H     H_    0.409662 0.352878 0.874330 0.141341
H10   H     H_    0.590309 0.647054 0.872788 0.142199
H11   H     H_    0.409691 0.352946 0.127213 0.142201
H12   H     H_    0.844171 0.272438 0.181395 0.357369
I1    I     I_    0.925802 0.380825 0.807895 -0.227245
I2    I     I_    0.074198 0.619161 0.192103 -0.227210
N1    N     N_R   0.499980 0.499970 0.857200 -0.091057
N2    N     N_R   0.500020 0.500030 0.142800 -0.091056
O1    O     O_R   0.499990 0.316750 0.614620 -0.624000
O2    O     O_R   0.855979 0.329901 0.260967 -0.770371
O3    O     O_2   0.004945 0.708174 0.785291 -0.578540
O4    O     O_R   0.144019 0.670077 0.739040 -0.770411
O5    O     O_2   0.663864 0.218751 0.374889 -0.607151
O6    O     O_R   0.659570 0.063535 0.218331 -0.796632
O7    O     O_2   0.336119 0.781239 0.624931 -0.607194
O8    O     O_R   0.340199 0.936569 0.781357 -0.796653
O9    O     O_R   0.500010 0.683250 0.385380 -0.623983
O10   O     O_R   0.500000 0.316780 0.385290 -0.612941
O11   O     O_R   0.500000 0.683220 0.614710 -0.612934
O12   O     O_R   0.376780 0.499970 0.614640 -0.586892
O13   O     O_R   0.623220 0.500030 0.385360 -0.586895
O14   O     O_R   0.376780 0.500000 0.385310 -0.621777
O15   O     O_R   0.623220 0.500000 0.614690 -0.621791
O16   O     O_2   0.995053 0.291813 0.214706 -0.578531
Zn1   Zn    Zn3+2 0.500000 0.499980 0.653120 0.999543
Zn2   Zn    Zn3+2 0.500000 0.500020 0.346880 0.999554

loop_
_geom_bond_atom_site_label_1
_geom_bond_atom_site_label_2
_ccdc_geom_bond_type
C6    C8    S    
O10   Zn2   S    
C5    C11   S    
C3    C9    S    
C6    C14   S    
C30   N1    A    
C13   C20   S    
C28   H8    S    
O14   Zn2   S    
H2    O4    S    
C3    O14   A    
C29   H9    S    
C28   C30   A    
C19   C24   S    
C5    I1    S    
C30   H10   S    
C1    C27   S    
H12   O2    S    
C2    N2    A    
C6    C13   S    
O1    Zn1   S    
C28   N2    A    
O13   Zn2   S    
C20   O2    S    
C2    C29   A    
C12   O11   A    
C4    O13   A    
C21   O3    D    
C21   O4    S    
C1    O10   A    
C11   C21   S    
H4    O8    S    
C8    C15   S    
C5    C7    S    
C13   C15   S    
O9    Zn2   S    
C20   O16   D    
C19   C25   A    
C11   C14   S    
C14   C16   S    
C5    C15   S    
C12   O9    A    
C25   C27   A    
C8    C11   S    
C10   C17   T    
C24   O8    S    
C18   C23   A    
C3    O12   A    
C7    C13   S    
C7    H1    S    
O15   Zn1   S    
C23   H6    S    
C23   C26   A    
C12   C26   S    
O12   Zn1   S    
C15   C17   S    
C19   C26   A    
C1    O1    A    
C6    I2    S    
C2    H11   S    
N2    Zn2   S    
C22   O6    S    
C24   O7    D    
C18   C22   S    
C4    C10   S    
C4    O15   A    
N1    Zn1   S    
C7    C14   S    
C29   N1    A    
C18   C27   A    
O11   Zn1   S    
C9    C16   T    
C22   O5    D    
H3    O6    S    
C8    H5    S    
C25   H7    S    
