data_mof_unit_54874.cif
_audit_creation_date              2012-12-10T19:11:31-0500
_audit_creation_method            fapswitch 2.2
_symmetry_space_group_name_H-M    P1
_symmetry_Int_Tables_number       1
_space_group_crystal_system       triclinic
_cell_length_a                    10.658318
_cell_length_b                    9.800964
_cell_length_c                    10.538045
_cell_angle_alpha                 91.244117
_cell_angle_beta                  92.607048
_cell_angle_gamma                 88.495521
_cell_volume                      1099.07253385

loop_
_atom_site_label
_atom_site_type_symbol
_atom_type_description
_atom_site_fract_x
_atom_site_fract_y
_atom_site_fract_z
_atom_type_partial_charge
C1    C     C_R   0.258376 0.501353 0.503989 0.945382
C2    C     C_3   0.922593 0.523695 0.370876 -0.401235
C3    C     C_3   0.379008 0.083333 0.442923 -0.381574
C4    C     C_3   0.379251 0.921398 0.443028 -0.379993
C5    C     C_3   0.597034 0.075259 0.415500 -0.292593
C6    C     C_3   0.601250 0.914541 0.420740 -0.255221
C7    C     C_3   0.515125 0.079912 0.628844 0.390398
C8    C     C_3   0.517925 0.916938 0.629150 0.372045
C9    C     C_R   0.499743 0.498685 0.257626 0.976478
C10   C     C_R   0.742554 0.499219 0.503776 0.866841
C11   C     C_R   0.497244 0.500675 0.742319 0.986229
C12   C     C_3   0.497617 0.496162 0.122915 -0.210498
C13   C     C_3   0.377631 0.493774 0.037224 0.286713
C14   C     C_3   0.561982 0.387374 0.039958 0.316526
C15   C     C_3   0.442251 0.385099 0.954171 0.467150
C16   C     C_3   0.494762 0.499551 0.877244 -0.146711
C17   C     C_3   0.429870 0.608879 0.959456 -0.184772
C18   C     C_3   0.615227 0.501828 0.962338 -0.263058
C19   C     C_3   0.550604 0.611381 0.047029 -0.259784
C20   C     C_3   0.330795 0.189839 0.986170 0.190465
C21   C     C_3   0.312240 0.045374 0.934337 -0.809901
C22   C     C_3   0.731551 0.129217 0.686221 0.091632
C23   C     C_3   0.072113 0.624844 0.590956 0.267815
C24   C     C_3   0.812157 0.161812 0.805731 -0.750370
C25   C     C_3   0.630205 0.859335 0.818512 0.070101
C26   C     C_3   0.756883 0.804664 0.869965 -0.777498
C27   C     C_3   0.077541 0.362536 0.556633 0.285641
C28   C     C_3   0.928995 0.615552 0.598138 -0.408989
C29   C     C_3   0.934888 0.363149 0.555645 -0.467831
C30   C     C_3   0.066797 0.519794 0.371212 -0.527550
C31   C     C_3   0.122314 0.502519 0.508670 -0.019520
C32   C     C_3   0.879457 0.500063 0.506662 0.043242
Cl1   Cl    Cl    0.221067 0.499749 0.088977 -0.641196
Cl2   Cl    Cl    0.652566 0.243001 0.094139 -0.692642
Cl3   Cl    Cl    0.146254 0.640057 0.746840 -0.579291
Cl4   Cl    Cl    0.143865 0.315635 0.709933 -0.576551
H1    H     H_    0.886080 0.624450 0.336553 0.188720
H2    H     H_    0.436332 0.883555 0.682908 0.041867
H3    H     H_    0.690995 0.115855 0.438094 0.144959
H4    H     H_    0.694855 0.879208 0.459684 0.179321
H5    H     H_    0.374494 0.698769 0.923843 0.203045
H6    H     H_    0.712456 0.501207 0.929222 0.174564
H7    H     H_    0.594501 0.704051 0.089747 0.176173
H8    H     H_    0.092129 0.721672 0.543156 0.104385
H9    H     H_    0.107437 0.279539 0.489774 0.103391
H10   H     H_    0.903608 0.593500 0.696564 0.211435
H11   H     H_    0.904262 0.350072 0.653491 0.209080
H12   H     H_    0.884748 0.443733 0.303986 0.216953
H13   H     H_    0.885283 0.716444 0.573292 0.176207
H14   H     H_    0.901331 0.276984 0.493547 0.155906
H15   H     H_    0.099873 0.615330 0.329825 0.226930
H16   H     H_    0.098358 0.432690 0.310082 0.235728
H17   H     H_    0.236476 0.235426 0.002942 0.215569
H18   H     H_    0.386020 0.183342 0.078299 0.134935
H19   H     H_    0.404558 0.994039 0.920682 0.222589
H20   H     H_    0.260314 0.985987 0.002559 0.220300
H21   H     H_    0.257740 0.047506 0.842000 0.277909
H22   H     H_    0.753633 0.202662 0.616484 0.167165
H23   H     H_    0.360378 0.120052 0.344456 0.186846
H24   H     H_    0.760138 0.028479 0.647435 0.166451
H25   H     H_    0.796295 0.270070 0.835422 0.268363
H26   H     H_    0.788583 0.096588 0.885181 0.284315
H27   H     H_    0.913032 0.144662 0.786776 0.230459
H28   H     H_    0.556151 0.794100 0.850730 0.160047
H29   H     H_    0.613544 0.962584 0.859740 0.197326
H30   H     H_    0.834241 0.863969 0.833333 0.262396
H31   H     H_    0.761729 0.811007 0.975339 0.215570
H32   H     H_    0.770044 0.697098 0.838657 0.245918
H33   H     H_    0.361896 0.881590 0.344285 0.199499
H34   H     H_    0.299019 0.123587 0.497845 0.185574
H35   H     H_    0.299507 0.887397 0.497995 0.170887
H36   H     H_    0.576939 0.105254 0.315361 0.222252
H37   H     H_    0.592689 0.871100 0.322437 0.166288
H38   H     H_    0.425890 0.106976 0.675580 0.131522
N1    N     N_3   0.499750 0.138610 0.497240 -0.093860
N2    N     N_3   0.499750 0.861390 0.497240 -0.070062
O1    O     O_R   0.314910 0.616040 0.499970 -0.632094
O2    O     O_3   0.603701 0.145974 0.713310 -0.566293
O3    O     O_3   0.630271 0.858713 0.684418 -0.603778
O4    O     O_R   0.314910 0.383960 0.499970 -0.623575
O5    O     O_R   0.500080 0.616020 0.313900 -0.631777
O6    O     O_R   0.500080 0.383980 0.313900 -0.608491
O7    O     O_R   0.685320 0.616040 0.499930 -0.607886
O8    O     O_R   0.685320 0.383960 0.499930 -0.640809
O9    O     O_R   0.500150 0.616060 0.686000 -0.610290
O10   O     O_R   0.500150 0.383940 0.686000 -0.530129
O11   O     O_3   0.390861 0.266644 0.895871 -0.542120
Zn1   Zn    Zn3+2 0.500150 0.654960 0.499940 0.963841
Zn2   Zn    Zn3+2 0.500150 0.345040 0.499940 0.986599

loop_
_geom_bond_atom_site_label_1
_geom_bond_atom_site_label_2
_ccdc_geom_bond_type
C30   H15   S    
C24   H25   S    
C27   C29   S    
C1    O1    A    
C14   C18   S    
C8    N2    S    
C7    C8    S    
C21   H21   S    
C28   H10   S    
O6    Zn2   S    
C29   H11   S    
C26   H31   S    
C5    H36   S    
C18   H6    S    
C22   H24   S    
C30   C31   S    
C11   O10   A    
C15   C16   S    
C20   O11   S    
C10   O7    A    
C1    C31   S    
C2    C32   S    
C18   C19   S    
C11   C16   S    
O4    Zn2   S    
O1    Zn1   S    
C16   C17   S    
C8    O3    S    
C3    N1    S    
N2    Zn1   S    
C9    O6    A    
C27   H9    S    
O7    Zn1   S    
C8    H2    S    
C4    H33   S    
C19   H7    S    
C7    H38   S    
C29   H14   S    
C27   C31   S    
C26   H30   S    
C28   C32   S    
C3    H34   S    
C25   H29   S    
C22   O2    S    
C20   H18   S    
C21   H19   S    
C7    N1    S    
C2    H12   S    
C25   C26   S    
C23   H8    S    
C25   H28   S    
C23   C31   S    
C5    N1    S    
C13   Cl1   S    
C28   H13   S    
C23   C28   S    
C12   C13   S    
C22   H22   S    
C7    O2    S    
C12   C14   S    
C24   H27   S    
C23   Cl3   S    
C13   C15   S    
C6    H4    S    
O8    Zn2   S    
C3    C4    S    
C6    H37   S    
C15   O11   S    
O9    Zn1   S    
C30   H16   S    
C24   H26   S    
C25   O3    S    
C20   H17   S    
O10   Zn2   S    
C14   Cl2   S    
C21   H20   S    
C6    N2    S    
C27   Cl4   S    
C29   C32   S    
C13   C17   S    
C2    C30   S    
C26   H32   S    
C5    H3    S    
C2    H1    S    
C5    C6    S    
C11   O9    A    
C12   C19   S    
C10   O8    A    
C17   C19   S    
C22   C24   S    
C9    C12   S    
C17   H5    S    
C4    N2    S    
O5    Zn1   S    
N1    Zn2   S    
C10   C32   S    
C20   C21   S    
C16   C18   S    
C1    O4    A    
C14   C15   S    
C4    H35   S    
C9    O5    A    
C3    H23   S    
