data_mof_unit_60320.cif
_audit_creation_date              2013-03-05T16:23:57-0500
_audit_creation_method            fapswitch 2.2
_symmetry_space_group_name_H-M    P1
_symmetry_Int_Tables_number       1
_space_group_crystal_system       triclinic
_cell_length_a                    15.13674
_cell_length_b                    13.848317
_cell_length_c                    23.570516
_cell_angle_alpha                 89.99817
_cell_angle_beta                  90.261407
_cell_angle_gamma                 89.996986
_cell_volume                      4940.76180279

loop_
_atom_site_label
_atom_site_type_symbol
_atom_site_description
_atom_site_fract_x
_atom_site_fract_y
_atom_site_fract_z
_atom_type_partial_charge
O1    O     O_R   0.371460 0.581430 0.500000 -0.585110
O2    O     O_R   0.628540 0.418570 0.500000 -0.591252
O3    O     O_R   0.628540 0.581430 0.500000 -0.585065
O4    O     O_R   0.371460 0.418570 0.500000 -0.591091
C1    C     C_R   0.329860 0.499996 0.500026 0.832513
C2    C     C_R   0.670139 0.499992 0.499979 0.831944
O5    O     O_R   0.499970 0.581450 0.417880 -0.557547
O6    O     O_R   0.500030 0.418550 0.582120 -0.556520
O7    O     O_R   0.500030 0.581450 0.582120 -0.557376
O8    O     O_R   0.499970 0.418550 0.417880 -0.556877
C3    C     C_R   0.499100 0.500016 0.390942 0.914039
C4    C     C_R   0.500905 0.500014 0.609066 0.912757
Cu1   Cu    Cu3+1 0.500000 0.596430 0.500000 1.018792
Cu2   Cu    Cu3+1 0.500000 0.403570 0.500000 1.019545
C5    C     C_R   0.580237 0.491237 0.881050 0.595432
C6    C     C_R   0.419665 0.492243 0.118985 0.595387
N1    N     N_R   0.501595 0.488245 0.852044 -0.453862
N2    N     N_R   0.498275 0.488333 0.147990 -0.453891
C7    C     C_R   0.422784 0.481863 0.879979 0.594183
C8    C     C_R   0.577020 0.481021 0.120058 0.594173
C9    C     C_R   0.420714 0.481182 0.939393 -0.064505
C10   C     C_R   0.579083 0.480284 0.060643 -0.064501
C11   C     C_R   0.500736 0.481186 0.970025 -0.045411
C12   C     C_R   0.499065 0.481214 0.030011 -0.045393
C13   C     C_R   0.582230 0.482047 0.940747 -0.127951
C14   C     C_R   0.417583 0.483056 0.059289 -0.127973
C15   C     C_R   0.340211 0.479023 0.968465 -0.180453
C16   C     C_R   0.659559 0.477152 0.031572 -0.180477
C17   C     C_R   0.337541 0.478629 0.027726 0.332153
C18   C     C_R   0.662224 0.476687 0.972310 0.332188
O9    O     O_2   0.655602 0.506503 0.852118 -0.448372
O10   O     O_2   0.344452 0.508399 0.147916 -0.448349
O11   O     O_2   0.346517 0.476014 0.850268 -0.501410
O12   O     O_2   0.653228 0.474298 0.149770 -0.501411
H1    H     H_    0.278402 0.475957 0.945155 0.226915
H2    H     H_    0.721335 0.473364 0.054883 0.226915
C19   C     C_R   0.543969 0.564779 0.237762 -0.106062
C20   C     C_R   0.456600 0.565225 0.762283 -0.106251
H3    H     H_    0.580437 0.618323 0.213909 0.200220
H4    H     H_    0.420628 0.619154 0.786147 0.200251
C21   C     C_R   0.544510 0.568286 0.296898 0.308252
C22   C     C_R   0.456074 0.568767 0.703147 0.308571
C23   C     C_R   0.495978 0.499501 0.328389 -0.255591
C24   C     C_R   0.503991 0.499480 0.671635 -0.255789
C25   C     C_R   0.446872 0.427597 0.299143 0.269494
C26   C     C_R   0.552434 0.427043 0.700885 0.270000
C27   C     C_R   0.450437 0.423316 0.239903 -0.136183
C28   C     C_R   0.548826 0.422750 0.760117 -0.136189
H5    H     H_    0.413965 0.367824 0.217417 0.208350
H6    H     H_    0.584787 0.366831 0.782580 0.208170
C29   C     C_R   0.497914 0.492002 0.209025 0.190940
C30   C     C_R   0.501986 0.491934 0.791010 0.190959
C31   C     C_R   0.095307 0.582410 0.517359 -0.140570
C32   C     C_R   0.904900 0.417475 0.517397 -0.143265
C33   C     C_R   0.904678 0.582354 0.482562 -0.140547
C34   C     C_R   0.095102 0.417425 0.482708 -0.143298
H7    H     H_    0.060951 0.646338 0.531856 0.144433
H8    H     H_    0.939431 0.353571 0.531962 0.143227
H9    H     H_    0.939027 0.646238 0.467995 0.144501
H10   H     H_    0.060577 0.353475 0.468214 0.143235
C35   C     C_R   0.187127 0.582646 0.516993 -0.150334
C36   C     C_R   0.813076 0.417267 0.516998 -0.121533
C37   C     C_R   0.812858 0.582588 0.482925 -0.149841
C38   C     C_R   0.186925 0.417221 0.483103 -0.120727
H11   H     H_    0.221855 0.646989 0.530726 0.176667
H12   H     H_    0.778529 0.352943 0.530744 0.170030
H13   H     H_    0.778122 0.646885 0.469118 0.176842
H14   H     H_    0.221474 0.352852 0.469428 0.170015
C39   C     C_R   0.233414 0.499959 0.500032 -0.033925
C40   C     C_R   0.766582 0.499952 0.499975 -0.034104
C41   C     C_R   0.048554 0.499914 0.500019 0.096653
C42   C     C_R   0.951439 0.499913 0.499995 0.096655
C43   C     C_R   0.567604 0.107885 0.527037 -0.245368
C44   C     C_R   0.460232 0.892150 0.455697 -0.248458
C45   C     C_R   0.432391 0.107899 0.472961 -0.245683
C46   C     C_R   0.539759 0.892141 0.544305 -0.248183
H15   H     H_    0.622395 0.071842 0.547660 0.147776
H16   H     H_    0.430008 0.928199 0.419833 0.152288
H17   H     H_    0.377601 0.071867 0.452336 0.147800
H18   H     H_    0.569982 0.928184 0.580169 0.152455
C47   C     C_R   0.566013 0.209404 0.526862 0.120447
C48   C     C_R   0.460395 0.790625 0.456742 0.131276
C49   C     C_R   0.433988 0.209419 0.473134 0.119432
C50   C     C_R   0.539602 0.790617 0.543258 0.131752
H19   H     H_    0.618202 0.248704 0.548161 0.166775
H20   H     H_    0.428880 0.751365 0.422554 0.144601
H21   H     H_    0.381808 0.248731 0.451826 0.166580
H22   H     H_    0.571118 0.751352 0.577447 0.144810
N3    N     N_R   0.500000 0.258690 0.500000 -0.195011
N4    N     N_R   0.500000 0.741310 0.500000 -0.184254
C51   C     C_R   0.499996 0.054693 0.500000 0.120037
C52   C     C_R   0.499995 0.945346 0.500001 0.116083
N5    N     N_R   0.253154 0.468130 0.054504 0.172555
O13   O     O_R   0.186634 0.520250 0.037418 -0.278165
O14   O     O_R   0.238253 0.393498 0.086623 -0.263933
N6    N     N_R   0.746502 0.465156 0.945534 0.172513
O15   O     O_R   0.813545 0.516462 0.962618 -0.278035
O16   O     O_R   0.760647 0.390343 0.913419 -0.264166
Cl1   Cl    Cl    0.610725 0.657612 0.329310 -0.571493
Cl2   Cl    Cl    0.390629 0.658830 0.670791 -0.571352
N7    N     N_R   0.390101 0.361304 0.328546 0.140382
O17   O     O_R   0.336090 0.392996 0.367105 -0.383883
O18   O     O_R   0.381366 0.273039 0.310371 -0.335898
N8    N     N_R   0.608583 0.360149 0.671484 0.140590
O19   O     O_R   0.663453 0.391346 0.633298 -0.383515
O20   O     O_R   0.615705 0.271513 0.689261 -0.336155

loop_
_geom_bond_atom_site_label_1
_geom_bond_atom_site_label_2
_geom_bond_distance
_ccdc_geom_bond_type
C49   H21   1.081104 S    
N5    O13   1.301211 A    
C33   H9    1.082841 S    
Cu1   N4    2.006343 S    
C15   C17   1.397596 A    
O3    C2    1.291629 A    
C46   C50   1.406160 A    
N8    O20   1.301309 A    
C27   H5    1.083344 S    
O5    C3    1.294228 A    
N7    O17   1.301451 A    
C50   N4    1.363712 A    
O1    C1    1.291653 A    
C38   H14   1.083280 S    
C7    C9    1.400951 A    
C12   C14   1.416273 A    
C20   C22   1.394716 A    
C19   C29   1.398696 A    
C5    C13   1.413019 A    
C20   C30   1.398643 A    
C36   C40   1.401684 A    
C2    C40   1.459833 S    
C44   C52   1.410607 A    
O7    Cu1   1.946685 S    
C18   N6    1.434753 S    
C31   C35   1.389926 A    
N6    O16   1.301439 A    
C1    C39   1.459879 S    
C11   C12   1.414228 A    
C21   Cl1   1.763980 S    
C3    C23   1.474977 S    
C33   C42   1.403740 A    
O3    Cu1   1.956723 S    
C45   C51   1.410745 A    
C8    O12   1.349963 S    
C28   H6    1.083315 S    
C9    C15   1.401041 A    
N7    O18   1.301766 A    
C20   H4    1.083244 S    
C10   C16   1.401043 A    
Cu1   Cu2   2.670788 S    
C19   C21   1.394684 A    
C21   C23   1.415268 A    
O2    C2    1.291488 A    
C22   C24   1.415383 A    
C44   C48   1.406163 A    
N1    C30   1.439564 S    
C43   C47   1.406079 A    
N8    O19   1.301299 A    
C24   C26   1.419331 A    
N2    C29   1.439546 S    
C26   C28   1.398724 A    
C25   C27   1.398848 A    
C6    C14   1.413016 A    
C49   N3    1.363561 A    
C37   H13   1.083314 S    
C36   H12   1.083286 S    
C50   H22   1.081232 S    
C43   C51   1.410738 A    
O8    Cu2   1.946687 S    
C51   C52   1.514269 S    
C31   H7    1.082838 S    
C27   C29   1.398480 A    
C32   C36   1.389899 A    
C15   H1    1.083656 S    
C48   H20   1.081232 S    
C26   N8    1.437402 S    
C34   H10   1.082836 S    
C33   C37   1.389917 A    
Cu2   N3    2.006343 S    
C22   Cl2   1.763923 S    
C37   C40   1.401569 A    
C28   C30   1.398392 A    
O6    C4    1.294699 A    
C34   C41   1.403727 A    
N6    O15   1.301222 A    
C34   C38   1.389888 A    
C38   C39   1.401702 A    
C23   C25   1.419391 A    
C25   N7    1.437729 S    
C46   C52   1.410607 A    
C6    N2    1.370675 A    
C8    C10   1.400956 A    
C9    C11   1.407305 A    
C7    O11   1.349946 S    
C10   C12   1.407315 A    
O1    Cu1   1.956746 S    
C31   C41   1.403743 A    
C32   H8    1.082836 S    
C35   C39   1.401574 A    
C13   C18   1.420184 A    
C5    N1    1.370670 A    
O6    Cu2   1.946698 S    
C46   H18   1.081445 S    
O4    C1    1.291487 A    
C5    O9    1.348421 S    
C6    O10   1.348442 S    
C48   N4    1.363713 A    
C16   C18   1.397603 A    
C47   N3    1.363552 A    
C41   C42   1.469994 S    
C19   H3    1.083276 S    
C17   N5    1.434750 S    
C45   C49   1.406091 A    
N1    C7    1.368066 A    
N2    C8    1.368068 A    
C11   C13   1.416264 A    
O4    Cu2   1.956724 S    
O2    Cu2   1.956745 S    
O7    C4    1.294316 A    
O8    C3    1.294591 A    
C35   H11   1.083309 S    
O5    Cu1   1.946700 S    
C32   C42   1.403745 A    
C16   H2    1.083659 S    
C14   C17   1.420180 A    
N5    O14   1.301436 A    
C44   H16   1.081442 S    
C43   H15   1.081440 S    
C4    C24   1.475331 S    
C45   H17   1.081442 S    
C47   H19   1.081079 S    
