data_mof_unit_6177.cif
_audit_creation_date              2012-12-11T14:21:11-0500
_audit_creation_method            fapswitch 2.2
_symmetry_space_group_name_H-M    P1
_symmetry_Int_Tables_number       1
_space_group_crystal_system       triclinic
_cell_length_a                    11.558731
_cell_length_b                    11.505024
_cell_length_c                    19.485365
_cell_angle_alpha                 90.584984
_cell_angle_beta                  90.083214
_cell_angle_gamma                 60.139634
_cell_volume                      2247.08641175

loop_
_atom_site_label
_atom_site_type_symbol
_atom_type_description
_atom_site_fract_x
_atom_site_fract_y
_atom_site_fract_z
_atom_type_partial_charge
C1    C     C_R   0.640537 0.117741 0.599059 0.551816
C2    C     C_1   0.641305 0.703450 0.667831 0.007043
C3    C     C_1   0.127604 0.197948 0.859523 0.000797
C4    C     C_1   0.171365 0.170104 0.727685 -0.030732
C5    C     C_1   0.150727 0.181580 0.799038 -0.031259
C6    C     C_1   0.194724 0.161132 0.667221 0.003662
C7    C     C_1   0.678386 0.190458 0.861027 0.003949
C8    C     C_1   0.658314 0.167507 0.729041 -0.030690
C9    C     C_1   0.665375 0.180475 0.800466 -0.030722
C10   C     C_1   0.652881 0.150270 0.668497 0.005509
C11   C     C_R   0.668588 0.661007 0.196862 -0.051503
C12   C     C_R   0.612511 0.745652 0.598455 0.552581
C13   C     C_R   0.541300 0.715058 0.227019 -0.024817
C14   C     C_R   0.533939 0.685988 0.295796 0.029625
C15   C     C_R   0.772316 0.603728 0.310568 0.235191
C16   C     C_R   0.783815 0.601192 0.238838 -0.134242
C17   C     C_R   0.423277 0.778960 0.187729 -0.081861
C18   C     C_R   0.306348 0.786816 0.211531 -0.137931
C19   C     C_R   0.303422 0.737737 0.275834 -0.138368
C20   C     C_R   0.415828 0.685647 0.318317 0.136501
C21   C     C_R   0.645106 0.660382 0.338529 0.058253
C22   C     C_R   0.170300 0.178655 0.184400 -0.007654
C23   C     C_R   0.240352 0.145574 0.597990 0.561563
C24   C     C_R   0.253867 0.227734 0.205806 0.014923
C25   C     C_R   0.281719 0.225348 0.276689 -0.014165
C26   C     C_R   0.194151 0.073248 0.294262 -0.128899
C27   C     C_R   0.143345 0.099504 0.228363 -0.160575
C28   C     C_R   0.298712 0.292128 0.159463 0.302109
C29   C     C_R   0.324728 0.389780 0.184672 -0.076647
C30   C     C_R   0.327835 0.407380 0.254796 -0.210558
C31   C     C_R   0.320162 0.318283 0.300083 -0.141801
C32   C     C_R   0.260433 0.137612 0.320529 0.014356
C33   C     C_R   0.669810 0.187769 0.193674 -0.002332
C34   C     C_R   0.648046 0.111194 0.402571 0.537922
C35   C     C_R   0.727713 0.055096 0.216746 0.020670
C36   C     C_R   0.756424 0.031795 0.286857 0.038464
C37   C     C_R   0.619183 0.270126 0.310907 -0.154285
C38   C     C_R   0.621601 0.294242 0.241369 -0.137327
C39   C     C_R   0.776324 0.944985 0.170539 -0.092090
C40   C     C_R   0.879015 0.820289 0.190160 -0.112521
C41   C     C_R   0.930234 0.804351 0.255992 -0.146175
C42   C     C_R   0.866437 0.906233 0.305132 -0.092206
C43   C     C_R   0.681029 0.139065 0.334203 0.003601
C44   C     C_R   0.082562 0.230582 0.928829 0.552085
C45   C     C_R   0.617658 0.731552 0.404578 0.578220
C46   C     C_R   0.683770 0.604828 0.929678 0.537086
C47   C     C_R   0.708193 0.206186 0.930367 0.539794
C48   C     C_R   0.087142 0.232940 0.123653 0.579214
C49   C     C_R   0.683670 0.611885 0.126180 0.529901
C50   C     C_R   0.706470 0.210818 0.126066 0.529351
C51   C     C_R   0.300706 0.116638 0.393360 0.556636
C52   C     C_1   0.670295 0.647046 0.860302 0.002347
C53   C     C_1   0.654861 0.683493 0.728379 -0.031025
C54   C     C_1   0.663442 0.667019 0.799749 -0.031570
Cr1   Cr    Cr6+3 0.404720 0.198220 0.499960 1.011464
Cr2   Cr    Cr6+3 0.698290 0.897110 0.500380 1.024758
Cr3   Cr    Cr6+3 0.396970 0.904720 0.499610 1.026577
Cr4   Cr    Cr6+3 0.926180 0.151990 0.028120 1.020694
Cr5   Cr    Cr6+3 0.921330 0.451820 0.027470 1.045568
Cr6   Cr    Cr6+3 0.626260 0.446870 0.028710 1.030973
H1    H     H_    0.345862 0.449821 0.149941 0.141815
H2    H     H_    0.348480 0.483126 0.273507 0.118544
H3    H     H_    0.339071 0.330878 0.352663 0.171604
H4    H     H_    0.571202 0.352869 0.346716 0.139164
H5    H     H_    0.744356 0.958019 0.117535 0.109138
H6    H     H_    0.584627 0.396402 0.224831 0.148577
H7    H     H_    0.924480 0.738837 0.153126 0.123027
H8    H     H_    0.020349 0.713211 0.268594 0.086524
H9    H     H_    0.912415 0.888594 0.355040 0.135803
H10   H     H_    0.423826 0.814557 0.136535 0.121294
H11   H     H_    0.881592 0.542197 0.215776 0.147245
H12   H     H_    0.218893 0.827464 0.179187 0.119232
H13   H     H_    0.213467 0.739725 0.292963 0.094965
H14   H     H_    0.171653 0.010802 0.326431 0.145078
H15   H     H_    0.077657 0.062163 0.212858 0.145049
O1    O     O_R   0.267740 0.231960 0.575440 -0.498946
O2    O     O_R   0.685970 0.784660 0.430010 -0.493174
O3    O     O_R   0.502530 0.767000 0.423990 -0.507613
O4    O     O_R   0.288330 0.026350 0.429250 -0.499430
O5    O     O_3   0.499990 0.000020 0.499980 -0.273592
O6    O     O_R   0.821500 0.119340 0.952830 -0.510531
O7    O     O_R   0.037130 0.162530 0.957360 -0.497728
O8    O     O_R   0.056440 0.344740 0.951340 -0.486443
O9    O     O_R   0.797900 0.560360 0.957470 -0.497446
O10   O     O_R   0.596130 0.579390 0.952730 -0.506080
O11   O     O_R   0.639060 0.321160 0.958670 -0.487916
O12   O     O_R   0.527280 0.186640 0.570530 -0.491579
O13   O     O_R   0.821240 0.124200 0.104370 -0.517807
O14   O     O_R   0.036890 0.167040 0.097840 -0.516145
O15   O     O_R   0.056180 0.349610 0.102880 -0.471210
O16   O     O_R   0.797660 0.564870 0.097950 -0.515564
O17   O     O_R   0.595880 0.584250 0.104270 -0.514243
O18   O     O_R   0.638830 0.325670 0.099150 -0.500743
O19   O     O_3   0.824590 0.350230 0.028100 -0.254778
O20   O     O_R   0.728090 0.003450 0.576380 -0.503573
O21   O     O_R   0.682970 0.789190 0.570490 -0.491219
O22   O     O_R   0.499290 0.771880 0.575530 -0.503881
O23   O     O_R   0.285330 0.030870 0.569730 -0.489338
O24   O     O_R   0.270980 0.227080 0.423890 -0.532817
O25   O     O_R   0.530280 0.182120 0.430050 -0.526341
O26   O     O_R   0.731330 0.998570 0.424830 -0.529739
O27   O     O_3   0.876996 0.517046 0.352146 -0.554382
C55   C     C_3   0.983335 0.542859 0.349277 -0.106242
H16   H     H_    0.059969 0.476927 0.386578 0.169270
H17   H     H_    0.950314 0.647519 0.365607 0.120632
H18   H     H_    0.031790 0.517462 0.297999 0.115744
N1    N     N_3   0.411479 0.624856 0.381667 -0.595386
H19   H     H_    0.331728 0.697276 0.410878 0.238682
H20   H     H_    0.388476 0.549658 0.371543 0.188233
O28   O     O_3   0.307580 0.269369 0.089229 -0.548857
C56   C     C_3   0.411503 0.137854 0.075336 -0.112370
H21   H     H_    0.388105 0.061626 0.095240 0.099348
H22   H     H_    0.507842 0.121211 0.096561 0.102093
H23   H     H_    0.423741 0.123528 0.018890 0.142801

loop_
_geom_bond_atom_site_label_1
_geom_bond_atom_site_label_2
_ccdc_geom_bond_type
C25   C31   A    
Cr2   O20   S    
C22   C48   S    
C26   C32   A    
C39   H5    S    
C41   C42   A    
Cr3   O4    S    
C36   C42   A    
C35   C36   A    
C23   O1    A    
C44   O8    A    
C2    C12   S    
C53   C54   S    
C26   C27   A    
C29   C30   A    
C14   C21   A    
C28   C29   A    
Cr5   O8    S    
Cr2   O26   S    
C44   O7    A    
Cr4   O7    S    
C30   C31   A    
Cr3   O23   S    
C15   C16   A    
C46   C52   S    
Cr2   O21   S    
C18   C19   A    
C1    O12   A    
O28   C56   S    
C33   C35   A    
C38   H6    S    
C8    C9    S    
C40   H7    S    
Cr1   O25   S    
C34   O25   A    
N1    H19   S    
C45   O3    A    
Cr5   O19   S    
C55   H18   S    
C50   O13   A    
C46   O10   A    
Cr6   O18   S    
C25   C32   A    
C17   H10   S    
C48   O15   A    
C13   C14   A    
C18   H12   S    
N1    H20   S    
Cr3   O5    S    
C16   H11   S    
C49   O16   A    
C27   H15   S    
C52   C54   T    
C41   H8    S    
C21   C45   S    
Cr6   O17   S    
C51   O24   A    
C29   H1    S    
C3    C44   S    
C34   O26   A    
C34   C43   S    
C47   O11   A    
C14   C20   A    
C19   H13   S    
Cr5   O9    S    
C56   H22   S    
Cr4   O6    S    
C39   C40   A    
Cr6   O11   S    
C28   O28   S    
C33   C50   S    
C42   H9    S    
Cr2   O2    S    
Cr5   O15   S    
C7    C47   S    
C37   C43   A    
C35   C39   A    
C32   C51   S    
C37   C38   A    
C11   C49   S    
C31   H3    S    
C11   C16   A    
C1    O20   A    
Cr3   O22   S    
C17   C18   A    
C55   H17   S    
Cr5   O16   S    
C24   C25   A    
C12   O22   A    
C46   O9    A    
Cr1   O1    S    
C4    C6    T    
C40   C41   A    
C22   C27   A    
C30   H2    S    
C22   C24   A    
C49   O17   A    
C37   H4    S    
C7    C9    T    
C56   H21   S    
Cr3   O3    S    
C1    C10   S    
C24   C28   A    
C4    C5    S    
C3    C5    T    
C2    C53   T    
Cr4   O13   S    
Cr6   O10   S    
C50   O18   A    
C33   C38   A    
Cr2   O5    S    
C13   C17   A    
C48   O14   A    
C20   N1    S    
C19   C20   A    
Cr4   O19   S    
Cr1   O5    S    
C11   C13   A    
C6    C23   S    
C26   H14   S    
C56   H23   S    
C47   O6    A    
C15   O27   S    
Cr1   O12   S    
O27   C55   S    
Cr4   O14   S    
C51   O4    A    
C15   C21   A    
C23   O23   A    
C8    C10   T    
Cr1   O24   S    
C55   H16   S    
C12   O21   A    
C36   C43   A    
C45   O2    A    
Cr6   O19   S    
