data_mof_unit_66018.cif
_audit_creation_date              2012-10-26T20:47:28-0400
_audit_creation_method            fapswitch 2.2
_symmetry_space_group_name_H-M    P1
_symmetry_Int_Tables_number       1
_space_group_crystal_system       triclinic
_cell_length_a                    13.963691
_cell_length_b                    13.893577
_cell_length_c                    15.198101
_cell_angle_alpha                 91.747752
_cell_angle_beta                  90.31349
_cell_angle_gamma                 84.491458
_cell_volume                      2933.52545878

loop_
_atom_site_label
_atom_site_type_symbol
_atom_type_description
_atom_site_fract_x
_atom_site_fract_y
_atom_site_fract_z
_atom_type_partial_charge
C1    C     C_R   0.499350 0.503628 0.330277 0.551690
C2    C     C_R   0.796408 0.432429 0.449734 0.064024
C3    C     C_R   0.213850 0.444927 0.438814 0.409634
C4    C     C_R   0.786150 0.555073 0.561186 0.409634
C5    C     C_R   0.112710 0.454534 0.429764 0.221452
C6    C     C_R   0.887289 0.545466 0.570236 0.221453
C7    C     C_R   0.054326 0.506039 0.494919 -0.008004
C8    C     C_R   0.945674 0.493961 0.505081 -0.008004
C9    C     C_R   0.515834 0.317119 0.499928 0.562745
C10   C     C_R   0.484166 0.682881 0.500072 0.562745
C11   C     C_1   0.474261 0.785949 0.499611 0.064363
C12   C     C_R   0.500650 0.496372 0.669723 0.551690
C13   C     C_1   0.525739 0.214051 0.500389 0.064363
C14   C     C_2   0.460092 0.976468 0.498283 0.242090
C15   C     C_2   0.539908 0.023532 0.501717 0.242090
C16   C     C_1   0.533080 0.127253 0.500949 0.090636
C17   C     C_1   0.466920 0.872747 0.499051 0.090636
C18   C     C_R   0.586019 0.492246 0.097542 -0.075364
C19   C     C_R   0.413981 0.507754 0.902458 -0.075364
C20   C     C_R   0.584341 0.489264 0.188377 -0.112702
C21   C     C_R   0.415658 0.510737 0.811623 -0.112702
C22   C     C_R   0.498493 0.512795 0.234197 -0.027995
C23   C     C_R   0.421042 0.560021 0.095911 0.216056
C24   C     C_R   0.501507 0.487205 0.765803 -0.027995
C25   C     C_R   0.417109 0.553635 0.188057 0.004128
C26   C     C_R   0.582891 0.446365 0.811943 0.004128
C27   C     C_1   0.332000 0.595739 0.234459 0.344354
C28   C     C_1   0.668000 0.404261 0.765541 0.344354
C29   C     C_1   0.051275 0.670928 0.564185 0.287668
C30   C     C_1   0.948725 0.329072 0.435814 0.287668
C31   C     C_1   0.249110 0.632705 0.609435 0.296464
C32   C     C_1   0.750890 0.367295 0.390565 0.296464
C33   C     C_R   0.578958 0.439979 0.904089 0.216057
C34   C     C_R   0.500901 0.512015 0.048845 0.052398
C35   C     C_R   0.499099 0.487985 0.951155 0.052398
C36   C     C_R   0.101788 0.577019 0.542903 -0.049983
C37   C     C_R   0.898212 0.422981 0.457097 -0.049983
C38   C     C_R   0.203592 0.567571 0.550266 0.064025
Cl1   Cl    Cl    0.656072 0.961595 0.507519 -0.472656
Cl2   Cl    Cl    0.343928 0.038405 0.492481 -0.472656
Cl3   Cl    Cl    0.340350 0.650389 0.047716 -0.512519
Cl4   Cl    Cl    0.659650 0.349612 0.952284 -0.512519
Cl5   Cl    Cl    0.280778 0.362877 0.366694 -0.406293
Cl6   Cl    Cl    0.719222 0.637123 0.633306 -0.406293
Cl7   Cl    Cl    0.066966 0.436251 0.322132 -0.458767
Cl8   Cl    Cl    0.933033 0.563749 0.677868 -0.458768
Cu1   Cu    Cu3+1 0.596430 0.500000 0.499990 1.080653
Cu2   Cu    Cu3+1 0.403570 0.500000 0.500010 1.080653
H1    H     H_    0.655530 0.480963 0.066882 0.205341
H2    H     H_    0.344470 0.519037 0.933118 0.205341
H3    H     H_    0.650853 0.467727 0.222571 0.175669
H4    H     H_    0.349147 0.532273 0.777429 0.175669
N1    N     N_R   0.258690 0.500000 0.500020 -0.277145
N2    N     N_R   0.741310 0.500000 0.499980 -0.277145
N3    N     N_1   0.264007 0.629328 0.271453 -0.172243
N4    N     N_1   0.735994 0.370672 0.728547 -0.172243
N5    N     N_1   0.011498 0.746253 0.580661 -0.131778
N6    N     N_1   0.988502 0.253747 0.419339 -0.131778
N7    N     N_1   0.284655 0.685321 0.657165 -0.231339
N8    N     N_1   0.715344 0.314679 0.342835 -0.231339
O1    O     O_R   0.581430 0.500010 0.371450 -0.514105
O2    O     O_R   0.418570 0.499990 0.628550 -0.514105
O3    O     O_R   0.418560 0.500010 0.371460 -0.464479
O4    O     O_R   0.581440 0.499990 0.628540 -0.464479
O5    O     O_R   0.592950 0.362150 0.500010 -0.509442
O6    O     O_R   0.407050 0.637850 0.499990 -0.509442
O7    O     O_R   0.430080 0.362150 0.500020 -0.444550
O8    O     O_R   0.569920 0.637850 0.499980 -0.444551

loop_
_geom_bond_atom_site_label_1
_geom_bond_atom_site_label_2
_ccdc_geom_bond_type
C14   C17   S    
Cu1   O1    S    
C9    O7    A    
C19   C21   A    
C10   O8    A    
C25   C27   S    
C12   O2    A    
C7    C36   A    
C12   C24   S    
C26   C33   A    
Cu2   O2    S    
Cu1   Cu2   S    
C23   Cl3   S    
C31   C38   S    
C6    Cl8   S    
C23   C34   A    
C29   C36   S    
C9    O5    A    
C36   C38   A    
C28   N4    T    
C10   O6    A    
C7    C8    S    
C19   C35   A    
C3    N1    A    
C2    C37   A    
C3    Cl5   S    
C38   N1    A    
C5    Cl7   S    
Cu1   N2    S    
C33   Cl4   S    
C1    O3    A    
C2    C32   S    
C33   C35   A    
C29   N5    T    
C20   H3    S    
C18   C20   A    
C18   C34   A    
Cu2   O7    S    
C2    N2    A    
Cu2   N1    S    
C12   O4    A    
C27   N3    T    
C13   C16   T    
C8    C37   A    
C32   N8    T    
C14   Cl2   S    
C15   C16   S    
C19   H2    S    
Cu1   O8    S    
C1    C22   S    
C23   C25   A    
C30   C37   S    
C24   C26   A    
C4    C6    A    
C34   C35   S    
C10   C11   S    
C21   C24   A    
C31   N7    T    
Cu1   O4    S    
C5    C7    A    
C9    C13   S    
C14   C15   D    
C11   C17   T    
Cu2   O3    S    
C6    C8    A    
C4    Cl6   S    
Cu2   O6    S    
C30   N6    T    
C26   C28   S    
Cu1   O5    S    
C21   H4    S    
C4    N2    A    
C15   Cl1   S    
C18   H1    S    
C20   C22   A    
C3    C5    A    
C22   C25   A    
C1    O1    A    
