data_mof_unit_30016.cif
_audit_creation_date              2012-12-10T17:32:17-0500
_audit_creation_method            fapswitch 2.2
_symmetry_space_group_name_H-M    P1
_symmetry_Int_Tables_number       1
_space_group_crystal_system       triclinic
_cell_length_a                    12.313355
_cell_length_b                    13.188049
_cell_length_c                    15.062961
_cell_angle_alpha                 77.482565
_cell_angle_beta                  101.38609
_cell_angle_gamma                 116.566648
_cell_volume                      2121.59870803

loop_
_atom_site_label
_atom_site_type_symbol
_atom_type_description
_atom_site_fract_x
_atom_site_fract_y
_atom_site_fract_z
_atom_type_partial_charge
C1    C     C_R   0.854828 0.286568 0.508528 0.804530
C2    C     C_R   0.910011 0.517931 0.075021 0.132322
C3    C     C_R   0.163118 0.429518 0.084786 0.448071
C4    C     C_R   0.161238 0.430936 0.991342 -0.270479
C5    C     C_R   0.078063 0.460768 0.926554 0.026365
C6    C     C_R   0.993376 0.488372 0.954609 0.064462
C7    C     C_R   0.908015 0.516728 0.889228 0.125263
C8    C     C_R   0.823580 0.543755 0.917371 -0.167244
C9    C     C_R   0.824713 0.544545 0.009784 -0.186593
C10   C     C_R   0.078720 0.463769 0.833665 -0.198028
C11   C     C_R   0.995462 0.493718 0.768511 -0.066211
C12   C     C_R   0.998545 0.498183 0.671316 0.833031
C13   C     C_R   0.909276 0.518677 0.796585 -0.184483
C14   C     C_R   0.275050 0.021709 0.379128 -0.153284
C15   C     C_R   0.227490 0.834645 0.468731 -0.050177
C16   C     C_R   0.814931 0.086074 0.571945 -0.166114
C17   C     C_R   0.735671 0.971763 0.592042 -0.136003
C18   C     C_R   0.612238 0.934069 0.559801 -0.169065
C19   C     C_R   0.565729 0.010145 0.503173 0.101162
C20   C     C_R   0.649517 0.123909 0.474615 0.097733
C21   C     C_R   0.439126 0.976742 0.472970 0.090150
C22   C     C_R   0.399661 0.053734 0.409486 0.153939
C23   C     C_R   0.145003 0.713409 0.486777 0.803485
C24   C     C_R   0.485099 0.160433 0.374778 -0.206286
C25   C     C_R   0.608262 0.194138 0.405336 -0.198034
C26   C     C_R   0.350145 0.868878 0.503927 -0.223911
C27   C     C_R   0.189254 0.912174 0.408119 -0.187710
C28   C     C_R   0.772764 0.163722 0.515393 -0.080397
C29   C     C_R   0.344365 0.326008 0.645471 -0.201101
C30   C     C_R   0.759166 0.645985 0.376478 0.082375
C31   C     C_R   0.662777 0.678202 0.350826 -0.229779
C32   C     C_R   0.559819 0.623150 0.397853 -0.164432
C33   C     C_R   0.551469 0.533999 0.471403 -0.016798
C34   C     C_R   0.999669 0.499040 0.328876 0.805582
C35   C     C_R   0.652990 0.504799 0.495464 0.211606
C36   C     C_R   0.447158 0.473536 0.522060 -0.086322
C37   C     C_R   0.446273 0.384651 0.595641 0.022208
C38   C     C_R   0.547250 0.356817 0.618054 0.363560
C39   C     C_R   0.647671 0.417679 0.569144 -0.269221
C40   C     C_R   0.342570 0.497379 0.502715 0.073164
C41   C     C_R   0.245619 0.354287 0.623108 0.045905
C42   C     C_R   0.912274 0.520898 0.167040 -0.224385
C43   C     C_R   0.997754 0.495165 0.232357 -0.107065
C44   C     C_R   0.080489 0.464440 0.205698 -0.147326
C45   C     C_R   0.080278 0.460363 0.113501 -0.030587
C46   C     C_R   0.994541 0.488611 0.047814 0.008986
Cu1   Cu    Cu3+1 0.098270 0.475420 0.521130 0.953079
Cu2   Cu    Cu3+1 0.901730 0.524580 0.478870 0.940474
H1    H     H_    0.847668 0.543991 0.187587 0.159798
H2    H     H_    0.456718 0.217983 0.323213 0.184529
H3    H     H_    0.244512 0.080112 0.330644 0.186045
H4    H     H_    0.373549 0.808275 0.554535 0.147694
H5    H     H_    0.909011 0.114286 0.602839 0.155029
H6    H     H_    0.769432 0.912447 0.635321 0.146360
H7    H     H_    0.670490 0.274882 0.371800 0.177043
H8    H     H_    0.167583 0.308892 0.661493 0.128005
H9    H     H_    0.339227 0.258461 0.702000 0.214619
H10   H     H_    0.144900 0.444231 0.257606 0.226186
H11   H     H_    0.335236 0.562391 0.447880 0.124405
H12   H     H_    0.838828 0.689354 0.339788 0.123441
H13   H     H_    0.488344 0.651982 0.374873 0.154127
H14   H     H_    0.667894 0.746183 0.294329 0.160495
H15   H     H_    0.721215 0.394140 0.591481 0.257269
H16   H     H_    0.224960 0.408730 0.968626 0.196165
H17   H     H_    0.144585 0.443065 0.812244 0.159576
H18   H     H_    0.757394 0.565167 0.867858 0.154169
H19   H     H_    0.094264 0.886610 0.380175 0.155023
N1    N     N_R   0.246280 0.438190 0.553160 -0.183250
N2    N     N_R   0.754320 0.561190 0.447410 -0.195898
O1    O     O_R   0.972510 0.318130 0.526570 -0.582167
O2    O     O_R   0.806530 0.359650 0.490890 -0.598036
O3    O     O_R   0.082980 0.479210 0.647590 -0.590018
O4    O     O_R   0.917000 0.520730 0.611900 -0.600318
O5    O     O_R   0.193470 0.640350 0.509110 -0.590777
O6    O     O_R   0.027490 0.681870 0.473430 -0.587211
O7    O     O_R   0.083000 0.479270 0.388100 -0.583309
O8    O     O_R   0.917020 0.520790 0.352410 -0.597669
H20   H     H_    0.556620 0.844306 0.579067 0.127703
S1    S     S_3+6 0.552923 0.245331 0.707058 -0.019292
O9    O     O_2   0.545202 0.272736 0.796789 -0.291791
O10   O     O_2   0.446577 0.134253 0.688059 -0.291318
O11   O     O_3   0.683632 0.231037 0.713958 -0.560033
H21   H     H_    0.676212 0.164955 0.762470 0.383144
S2    S     S_3+6 0.269207 0.387693 0.163024 -0.030176
O12   O     O_2   0.200825 0.285126 0.229189 -0.327146
O13   O     O_2   0.343083 0.357575 0.113520 -0.289293
O14   O     O_3   0.364132 0.496170 0.221279 -0.559383
H22   H     H_    0.415247 0.464626 0.266917 0.373781
H23   H     H_    0.843950 0.540762 0.746468 0.158192
H24   H     H_    0.759291 0.566585 0.030245 0.157867

loop_
_geom_bond_atom_site_label_1
_geom_bond_atom_site_label_2
_ccdc_geom_bond_type
C16   C28   A    
C21   C26   A    
C8    H18   S    
C19   C20   A    
C31   H14   S    
S2    O14   S    
Cu2   N2    S    
O14   H22   S    
C7    C8    A    
Cu1   O1    S    
C45   C46   A    
C2    C46   A    
C1    O2    A    
C36   C37   A    
C19   C21   A    
S2    O13   D    
Cu1   O7    S    
C34   O8    A    
C5    C6    A    
C20   C25   A    
C33   C36   A    
C18   C19   A    
C16   H5    S    
C31   C32   A    
C44   H10   S    
C8    C9    A    
C30   H12   S    
C1    C28   S    
C14   C27   A    
C13   H23   S    
C15   C23   S    
C12   O3    A    
C40   H11   S    
C21   C22   A    
Cu2   O6    S    
C38   S1    S    
C41   N1    A    
C24   H2    S    
C36   C40   A    
C24   C25   A    
S1    O10   D    
C16   C17   A    
C15   C26   A    
C20   C28   A    
C3    C45   A    
Cu2   O8    S    
C35   C39   A    
C43   C44   A    
C41   H8    S    
C37   C38   A    
C26   H4    S    
C15   C27   A    
Cu1   Cu2   S    
C30   C31   A    
C18   H20   S    
C17   C18   A    
S2    O12   D    
C29   H9    S    
C22   C24   A    
C42   C43   A    
Cu2   O2    S    
C3    C4    A    
Cu1   N1    S    
C30   N2    A    
C44   C45   A    
C10   H17   S    
C6    C46   A    
C29   C41   A    
Cu2   O4    S    
C34   C43   S    
C25   H7    S    
Cu1   O5    S    
C23   O6    A    
C4    C5    A    
C9    H24   S    
C32   H13   S    
S1    O11   S    
C11   C12   S    
C6    C7    A    
C39   H15   S    
C4    H16   S    
C1    O1    A    
C32   C33   A    
C14   C22   A    
C5    C10   A    
C11   C13   A    
C38   C39   A    
C2    C42   A    
C33   C35   A    
Cu1   O3    S    
C27   H19   S    
C10   C11   A    
C42   H1    S    
S1    O9    D    
C7    C13   A    
C35   N2    A    
C14   H3    S    
O11   H21   S    
C40   N1    A    
C29   C37   A    
C3    S2    S    
C23   O5    A    
C12   O4    A    
C2    C9    A    
C17   H6    S    
C34   O7    A    
