data_mof_unit_29987.cif
_audit_creation_date              2012-12-10T16:56:31-0500
_audit_creation_method            fapswitch 2.2
_symmetry_space_group_name_H-M    P1
_symmetry_Int_Tables_number       1
_space_group_crystal_system       triclinic
_cell_length_a                    7.788688
_cell_length_b                    8.588825
_cell_length_c                    15.696439
_cell_angle_alpha                 91.563677
_cell_angle_beta                  85.506594
_cell_angle_gamma                 93.575438
_cell_volume                      1044.49415861

loop_
_atom_site_label
_atom_site_type_symbol
_atom_type_description
_atom_site_fract_x
_atom_site_fract_y
_atom_site_fract_z
_atom_type_partial_charge
C1    C     C_R   0.545643 0.794654 0.497845 0.964116
C2    C     C_R   0.454357 0.205345 0.502155 0.964116
C3    C     C_R   0.501928 0.502612 0.661959 0.899574
C4    C     C_R   0.498072 0.497388 0.338041 0.899574
C5    C     C_2   0.569677 0.958068 0.496569 -0.354094
C6    C     C_2   0.430323 0.041932 0.503430 -0.354095
C7    C     C_3   0.518288 0.643896 0.034035 0.191078
C8    C     C_3   0.481712 0.356103 0.965965 0.191078
C9    C     C_3   0.651705 0.569703 0.969578 -0.269105
C10   C     C_3   0.348295 0.430297 0.030422 -0.269105
C11   C     C_1   0.505477 0.508968 0.750838 -0.127236
C12   C     C_1   0.494523 0.491032 0.249162 -0.127236
C13   C     C_3   0.369426 0.583718 0.980307 0.182541
C14   C     C_3   0.630574 0.416282 0.019693 0.182541
C15   C     C_3   0.502049 0.509125 0.917269 -0.019437
C16   C     C_3   0.497951 0.490875 0.082731 -0.019437
C17   C     C_1   0.505210 0.512392 0.826253 0.067345
C18   C     C_1   0.494790 0.487608 0.173747 0.067345
H1    H     H_    0.773807 0.627821 0.942119 0.216541
H2    H     H_    0.226193 0.372179 0.057881 0.216541
H3    H     H_    0.701393 0.008852 0.489998 0.184017
H4    H     H_    0.298607 0.991147 0.510002 0.184017
H5    H     H_    0.013204 0.381394 0.436020 0.198754
H6    H     H_    0.986796 0.618606 0.563980 0.198754
N1    N     N_2   0.950320 0.457950 0.477300 -0.167733
N2    N     N_2   0.049680 0.542050 0.522700 -0.167733
O1    O     O_R   0.389250 0.738570 0.505570 -0.612654
O2    O     O_R   0.610750 0.261430 0.494430 -0.612654
O3    O     O_R   0.678390 0.711630 0.491020 -0.628261
O4    O     O_R   0.321610 0.288370 0.508980 -0.628261
O5    O     O_R   0.355460 0.513480 0.630490 -0.601407
O6    O     O_R   0.644540 0.486520 0.369510 -0.601407
O7    O     O_R   0.644600 0.486540 0.615950 -0.620035
O8    O     O_R   0.355400 0.513460 0.384050 -0.620034
Zn1   Zn    Zn3+2 0.306940 0.517990 0.509710 0.974684
Zn2   Zn    Zn3+2 0.693060 0.482010 0.490290 0.974684
I1    I     I_    0.552367 0.867982 0.095106 -0.224696
I2    I     I_    0.447633 0.132018 0.904894 -0.224697
I3    I     I_    0.838030 0.285223 0.053545 -0.253990
I4    I     I_    0.161969 0.714777 0.946455 -0.253990

loop_
_geom_bond_atom_site_label_1
_geom_bond_atom_site_label_2
_ccdc_geom_bond_type
C2    O2    A    
C9    C14   S    
C4    C12   S    
C2    O4    A    
C1    O1    A    
O7    Zn2   S    
C1    O3    A    
C7    I1    S    
C10   C16   S    
C3    O5    A    
O3    Zn2   S    
C4    O6    A    
C8    I2    S    
O4    Zn1   S    
C1    C5    S    
O6    Zn2   S    
C8    C10   S    
C7    C16   S    
N1    N2    D    
H6    N2    S    
C8    C15   S    
C14   C16   S    
C13   C15   S    
C4    O8    A    
C9    C15   S    
C5    C6    D    
O5    Zn1   S    
C3    C11   S    
C3    O7    A    
N1    Zn2   S    
C6    H4    S    
C7    C9    S    
N2    Zn1   S    
C7    C13   S    
H5    N1    S    
C5    H3    S    
O2    Zn2   S    
C16   C18   S    
O8    Zn1   S    
C12   C18   T    
C15   C17   S    
C11   C17   T    
C13   I4    S    
C8    C14   S    
O1    Zn1   S    
C14   I3    S    
C9    H1    S    
C2    C6    S    
C10   H2    S    
C10   C13   S    
