data_mof_unit_44233.cif
_audit_creation_date              2012-12-10T18:28:22-0500
_audit_creation_method            fapswitch 2.2
_symmetry_space_group_name_H-M    P1
_symmetry_Int_Tables_number       1
_space_group_crystal_system       triclinic
_cell_length_a                    23.184861
_cell_length_b                    20.100548
_cell_length_c                    14.981108
_cell_angle_alpha                 89.970551
_cell_angle_beta                  98.981831
_cell_angle_gamma                 89.989747
_cell_volume                      6896.01145121

loop_
_atom_site_label
_atom_site_type_symbol
_atom_type_description
_atom_site_fract_x
_atom_site_fract_y
_atom_site_fract_z
_atom_type_partial_charge
C1    C     C_R   0.576646 0.086290 0.554409 0.881051
C2    C     C_R   0.423354 0.913710 0.445591 0.881051
C3    C     C_R   0.423287 0.086211 0.445527 0.879355
C4    C     C_R   0.576713 0.913789 0.554473 0.879352
C5    C     C_R   0.074444 0.589006 0.552792 0.880969
C6    C     C_R   0.925556 0.410994 0.447208 0.880969
C7    C     C_R   0.925616 0.589100 0.447238 0.878499
C8    C     C_R   0.074384 0.410900 0.552762 0.878500
C9    C     C_R   0.205969 0.173229 0.637158 0.435881
C10   C     C_R   0.794008 0.826752 0.362808 0.435880
C11   C     C_R   0.794482 0.173075 0.363633 0.435952
C12   C     C_R   0.205525 0.826919 0.636376 0.435953
C13   C     C_R   0.784531 0.771941 0.692112 0.432517
C14   C     C_R   0.215488 0.228093 0.307884 0.432515
C15   C     C_R   0.216506 0.770270 0.308066 0.432322
C16   C     C_R   0.783490 0.229738 0.691936 0.432322
C17   C     C_R   0.628909 0.003027 0.202858 -0.279907
C18   C     C_R   0.371090 0.996973 0.797142 -0.279901
C19   C     C_R   0.128364 0.511861 0.202810 -0.279222
C20   C     C_R   0.871636 0.488138 0.797190 -0.279222
C21   C     C_R   0.607564 0.999300 0.283954 -0.001555
C22   C     C_R   0.392436 0.000699 0.716046 -0.001550
C23   C     C_R   0.107404 0.504873 0.283894 -0.003298
C24   C     C_R   0.892596 0.495126 0.716106 -0.003294
C25   C     C_R   0.509793 0.001142 0.208071 0.023477
C26   C     C_R   0.490207 0.998860 0.791929 0.023477
C27   C     C_R   0.009856 0.497924 0.207981 0.020369
C28   C     C_R   0.990144 0.502076 0.792019 0.020367
C29   C     C_R   0.528528 0.998205 0.123554 0.013518
C30   C     C_R   0.471472 0.001796 0.876446 0.013519
C31   C     C_R   0.028735 0.498301 0.123455 0.014448
C32   C     C_R   0.971265 0.501699 0.876544 0.014448
C33   C     C_R   0.589271 0.004524 0.122308 0.117472
C34   C     C_R   0.410728 0.995478 0.877692 0.117468
C35   C     C_R   0.088717 0.510955 0.122288 0.109699
C36   C     C_R   0.911283 0.489045 0.877712 0.109699
C37   C     C_R   0.489192 0.993386 0.041250 -0.047467
C38   C     C_R   0.510808 0.006616 0.958750 -0.047466
C39   C     C_R   0.989844 0.491251 0.041086 -0.047140
C40   C     C_R   0.010155 0.508749 0.958914 -0.047139
C41   C     C_R   0.570542 0.025086 0.961616 0.432210
C42   C     C_R   0.429457 0.974916 0.038384 0.432214
C43   C     C_R   0.068118 0.533549 0.962149 0.434103
C44   C     C_R   0.931882 0.466451 0.037851 0.434102
C45   C     C_R   0.609588 0.017718 0.041930 -0.304223
C46   C     C_R   0.390412 0.982284 0.958070 -0.304221
C47   C     C_R   0.107769 0.528285 0.042193 -0.305766
C48   C     C_R   0.892231 0.471715 0.957807 -0.305769
C49   C     C_R   0.627717 0.874031 0.592122 -0.105136
C50   C     C_R   0.372286 0.125972 0.407878 -0.105135
C51   C     C_R   0.372596 0.873562 0.408111 -0.111326
C52   C     C_R   0.627404 0.126438 0.591889 -0.111326
C53   C     C_R   0.109711 0.351552 0.579087 -0.105527
C54   C     C_R   0.890286 0.648445 0.420909 -0.105525
C55   C     C_R   0.890104 0.351814 0.420841 -0.109510
C56   C     C_R   0.109896 0.648185 0.579161 -0.109511
C57   C     C_R   0.690937 0.824488 0.720119 0.189728
C58   C     C_R   0.309082 0.175542 0.279885 0.189730
C59   C     C_R   0.310572 0.821894 0.280699 0.187456
C60   C     C_R   0.689423 0.178113 0.719301 0.187456
C61   C     C_R   0.141798 0.262300 0.685445 0.186539
C62   C     C_R   0.858180 0.737679 0.314530 0.186538
C63   C     C_R   0.858099 0.262495 0.314743 0.181181
C64   C     C_R   0.141906 0.737499 0.685263 0.181180
C65   C     C_R   0.639297 0.857685 0.683790 -0.211363
C66   C     C_R   0.360716 0.142336 0.316215 -0.211364
C67   C     C_R   0.361859 0.855723 0.316952 -0.207538
C68   C     C_R   0.638138 0.144281 0.683047 -0.207538
C69   C     C_R   0.111026 0.321732 0.663592 -0.213186
C70   C     C_R   0.888958 0.678252 0.336393 -0.213187
C71   C     C_R   0.888816 0.321955 0.336411 -0.208835
C72   C     C_R   0.111188 0.678041 0.663592 -0.208838
C73   C     C_R   0.668247 0.858720 0.536506 -0.236107
C74   C     C_R   0.331748 0.141272 0.463485 -0.236109
C75   C     C_R   0.331648 0.858955 0.463314 -0.235555
C76   C     C_R   0.668354 0.141042 0.536688 -0.235552
C77   C     C_R   0.137977 0.321370 0.514952 -0.232282
C78   C     C_R   0.862030 0.678638 0.485048 -0.232284
C79   C     C_R   0.861667 0.321831 0.484920 -0.233666
C80   C     C_R   0.138331 0.678170 0.515080 -0.233667
C81   C     C_R   0.721701 0.829420 0.570334 0.006682
C82   C     C_R   0.278300 0.170584 0.429655 0.006682
C83   C     C_R   0.278529 0.828955 0.429479 0.006753
C84   C     C_R   0.721471 0.171045 0.570525 0.006754
C85   C     C_R   0.166555 0.260506 0.531575 0.007273
C86   C     C_R   0.833443 0.739496 0.468412 0.007274
C87   C     C_R   0.833258 0.260887 0.468591 0.008068
C88   C     C_R   0.166743 0.739113 0.531413 0.008068
C89   C     C_R   0.732773 0.808533 0.662513 0.089968
C90   C     C_R   0.267240 0.191489 0.337483 0.089972
C91   C     C_R   0.268153 0.806977 0.337750 0.091860
C92   C     C_R   0.731844 0.193028 0.662252 0.091858
C93   C     C_R   0.171278 0.231265 0.619335 0.089918
C94   C     C_R   0.828707 0.768722 0.380641 0.089917
C95   C     C_R   0.828778 0.231405 0.381049 0.091094
C96   C     C_R   0.171227 0.768591 0.618958 0.091096
C97   C     C_R   0.762090 0.816007 0.511037 0.037206
C98   C     C_R   0.237905 0.183992 0.488944 0.037207
C99   C     C_R   0.237879 0.815796 0.488491 0.037254
C100  C     C_R   0.762124 0.184203 0.511514 0.037254
C101  C     C_R   0.194559 0.231513 0.463725 0.034525
C102  C     C_R   0.805444 0.768496 0.536262 0.034526
C103  C     C_R   0.805177 0.232061 0.536496 0.035324
C104  C     C_R   0.194823 0.767941 0.463508 0.035324
C105  C     C_R   0.240004 0.151744 0.573007 -0.325171
C106  C     C_R   0.759978 0.848241 0.426963 -0.325174
C107  C     C_R   0.760490 0.151547 0.427850 -0.326418
C108  C     C_R   0.239516 0.848448 0.572159 -0.326420
C109  C     C_R   0.818991 0.750805 0.628277 -0.326850
C110  C     C_R   0.181023 0.249222 0.371715 -0.326853
C111  C     C_R   0.181674 0.749701 0.371675 -0.329688
C112  C     C_R   0.818323 0.250305 0.628328 -0.329689
H1    H     H_    0.343281 0.131650 0.534929 0.171164
H2    H     H_    0.656704 0.868325 0.465059 0.171165
H3    H     H_    0.657343 0.130385 0.465480 0.170702
H4    H     H_    0.342662 0.869607 0.534523 0.170703
H5    H     H_    0.861014 0.652648 0.547815 0.170723
H6    H     H_    0.139006 0.347371 0.452198 0.170721
H7    H     H_    0.139558 0.651975 0.452566 0.168709
H8    H     H_    0.860437 0.348030 0.547432 0.168707
H9    H     H_    0.392129 0.129081 0.272708 0.163967
H10   H     H_    0.607891 0.870949 0.727304 0.163966
H11   H     H_    0.606267 0.131861 0.726147 0.198711
H12   H     H_    0.393729 0.868145 0.273851 0.198712
H13   H     H_    0.911903 0.654872 0.287004 0.164681
H14   H     H_    0.088074 0.345105 0.712978 0.164682
H15   H     H_    0.088249 0.654693 0.713040 0.192977
H16   H     H_    0.911757 0.345301 0.286964 0.192976
H17   H     H_    0.266805 0.108000 0.588715 0.137656
H18   H     H_    0.733171 0.891980 0.411247 0.137658
H19   H     H_    0.734064 0.107512 0.412459 0.137539
H20   H     H_    0.265943 0.892482 0.587551 0.137537
H21   H     H_    0.857744 0.722136 0.652329 0.149852
H22   H     H_    0.142275 0.277899 0.347664 0.149855
H23   H     H_    0.143001 0.720947 0.347575 0.147682
H24   H     H_    0.856995 0.279061 0.652427 0.147681
H25   H     H_    0.655654 0.027772 0.042947 0.149730
H26   H     H_    0.344345 0.972230 0.957053 0.149730
H27   H     H_    0.152842 0.543210 0.043393 0.146281
H28   H     H_    0.847158 0.456789 0.956607 0.146282
H29   H     H_    0.535132 0.992183 0.783790 0.186679
H30   H     H_    0.464867 0.007819 0.216211 0.186682
H31   H     H_    0.035454 0.499832 0.784112 0.188380
H32   H     H_    0.964546 0.500169 0.215888 0.188377
H33   H     H_    0.362654 0.001468 0.652783 0.125711
H34   H     H_    0.637346 0.998530 0.347217 0.125714
H35   H     H_    0.862871 0.493392 0.652854 0.139303
H36   H     H_    0.137129 0.506607 0.347145 0.139302
H37   H     H_    0.675602 0.006456 0.203172 0.143508
H38   H     H_    0.324398 0.993544 0.796827 0.143508
H39   H     H_    0.174595 0.520125 0.203171 0.152984
H40   H     H_    0.825405 0.479874 0.796829 0.152983
N1    N     N_R   0.549130 1.000000 0.284090 -0.117417
N2    N     N_R   0.450870 1.000000 0.715910 -0.117417
N3    N     N_R   0.049130 0.500000 0.284090 -0.121625
N4    N     N_R   0.950870 0.500000 0.715910 -0.121626
O1    O     O_R   0.541320 0.066090 0.608930 -0.602921
O2    O     O_R   0.458680 0.933910 0.391070 -0.602921
O3    O     O_R   0.458680 0.066090 0.391070 -0.618978
O4    O     O_R   0.541320 0.933910 0.608930 -0.618976
O5    O     O_R   0.041320 0.566090 0.608930 -0.604402
O6    O     O_R   0.958680 0.433910 0.391070 -0.604401
O7    O     O_R   0.958680 0.566090 0.391070 -0.618185
O8    O     O_R   0.041320 0.433910 0.608930 -0.618185
O9    O     O_R   0.572880 0.066110 0.470280 -0.620280
O10   O     O_R   0.427120 0.933890 0.529720 -0.620282
O11   O     O_R   0.427120 0.066110 0.529720 -0.617129
O12   O     O_R   0.572880 0.933890 0.470280 -0.617130
O13   O     O_R   0.072880 0.566110 0.470280 -0.622480
O14   O     O_R   0.927120 0.433890 0.529720 -0.622482
O15   O     O_R   0.927120 0.566110 0.529720 -0.616855
O16   O     O_R   0.072880 0.433890 0.470280 -0.616855
Zn1   Zn    Zn3+2 0.478910 0.000000 0.592580 0.946556
Zn2   Zn    Zn3+2 0.521090 1.000000 0.407420 0.946555
Zn3   Zn    Zn3+2 0.978910 0.500000 0.592580 0.942007
Zn4   Zn    Zn3+2 0.021090 0.500000 0.407420 0.942008
O17   O     O_3   0.208135 0.139128 0.717730 -0.784843
H41   H     H_    0.234616 0.100286 0.718769 0.332710
O18   O     O_3   0.791830 0.860840 0.282224 -0.784843
H42   H     H_    0.765344 0.899678 0.281179 0.332711
O19   O     O_3   0.792720 0.138662 0.283423 -0.786132
H43   H     H_    0.766446 0.099663 0.282593 0.330887
O20   O     O_3   0.207290 0.861329 0.716589 -0.786132
H44   H     H_    0.233565 0.900326 0.717421 0.330885
O21   O     O_3   0.800220 0.755002 0.782027 -0.785490
H45   H     H_    0.837198 0.729326 0.790358 0.339884
O22   O     O_3   0.199811 0.245050 0.217974 -0.785492
H46   H     H_    0.162837 0.270732 0.209642 0.339884
O23   O     O_3   0.201208 0.752822 0.218286 -0.787426
H47   H     H_    0.164316 0.727004 0.209909 0.337536
O24   O     O_3   0.798785 0.247191 0.781715 -0.787427
H48   H     H_    0.835675 0.273010 0.790092 0.337534
O25   O     O_3   0.589378 0.055215 0.888331 -0.815221
H49   H     H_    0.631805 0.064736 0.902273 0.332865
O26   O     O_3   0.410621 0.944788 0.111669 -0.815221
H50   H     H_    0.368194 0.935268 0.097727 0.332864
O27   O     O_3   0.084204 0.567514 0.889584 -0.811379
H51   H     H_    0.125387 0.582380 0.904257 0.333798
O28   O     O_3   0.915796 0.432486 0.110416 -0.811377
H52   H     H_    0.874613 0.417621 0.095743 0.333798
C113  C     C_3   0.698778 0.807147 0.819402 -0.772721
H53   H     H_    0.661326 0.824004 0.851717 0.203010
H54   H     H_    0.701961 0.752376 0.828364 0.266591
H55   H     H_    0.738346 0.832013 0.855738 0.272948
C114  C     C_3   0.301254 0.192903 0.180609 -0.772730
H56   H     H_    0.338709 0.176048 0.148300 0.203008
H57   H     H_    0.261687 0.168047 0.144255 0.272948
H58   H     H_    0.298079 0.247675 0.171666 0.266591
C115  C     C_3   0.303896 0.802371 0.182263 -0.781602
H59   H     H_    0.342101 0.817659 0.150676 0.215698
H60   H     H_    0.300311 0.747478 0.175483 0.266543
H61   H     H_    0.264954 0.827084 0.143716 0.270642
C116  C     C_3   0.696096 0.197640 0.817735 -0.781602
H62   H     H_    0.657891 0.182351 0.849321 0.215700
H63   H     H_    0.735038 0.172930 0.856286 0.270641
H64   H     H_    0.699680 0.252533 0.824511 0.266543
C117  C     C_3   0.142331 0.235097 0.779589 -0.764594
H65   H     H_    0.117119 0.266881 0.820346 0.203471
H66   H     H_    0.121950 0.185009 0.776081 0.273241
H67   H     H_    0.187792 0.232986 0.816140 0.267803
C118  C     C_3   0.857633 0.764867 0.220375 -0.764594
H68   H     H_    0.882842 0.733078 0.179620 0.203471
H69   H     H_    0.812169 0.766968 0.183835 0.267802
H70   H     H_    0.878009 0.814957 0.223860 0.273243
C119  C     C_3   0.857399 0.235375 0.220554 -0.762863
H71   H     H_    0.882192 0.267437 0.179474 0.215206
H72   H     H_    0.878119 0.185462 0.223938 0.273448
H73   H     H_    0.811855 0.232904 0.184396 0.264833
C120  C     C_3   0.142610 0.764615 0.779455 -0.762867
H74   H     H_    0.117818 0.732552 0.820534 0.215207
H75   H     H_    0.188155 0.767083 0.815610 0.264834
H76   H     H_    0.121892 0.814528 0.776077 0.273448

loop_
_geom_bond_atom_site_label_1
_geom_bond_atom_site_label_2
_ccdc_geom_bond_type
N3    Zn4   S    
C3    O3    A    
C88   C96   A    
N4    Zn3   S    
C7    O15   A    
C33   C45   A    
C113  H53   S    
C5    C56   S    
C53   C77   A    
C25   H30   S    
C11   O19   S    
C6    C55   S    
O20   H44   S    
C30   C34   A    
C53   C69   A    
C67   H12   S    
C76   C84   A    
C79   C87   A    
C3    O11   A    
C63   C119  S    
C116  H62   S    
C117  H67   S    
O12   Zn2   S    
C99   C108  A    
C62   C70   A    
C37   C38   A    
C98   C105  A    
C57   C89   A    
C10   O18   S    
C32   C36   A    
C51   C75   A    
C120  H76   S    
C23   N3    A    
C50   C74   A    
C42   C46   A    
C64   C120  S    
O5    Zn3   S    
C61   C93   A    
C116  H64   S    
C12   O20   S    
O6    Zn4   S    
C10   C94   A    
C9    C105  A    
C63   C95   A    
C115  H61   S    
C30   C38   A    
O8    Zn3   S    
C22   N2    A    
O4    Zn1   S    
C62   C118  S    
C37   C42   A    
C14   C90   A    
C41   O25   S    
C86   C94   A    
C59   C67   A    
C85   C93   A    
O2    Zn2   S    
C40   C43   A    
C6    O6    A    
C29   C33   A    
C4    O12   A    
C56   C72   A    
O3    Zn2   S    
C87   C95   A    
C19   H39   S    
C34   C46   A    
C26   H29   S    
C2    O10   A    
C97   C102  A    
C52   C68   A    
O11   Zn1   S    
C81   C89   A    
C78   C86   A    
C114  H57   S    
C99   C104  A    
C15   O23   S    
C80   H7    S    
C8    O16   A    
O28   H52   S    
C59   C91   A    
C83   C99   A    
C61   C117  S    
C27   N3    A    
C113  H54   S    
O23   H47   S    
C17   C33   A    
C76   H3    S    
C112  H24   S    
O7    Zn4   S    
C5    O13   A    
C68   H11   S    
C73   C81   A    
C88   C104  A    
C3    C50   S    
C58   C66   A    
C115  H59   S    
O14   Zn3   S    
C116  H63   S    
C25   C29   A    
C119  H72   S    
C13   O21   S    
C82   C98   A    
C72   H15   S    
C27   C31   A    
O24   H48   S    
C84   C100  A    
C20   C24   A    
C28   C32   A    
C78   H5    S    
O10   Zn1   S    
C64   C96   A    
C38   C41   A    
C107  H19   S    
C77   H6    S    
C8    O8    A    
C39   C40   A    
C12   C108  A    
C48   H28   S    
C105  H17   S    
C58   C114  S    
O9    Zn2   S    
O19   H43   S    
C74   H1    S    
C7    O7    A    
N1    Zn2   S    
C100  C103  A    
C17   C21   A    
C73   H2    S    
C20   H40   S    
C103  C112  A    
C5    O5    A    
C19   C23   A    
C60   C116  S    
C120  H74   S    
C16   O24   S    
C15   C111  A    
C106  H18   S    
C81   C97   A    
C118  H68   S    
C55   C79   A    
O27   H51   S    
C54   C70   A    
C22   H33   S    
C1    O9    A    
C2    O2    A    
C79   H8    S    
C45   H25   S    
C27   H32   S    
C66   H9    S    
C43   O27   S    
C28   H31   S    
C51   C67   A    
C65   H10   S    
C18   C34   A    
O18   H42   S    
C49   C65   A    
C58   C90   A    
C24   N4    A    
C87   C103  A    
C97   C106  A    
C70   H13   S    
C63   C71   A    
C69   H14   S    
C26   C30   A    
C62   C94   A    
C11   C107  A    
C29   C37   A    
C113  H55   S    
C49   C73   A    
C71   H16   S    
C26   N2    A    
C117  H66   S    
C57   C113  S    
C119  H73   S    
C86   C102  A    
C9    C93   A    
C32   C40   A    
C85   C101  A    
C16   C112  A    
C6    O14   A    
C114  H58   S    
C11   C95   A    
C14   C110  A    
C114  H56   S    
C100  C107  A    
C21   N1    A    
N2    Zn1   S    
C13   C89   A    
C18   C22   A    
C17   H37   S    
C101  C110  A    
C57   C65   A    
C52   C76   A    
C24   H35   S    
C82   C90   A    
C8    C53   S    
C104  C111  A    
C50   C66   A    
C16   C92   A    
C39   C44   A    
C13   C109  A    
C118  H70   S    
C98   C101  A    
C83   C91   A    
C23   H36   S    
C59   C115  S    
C56   C80   A    
C46   H26   S    
C4    C49   S    
C118  H69   S    
C61   C69   A    
C21   H34   S    
C1    O1    A    
C117  H65   S    
O22   H46   S    
C80   C88   A    
C25   N1    A    
C19   C35   A    
C14   O22   S    
C75   C83   A    
O21   H45   S    
C4    O4    A    
O15   Zn3   S    
C77   C85   A    
C115  H60   S    
O13   Zn4   S    
C31   C39   A    
C36   C48   A    
C31   C35   A    
C64   C72   A    
C109  H21   S    
C42   O26   S    
C111  H23   S    
C1    C52   S    
C55   C71   A    
C108  H20   S    
C110  H22   S    
C2    C51   S    
O17   H41   S    
C15   C91   A    
O26   H50   S    
C20   C36   A    
C44   C48   A    
C60   C68   A    
C44   O28   S    
C120  H75   S    
O25   H49   S    
C47   H27   S    
C28   N4    A    
C10   C106  A    
C41   C45   A    
C12   C96   A    
C102  C109  A    
C75   H4    S    
C84   C92   A    
C7    C54   S    
C54   C78   A    
C35   C47   A    
C18   H38   S    
C60   C92   A    
C43   C47   A    
C74   C82   A    
O16   Zn4   S    
C9    O17   S    
O1    Zn1   S    
C119  H71   S    
