data_mof_unit_52850.cif
_audit_creation_date              2012-12-10T17:36:21-0500
_audit_creation_method            fapswitch 2.2
_symmetry_space_group_name_H-M    P1
_symmetry_Int_Tables_number       1
_space_group_crystal_system       triclinic
_cell_length_a                    12.329118
_cell_length_b                    13.18006
_cell_length_c                    15.863421
_cell_angle_alpha                 77.929237
_cell_angle_beta                  101.09185
_cell_angle_gamma                 116.566959
_cell_volume                      2240.17652686

loop_
_atom_site_label
_atom_site_type_symbol
_atom_type_description
_atom_site_fract_x
_atom_site_fract_y
_atom_site_fract_z
_atom_type_partial_charge
C1    C     C_R   0.854857 0.286590 0.507409 0.769092
C2    C     C_3   0.059338 0.422438 0.070825 -0.375998
C3    C     C_3   0.000093 0.499519 0.082895 0.332577
C4    C     C_3   0.072777 0.622728 0.038339 -0.379611
C5    C     C_3   0.072086 0.622749 0.940549 -0.376106
C6    C     C_1   0.000687 0.499569 0.175194 -0.118942
C7    C     C_1   0.998497 0.499609 0.824817 -0.118064
C8    C     C_1   0.998663 0.499697 0.749205 -0.182398
C9    C     C_R   0.275433 0.021213 0.385381 -0.195035
C10   C     C_R   0.228005 0.834449 0.469823 -0.046911
C11   C     C_R   0.815286 0.085375 0.563696 -0.192417
C12   C     C_R   0.999502 0.499764 0.659579 0.824516
C13   C     C_R   0.736506 0.970574 0.580734 -0.149387
C14   C     C_R   0.613186 0.932826 0.550594 -0.184520
C15   C     C_R   0.566394 0.009421 0.499318 0.078206
C16   C     C_R   0.649828 0.123731 0.473614 0.082513
C17   C     C_R   0.439783 0.976048 0.471839 0.072038
C18   C     C_R   0.400067 0.053157 0.412987 0.168302
C19   C     C_R   0.485253 0.160152 0.380583 -0.244456
C20   C     C_R   0.608330 0.194292 0.409260 -0.201749
C21   C     C_R   0.351013 0.868428 0.501594 -0.255465
C22   C     C_R   0.189712 0.911928 0.413213 -0.198978
C23   C     C_R   0.145076 0.713367 0.487483 0.793582
C24   C     C_R   0.772892 0.163586 0.512232 -0.101144
C25   C     C_R   0.345367 0.327490 0.636730 -0.304414
C26   C     C_R   0.760308 0.646009 0.384108 0.077618
C27   C     C_R   0.664273 0.678122 0.358917 -0.260596
C28   C     C_R   0.560489 0.623030 0.402481 -0.192718
C29   C     C_R   0.551623 0.534694 0.472360 -0.006611
C30   C     C_R   0.652817 0.505107 0.496099 0.287097
C31   C     C_R   0.446937 0.475042 0.519696 -0.038590
C32   C     C_R   0.445910 0.387453 0.589265 0.177270
C33   C     C_R   0.545388 0.360386 0.611511 -0.283315
C34   C     C_R   0.000385 0.500092 0.340423 0.820768
C35   C     C_R   0.646628 0.418247 0.566341 -0.177528
C36   C     C_R   0.342406 0.498082 0.501489 0.020384
C37   C     C_R   0.245880 0.354421 0.615601 0.072747
C38   C     C_3   0.058653 0.422451 0.973031 -0.379296
C39   C     C_3   0.866773 0.453425 0.939732 -0.377602
C40   C     C_3   0.867452 0.453403 0.037536 -0.377369
C41   C     C_1   0.000843 0.499750 0.250808 -0.182831
C42   C     C_3   0.998944 0.499551 0.917111 0.332438
Cu1   Cu    Cu3+1 0.098280 0.475420 0.519630 0.932551
Cu2   Cu    Cu3+1 0.901720 0.524580 0.480370 0.920717
H1    H     H_    0.008588 0.333217 0.102215 0.159874
H2    H     H_    0.153949 0.453927 0.958055 0.161167
H3    H     H_    0.154955 0.453927 0.102762 0.161261
H4    H     H_    0.031862 0.679906 0.046003 0.159122
H5    H     H_    0.094602 0.886595 0.387793 0.146145
H6    H     H_    0.456680 0.217870 0.332670 0.143567
H7    H     H_    0.244704 0.079672 0.340317 0.131223
H8    H     H_    0.374935 0.808150 0.549049 0.147726
H9    H     H_    0.909247 0.113387 0.592715 0.150223
H10   H     H_    0.557764 0.842645 0.566995 0.129456
H11   H     H_    0.770548 0.910852 0.619912 0.140576
H12   H     H_    0.007581 0.333230 0.957504 0.158457
H13   H     H_    0.670286 0.275592 0.378239 0.175750
H14   H     H_    0.167855 0.308477 0.651922 0.119594
H15   H     H_    0.545396 0.293858 0.664938 0.148956
H16   H     H_    0.343865 0.260341 0.689933 0.132863
H17   H     H_    0.335114 0.562993 0.449810 0.123902
H18   H     H_    0.840557 0.689292 0.349966 0.122559
H19   H     H_    0.488988 0.651413 0.380216 0.134810
H20   H     H_    0.670297 0.745948 0.305443 0.140334
H21   H     H_    0.718386 0.392027 0.589398 0.206115
H22   H     H_    0.821831 0.507555 0.900448 0.162622
H23   H     H_    0.812249 0.364772 0.923585 0.158534
H24   H     H_    0.813238 0.364735 0.068316 0.159935
H25   H     H_    0.167623 0.657865 0.924977 0.160365
H26   H     H_    0.030826 0.679924 0.901296 0.160399
H27   H     H_    0.168640 0.657816 0.069683 0.160112
N1    N     N_R   0.246300 0.438200 0.549400 -0.179255
N2    N     N_R   0.754300 0.561180 0.451130 -0.205993
O1    O     O_R   0.972520 0.318130 0.524690 -0.580478
O2    O     O_R   0.806530 0.359650 0.491530 -0.604309
O3    O     O_R   0.083030 0.479240 0.637150 -0.576256
O4    O     O_R   0.917040 0.520750 0.603990 -0.591684
O5    O     O_R   0.193470 0.640350 0.508470 -0.587469
O6    O     O_R   0.027480 0.681870 0.475310 -0.586904
O7    O     O_R   0.082960 0.479250 0.396010 -0.575538
O8    O     O_R   0.916970 0.520760 0.362850 -0.588577
H28   H     H_    0.822816 0.507516 0.045177 0.160445

loop_
_geom_bond_atom_site_label_1
_geom_bond_atom_site_label_2
_ccdc_geom_bond_type
C5    C42   S    
Cu1   N1    S    
C19   C20   A    
C9    H7    S    
C3    C6    S    
C7    C8    T    
C10   C22   A    
Cu1   O5    S    
C26   C27   A    
C5    H26   S    
C30   C35   A    
C1    O1    A    
Cu2   O4    S    
C38   C42   S    
C9    C22   A    
C35   H21   S    
C15   C16   A    
C11   C24   A    
C26   N2    A    
C18   C19   A    
C7    C42   S    
C5    H25   S    
C34   O7    A    
C6    C41   T    
C34   O8    A    
C37   H14   S    
C11   H9    S    
C8    C12   S    
C25   C37   A    
Cu1   O1    S    
C33   H15   S    
C13   C14   A    
C34   C41   S    
C39   C42   S    
C10   C21   A    
C1    O2    A    
C40   H28   S    
Cu2   O8    S    
C27   H20   S    
C39   C40   S    
C30   N2    A    
Cu1   O7    S    
C17   C21   A    
Cu2   O2    S    
Cu1   Cu2   S    
C29   C30   A    
C2    C38   S    
C31   C32   A    
C16   C20   A    
C12   O4    A    
C17   C18   A    
C22   H5    S    
C25   H16   S    
C3    C40   S    
C12   O3    A    
C2    H3    S    
C39   H22   S    
C3    C4    S    
C4    H4    S    
Cu1   O3    S    
C15   C17   A    
C28   C29   A    
C14   H10   S    
C31   C36   A    
C39   H23   S    
Cu2   O6    S    
C4    C5    S    
C10   C23   S    
C32   C33   A    
C2    C3    S    
C26   H18   S    
C29   C31   A    
C11   C13   A    
C19   H6    S    
C25   C32   A    
C33   C35   A    
C4    H27   S    
C23   O5    A    
Cu2   N2    S    
C38   H2    S    
C2    H1    S    
C28   H19   S    
C36   N1    A    
C9    C18   A    
C38   H12   S    
C1    C24   S    
C16   C24   A    
C40   H24   S    
C37   N1    A    
C27   C28   A    
C14   C15   A    
C23   O6    A    
C20   H13   S    
C21   H8    S    
C36   H17   S    
C13   H11   S    
