data_mof_unit_65757.cif
_audit_creation_date              2012-10-26T20:53:44-0400
_audit_creation_method            fapswitch 2.2
_symmetry_space_group_name_H-M    P1
_symmetry_Int_Tables_number       1
_space_group_crystal_system       triclinic
_cell_length_a                    12.954669
_cell_length_b                    17.695326
_cell_length_c                    16.537477
_cell_angle_alpha                 89.560598
_cell_angle_beta                  95.533997
_cell_angle_gamma                 92.073378
_cell_volume                      3770.83018324

loop_
_atom_site_label
_atom_site_type_symbol
_atom_type_description
_atom_site_fract_x
_atom_site_fract_y
_atom_site_fract_z
_atom_type_partial_charge
Br1   Br    Br    0.339683 0.380724 0.684739 -0.516591
Br2   Br    Br    0.660265 0.619317 0.315278 -0.516489
Br3   Br    Br    0.784299 0.370340 0.642848 -0.442586
Br4   Br    Br    0.215706 0.629680 0.357165 -0.442418
Br5   Br    Br    0.328644 0.896778 0.604682 -0.383269
Br6   Br    Br    0.670938 0.103195 0.394947 -0.383304
Br7   Br    Br    0.321756 0.707584 0.600485 -0.368801
Br8   Br    Br    0.677890 0.292380 0.399148 -0.368856
C1    C     C_R   0.502362 0.355591 0.500338 0.582142
C2    C     C_R   0.505674 0.114861 0.499965 0.011221
C3    C     C_1   0.498247 0.966075 0.500026 0.071890
C4    C     C_1   0.501784 0.033916 0.499993 0.071891
C5    C     C_R   0.565688 0.551024 0.833563 -0.120470
C6    C     C_R   0.434381 0.448963 0.166426 -0.120468
C7    C     C_R   0.565696 0.549140 0.747530 0.277686
C8    C     C_R   0.434353 0.450835 0.252457 0.277722
C9    C     C_R   0.435284 0.451533 0.740652 0.299347
C10   C     C_R   0.564690 0.548495 0.259356 0.299382
C11   C     C_R   0.435559 0.451524 0.825925 -0.096071
C12   C     C_R   0.497654 0.644408 0.499663 0.582137
C13   C     C_R   0.564425 0.548518 0.174083 -0.096059
C14   C     C_R   0.500875 0.501315 0.873675 -0.023381
C15   C     C_R   0.499155 0.498706 0.126324 -0.023365
C16   C     C_R   0.300701 0.502527 0.485213 0.579715
C17   C     C_R   0.699299 0.497477 0.514787 0.579666
C18   C     C_1   0.500573 0.500679 0.962921 0.011634
C19   C     C_1   0.499469 0.499349 0.037078 0.011642
C20   C     C_R   0.811090 0.490580 0.522759 0.020378
C21   C     C_R   0.188911 0.509430 0.477242 0.020367
C22   C     C_R   0.033191 0.570328 0.421770 -0.069677
C23   C     C_R   0.493389 0.727024 0.499389 0.001790
C24   C     C_R   0.966811 0.429687 0.578235 -0.069725
C25   C     C_R   0.139994 0.562447 0.423717 0.150320
C26   C     C_R   0.860009 0.437568 0.576289 0.150304
C27   C     C_R   0.130992 0.465309 0.528159 -0.134591
C28   C     C_R   0.869008 0.534702 0.471842 -0.134633
C29   C     C_R   0.024622 0.473567 0.526817 0.010879
C30   C     C_R   0.975379 0.526447 0.473185 0.010879
C31   C     C_R   0.423632 0.844003 0.544282 0.203522
C32   C     C_R   0.576213 0.155982 0.455568 0.203537
C33   C     C_R   0.422795 0.764423 0.543919 0.184073
C34   C     C_R   0.506643 0.272970 0.500612 0.001772
C35   C     C_R   0.577057 0.235562 0.455927 0.184042
C36   C     C_3   0.742062 0.589770 0.728701 -0.277468
C37   C     C_3   0.258041 0.410165 0.271372 -0.277469
C38   C     C_R   0.562086 0.769138 0.454883 -0.146466
C39   C     C_R   0.438147 0.230859 0.545285 -0.146460
C40   C     C_R   0.562689 0.847656 0.455312 -0.129331
C41   C     C_R   0.437545 0.152340 0.544863 -0.129376
C42   C     C_R   0.494361 0.885129 0.500048 0.011202
Cu1   Cu    Cu3+1 0.500000 0.499980 0.580420 1.101117
Cu2   Cu    Cu3+1 0.500000 0.500020 0.419580 1.101192
H1    H     H_    0.831096 0.575510 0.431077 0.166182
H2    H     H_    0.383145 0.120714 0.579133 0.171832
H3    H     H_    0.616508 0.591071 0.868761 0.121500
H4    H     H_    0.383608 0.408892 0.131221 0.121478
H5    H     H_    0.613089 0.655940 0.715294 0.252771
H6    H     H_    0.786645 0.624547 0.687013 0.157592
H7    H     H_    0.760710 0.529599 0.721399 0.201981
H8    H     H_    0.766460 0.607658 0.792099 0.132482
H9    H     H_    0.386993 0.343976 0.284496 0.252776
H10   H     H_    0.213486 0.375120 0.312860 0.157487
H11   H     H_    0.233615 0.392623 0.207860 0.132508
H12   H     H_    0.168901 0.424497 0.568920 0.166211
H13   H     H_    0.239377 0.470279 0.279071 0.202105
H14   H     H_    0.384046 0.412479 0.854837 0.152157
H15   H     H_    0.615916 0.587585 0.145179 0.152162
H16   H     H_    0.995727 0.611512 0.381062 0.164635
H17   H     H_    0.004276 0.388505 0.618943 0.164638
H18   H     H_    0.617165 0.741311 0.421231 0.184264
H19   H     H_    0.383221 0.258686 0.579072 0.184404
H20   H     H_    0.617242 0.879287 0.421174 0.171850
N1    N     N_R   0.499970 0.499970 0.701220 -0.181726
N2    N     N_R   0.500030 0.500030 0.298780 -0.181707
N3    N     N_2   0.632224 0.600383 0.708902 -0.462266
N4    N     N_2   0.367894 0.399526 0.291065 -0.462202
O1    O     O_R   0.499990 0.391240 0.567930 -0.455518
O2    O     O_R   0.500010 0.608760 0.432070 -0.455415
O3    O     O_R   0.500000 0.391270 0.432120 -0.469541
O4    O     O_R   0.500000 0.608730 0.567880 -0.469759
O5    O     O_R   0.348990 0.499980 0.556880 -0.463670
O6    O     O_R   0.651010 0.500020 0.443120 -0.463734
O7    O     O_R   0.349000 0.500000 0.421060 -0.469903
O8    O     O_R   0.651000 0.500000 0.578940 -0.469699

loop_
_geom_bond_atom_site_label_1
_geom_bond_atom_site_label_2
_ccdc_geom_bond_type
C6    H4    S    
Br2   C10   S    
C10   C13   A    
C7    N3    S    
Br8   C35   S    
C31   C33   A    
C17   C20   S    
C18   C19   T    
C37   N4    S    
C8    N2    A    
C27   C29   A    
C16   O7    A    
Cu2   N2    S    
C36   H7    S    
C41   H2    S    
C21   C25   A    
C37   H10   S    
C22   C30   A    
C11   H14   S    
C2    C32   A    
C1    O3    A    
C16   C21   S    
C28   H1    S    
Cu1   O4    S    
C32   C35   A    
C36   H6    S    
C23   C38   A    
C17   O8    A    
C27   H12   S    
C15   C19   S    
Cu2   O3    S    
Cu1   O5    S    
C40   C42   A    
C20   C26   A    
C10   N2    A    
C13   H15   S    
C9    N1    A    
C40   H20   S    
Cu2   O2    S    
H9    N4    S    
C38   C40   A    
C12   O4    A    
Cu1   Cu2   S    
C11   C14   A    
C39   C41   A    
Br3   C26   S    
C37   H11   S    
C24   C26   A    
C6    C15   A    
C36   N3    S    
C16   O5    A    
Cu1   O1    S    
C29   C30   A    
C1    C34   S    
C1    O1    A    
C24   C29   A    
Cu2   O6    S    
C39   H19   S    
Cu2   O7    S    
C2    C4    S    
C7    N1    A    
C5    C7    A    
C37   H13   S    
C17   O6    A    
C6    C8    A    
C34   C35   A    
Br5   C31   S    
Br4   C25   S    
C23   C33   A    
C22   C25   A    
C8    N4    S    
Cu1   N1    S    
C3    C4    T    
C24   H17   S    
C21   C27   A    
Br1   C9    S    
C12   O2    A    
H5    N3    S    
C13   C15   A    
C3    C42   S    
C36   H8    S    
C28   C30   A    
C9    C11   A    
C5    C14   A    
Br6   C32   S    
C34   C39   A    
Br7   C33   S    
C38   H18   S    
C31   C42   A    
C20   C28   A    
C14   C18   S    
C2    C41   A    
Cu1   O8    S    
C22   H16   S    
C5    H3    S    
C12   C23   S    
