data_mof_unit_13442.cif
_audit_creation_date              2012-12-11T14:41:15-0500
_audit_creation_method            fapswitch 2.2
_symmetry_space_group_name_H-M    P1
_symmetry_Int_Tables_number       1
_space_group_crystal_system       triclinic
_cell_length_a                    24.516898
_cell_length_b                    17.341817
_cell_length_c                    15.52742
_cell_angle_alpha                 90.169466
_cell_angle_beta                  129.575818
_cell_angle_gamma                 89.829908
_cell_volume                      5088.48816024

loop_
_atom_site_label
_atom_site_type_symbol
_atom_type_description
_atom_site_fract_x
_atom_site_fract_y
_atom_site_fract_z
_atom_type_partial_charge
C1    C     C_R   0.350315 0.358763 0.241448 -0.082351
C2    C     C_R   0.333349 0.608939 0.198551 -0.073216
C3    C     C_R   0.850367 0.858705 0.241606 -0.118283
C4    C     C_R   0.833333 0.108865 0.198498 -0.073220
C5    C     C_R   0.619056 0.319233 0.790995 0.149496
C6    C     C_R   0.648527 0.625896 0.864928 0.176512
C7    C     C_R   0.119116 0.819275 0.791092 0.162516
C8    C     C_R   0.148519 0.125949 0.864867 0.177745
C9    C     C_R   0.684307 0.382095 0.500611 0.034136
C10   C     C_R   0.640809 0.685594 0.502342 0.037667
C11   C     C_R   0.184361 0.882225 0.500656 0.033106
C12   C     C_R   0.140760 0.185621 0.502258 0.049846
C13   C     C_R   0.320843 0.374705 0.501168 0.029616
C14   C     C_R   0.362580 0.686345 0.501085 0.148819
C15   C     C_R   0.820946 0.874494 0.501209 0.022661
C16   C     C_R   0.862717 0.186483 0.501032 0.127530
C17   C     C_3   0.287973 0.333900 0.616454 -0.393558
C18   C     C_3   0.361925 0.793185 0.610221 -0.342068
C19   C     C_3   0.788856 0.832781 0.617139 -0.396642
C20   C     C_3   0.861974 0.293521 0.609873 -0.339367
C21   C     C_3   0.736901 0.783566 0.616235 -0.391538
C22   C     C_3   0.812636 0.350695 0.606602 -0.386808
C23   C     C_3   0.236010 0.284560 0.615462 -0.386346
C24   C     C_3   0.312646 0.850398 0.607019 -0.387740
C25   C     C_3   0.194414 0.354544 0.411061 -0.492601
C26   C     C_3   0.262430 0.697675 0.494354 -0.528995
C27   C     C_3   0.694623 0.855175 0.412322 -0.477090
C28   C     C_3   0.762718 0.197658 0.494771 -0.520235
C29   C     C_3   0.278319 0.241939 0.476017 0.476603
C30   C     C_3   0.279879 0.799996 0.397477 0.479938
C31   C     C_3   0.777504 0.741997 0.474197 0.404692
C32   C     C_3   0.779575 0.299865 0.397039 0.477425
C33   C     C_3   0.272262 0.327281 0.502464 0.179234
C34   C     C_3   0.318889 0.744672 0.500903 0.152712
C35   C     C_3   0.772351 0.827114 0.502481 0.204605
C36   C     C_3   0.818938 0.244759 0.500791 0.146630
C37   C     C_3   0.686957 0.739763 0.503312 0.296564
C38   C     C_3   0.734591 0.335932 0.500800 0.280891
C39   C     C_3   0.186857 0.239859 0.503201 0.291857
C40   C     C_3   0.234629 0.835992 0.500895 0.286473
C41   C     C_3   0.643784 0.800446 0.408629 -0.387284
C42   C     C_3   0.715153 0.250963 0.498912 -0.341664
C43   C     C_3   0.143639 0.299809 0.407460 -0.379304
C44   C     C_3   0.214870 0.751058 0.498391 -0.337631
C45   C     C_R   0.651935 0.361829 0.759981 0.018007
C46   C     C_R   0.668119 0.606842 0.801580 -0.071732
C47   C     C_R   0.151973 0.861868 0.760042 0.001053
C48   C     C_R   0.168100 0.106914 0.801502 -0.072419
C49   C     C_3   0.732482 0.690383 0.486493 -0.474542
C50   C     C_3   0.728389 0.352534 0.396520 -0.499540
C51   C     C_3   0.233155 0.190398 0.488098 -0.510213
C52   C     C_3   0.228757 0.852829 0.396968 -0.511713
C53   C     C_2   0.646276 0.248061 0.856626 -0.172955
C54   C     C_2   0.694835 0.657202 0.978867 -0.228520
C55   C     C_2   0.146362 0.748110 0.856735 -0.142505
C56   C     C_2   0.194847 0.157211 0.978814 -0.229193
C57   C     C_2   0.688172 0.197595 0.856321 0.017807
C58   C     C_2   0.765177 0.643748 0.053884 0.017694
C59   C     C_2   0.188253 0.697651 0.856405 0.012736
C60   C     C_2   0.265203 0.143831 0.053700 -0.002663
C61   C     C_2   0.305449 0.655353 0.019051 -0.207234
C62   C     C_2   0.357036 0.242357 0.148832 -0.217377
C63   C     C_2   0.805381 0.155222 0.018934 -0.205800
C64   C     C_2   0.857115 0.742194 0.149169 -0.206539
C65   C     C_2   0.234974 0.650116 0.956504 -0.233761
C66   C     C_2   0.307838 0.201613 0.141785 -0.182135
C67   C     C_2   0.734901 0.150069 0.956444 -0.232190
C68   C     C_2   0.807831 0.701528 0.141998 -0.217291
C69   C     C_R   0.615378 0.396847 0.407792 -0.138134
C70   C     C_R   0.588498 0.643659 0.408058 -0.120910
C71   C     C_R   0.115416 0.896908 0.407821 -0.138298
C72   C     C_R   0.088502 0.143621 0.408015 -0.115414
C73   C     C_R   0.387923 0.395469 0.593429 -0.011288
C74   C     C_R   0.413564 0.642502 0.593798 -0.157146
C75   C     C_R   0.888003 0.895313 0.593463 0.022756
C76   C     C_R   0.913640 0.142590 0.593759 -0.150992
C77   C     C_R   0.689961 0.397820 0.592916 -0.105737
C78   C     C_R   0.663919 0.641784 0.594382 -0.132981
C79   C     C_R   0.189984 0.897915 0.592935 -0.104799
C80   C     C_R   0.163941 0.141790 0.594338 -0.132957
C81   C     C_R   0.313244 0.392550 0.407784 -0.093377
C82   C     C_R   0.338301 0.643276 0.407502 -0.089091
C83   C     C_R   0.813249 0.892523 0.407801 -0.164023
C84   C     C_R   0.838428 0.143364 0.407489 -0.098578
C85   C     C_R   0.560103 0.360499 0.759457 -0.123842
C86   C     C_R   0.577855 0.606801 0.802992 -0.147106
C87   C     C_R   0.060142 0.860517 0.759525 -0.069658
C88   C     C_R   0.077859 0.106816 0.802983 -0.148877
C89   C     C_R   0.441828 0.357336 0.241014 -0.144808
C90   C     C_R   0.423735 0.609597 0.197253 -0.164951
C91   C     C_R   0.941873 0.857257 0.241167 -0.137378
C92   C     C_R   0.923705 0.109535 0.197197 -0.158861
C93   C     C_R   0.382688 0.316133 0.209145 0.175023
C94   C     C_R   0.352996 0.629049 0.135548 0.175137
C95   C     C_R   0.882759 0.816021 0.209389 0.171644
C96   C     C_R   0.852951 0.128944 0.135458 0.176085
H1    H     H_    0.302078 0.345386 0.226723 0.086664
H2    H     H_    0.280253 0.606278 0.170597 0.073034
H3    H     H_    0.802164 0.845307 0.226972 0.085295
H4    H     H_    0.780233 0.106164 0.170547 0.073696
H5    H     H_    0.342448 0.314732 0.686760 0.202586
H6    H     H_    0.406244 0.823957 0.623058 0.217059
H7    H     H_    0.843298 0.812927 0.686546 0.200497
H8    H     H_    0.906165 0.324349 0.622394 0.217944
H9    H     H_    0.769017 0.743546 0.688184 0.159074
H10   H     H_    0.828015 0.410937 0.606334 0.206965
H11   H     H_    0.268081 0.245122 0.688135 0.158762
H12   H     H_    0.328252 0.910630 0.607265 0.206680
H13   H     H_    0.203961 0.321541 0.627105 0.172574
H14   H     H_    0.319776 0.842217 0.684546 0.143637
H15   H     H_    0.705460 0.820497 0.629192 0.170005
H16   H     H_    0.819973 0.342762 0.684341 0.144023
H17   H     H_    0.187675 0.414422 0.429013 0.192971
H18   H     H_    0.288171 0.655973 0.564884 0.189386
H19   H     H_    0.688510 0.914885 0.431644 0.188989
H20   H     H_    0.788662 0.156082 0.565474 0.188764
H21   H     H_    0.609190 0.834078 0.418176 0.178155
H22   H     H_    0.721249 0.237889 0.574880 0.189044
H23   H     H_    0.108524 0.333509 0.415807 0.185753
H24   H     H_    0.220698 0.737829 0.574086 0.188505
H25   H     H_    0.754007 0.740309 0.384756 0.009546
H26   H     H_    0.746378 0.264828 0.319396 0.015894
H27   H     H_    0.255461 0.239528 0.386911 0.033056
H28   H     H_    0.246667 0.765108 0.319679 0.007912
H29   H     H_    0.766370 0.650704 0.559003 0.211647
H30   H     H_    0.738788 0.414687 0.394868 0.223084
H31   H     H_    0.266992 0.151227 0.561265 0.216463
H32   H     H_    0.239450 0.914952 0.395824 0.223459
H33   H     H_    0.698650 0.653488 0.410538 0.145416
H34   H     H_    0.673837 0.340626 0.318474 0.131167
H35   H     H_    0.199833 0.152983 0.412620 0.149216
H36   H     H_    0.174218 0.841251 0.318687 0.130501
H37   H     H_    0.179597 0.354999 0.326933 0.156053
H38   H     H_    0.229185 0.663434 0.415584 0.166165
H39   H     H_    0.679352 0.856405 0.327893 0.155373
H40   H     H_    0.729449 0.163269 0.416142 0.166108
H41   H     H_    0.700938 0.348578 0.776660 0.081842
H42   H     H_    0.721278 0.606541 0.829522 0.090984
H43   H     H_    0.200983 0.848643 0.776730 0.082136
H44   H     H_    0.221242 0.106673 0.829376 0.087976
H45   H     H_    0.609139 0.771927 0.325454 0.151803
H46   H     H_    0.658909 0.239636 0.424913 0.168751
H47   H     H_    0.109523 0.270690 0.324712 0.151354
H48   H     H_    0.158649 0.739968 0.424118 0.168654
H49   H     H_    0.211523 0.622143 0.988357 0.152455
H50   H     H_    0.289689 0.219710 0.186755 0.162656
H51   H     H_    0.711460 0.122172 0.988360 0.150728
H52   H     H_    0.789624 0.719698 0.186858 0.145281
H53   H     H_    0.328472 0.684796 0.987272 0.121917
H54   H     H_    0.374100 0.224748 0.102057 0.118080
H55   H     H_    0.828397 0.184597 0.987099 0.122163
H56   H     H_    0.874230 0.724504 0.102495 0.119323
H57   H     H_    0.640570 0.243352 0.920395 0.138337
H58   H     H_    0.671758 0.702434 0.995440 0.123392
H59   H     H_    0.140659 0.743384 0.920506 0.128246
H60   H     H_    0.171764 0.202362 0.995492 0.124186
H61   H     H_    0.592889 0.396243 0.321241 0.092974
H62   H     H_    0.562522 0.656999 0.321903 0.091265
H63   H     H_    0.092931 0.896251 0.321271 0.092580
H64   H     H_    0.062484 0.156899 0.321835 0.090878
H65   H     H_    0.410273 0.396465 0.679909 0.068628
H66   H     H_    0.440589 0.655071 0.680477 0.092533
H67   H     H_    0.910355 0.896324 0.679945 0.056300
H68   H     H_    0.940638 0.155188 0.680424 0.092331
H69   H     H_    0.737212 0.398394 0.679489 0.082178
H70   H     H_    0.706990 0.653119 0.681133 0.088900
H71   H     H_    0.237227 0.898547 0.679513 0.081652
H72   H     H_    0.207129 0.153094 0.681053 0.089034
H73   H     H_    0.265678 0.390233 0.321520 0.066925
H74   H     H_    0.295014 0.656320 0.321249 0.090410
H75   H     H_    0.765645 0.890183 0.321562 0.083866
H76   H     H_    0.795169 0.156415 0.321229 0.091285
H77   H     H_    0.523984 0.344353 0.773831 0.133637
H78   H     H_    0.549005 0.605129 0.834077 0.094886
H79   H     H_    0.024056 0.844382 0.773971 0.127139
H80   H     H_    0.049024 0.105132 0.834095 0.094765
H81   H     H_    0.478481 0.340643 0.227780 0.100103
H82   H     H_    0.452311 0.607061 0.165704 0.092664
H83   H     H_    0.978545 0.840524 0.227989 0.097497
H84   H     H_    0.952279 0.106985 0.165646 0.090825
H85   H     H_    0.283477 0.395085 0.633192 0.155040
H86   H     H_    0.385826 0.755311 0.684021 0.139501
H87   H     H_    0.785031 0.893830 0.635231 0.153215
H88   H     H_    0.886061 0.255803 0.683876 0.139893
N1    N     N_R   0.389430 0.421450 0.294590 -0.053387
N2    N     N_R   0.389430 0.578550 0.294590 -0.044271
N3    N     N_R   0.889430 0.921450 0.294590 -0.047446
N4    N     N_R   0.889430 0.078550 0.294590 -0.044514
N5    N     N_R   0.612200 0.424040 0.705410 -0.053630
N6    N     N_R   0.612200 0.575960 0.705410 -0.049470
N7    N     N_R   0.112200 0.924040 0.705410 -0.053765
N8    N     N_R   0.112200 0.075960 0.705410 -0.048970
N9    N     N_R   0.581780 0.422390 0.443390 -0.032874
N10   N     N_R   0.581780 0.577610 0.443390 -0.039942
N11   N     N_R   0.081780 0.922390 0.443390 -0.032675
N12   N     N_R   0.081780 0.077610 0.443390 -0.041707
N13   N     N_R   0.419850 0.423100 0.556610 -0.038830
N14   N     N_R   0.419850 0.576900 0.556610 -0.050738
N15   N     N_R   0.919850 0.923100 0.556610 -0.034891
N16   N     N_R   0.919850 0.076900 0.556610 -0.051196
N17   N     N_R   0.627410 0.423100 0.556610 -0.034956
N18   N     N_R   0.627410 0.576900 0.556610 -0.042085
N19   N     N_R   0.127410 0.923100 0.556610 -0.032959
N20   N     N_R   0.127410 0.076900 0.556610 -0.043047
N21   N     N_R   0.374220 0.422390 0.443390 -0.030591
N22   N     N_R   0.374220 0.577610 0.443390 -0.056321
N23   N     N_R   0.874220 0.922390 0.443390 -0.027855
N24   N     N_R   0.874220 0.077610 0.443390 -0.052498
N25   N     N_R   0.555000 0.424040 0.705410 -0.051494
N26   N     N_R   0.555000 0.575960 0.705410 -0.041721
N27   N     N_R   0.055000 0.924040 0.705410 -0.058380
N28   N     N_R   0.055000 0.075960 0.705410 -0.043388
N29   N     N_R   0.446630 0.421450 0.294590 -0.047184
N30   N     N_R   0.446630 0.578550 0.294590 -0.039325
N31   N     N_R   0.946630 0.921450 0.294590 -0.046081
N32   N     N_R   0.946630 0.078550 0.294590 -0.039761
Ni1   Ni    Ni4+2 0.382890 0.500000 0.370170 0.216967
Ni2   Ni    Ni4+2 0.882890 0.000000 0.370170 0.218790
Ni3   Ni    Ni4+2 0.618740 0.500000 0.629830 0.243277
Ni4   Ni    Ni4+2 0.118740 1.000000 0.629830 0.245456
Ni5   Ni    Ni4+2 0.514090 0.500000 0.370170 0.220454
Ni6   Ni    Ni4+2 0.014090 0.000000 0.370170 0.222148
Ni7   Ni    Ni4+2 0.487550 0.500000 0.629830 0.223494
Ni8   Ni    Ni4+2 0.987550 1.000000 0.629830 0.226783
S1    S     S_3+6 0.366769 0.202342 0.554264 -0.052677
O1    O     O_2   0.408751 0.214228 0.677616 -0.342884
O2    O     O_2   0.361323 0.117312 0.530869 -0.238596
O3    O     O_3   0.408896 0.243921 0.513462 -0.532606
H89   H     H_    0.458824 0.227114 0.568967 0.388265
S2    S     S_3+6 0.338080 0.855893 0.388192 -0.047859
O4    O     O_2   0.294889 0.890646 0.273394 -0.269795
O5    O     O_2   0.372274 0.919682 0.473385 -0.267958
O6    O     O_3   0.401299 0.799581 0.408366 -0.552765
H90   H     H_    0.428117 0.833905 0.396333 0.377388
S3    S     S_3+6 0.865579 0.701674 0.550538 -0.036514
O7    O     O_2   0.908288 0.712330 0.674219 -0.299052
O8    O     O_2   0.859666 0.616778 0.526046 -0.246024
O9    O     O_3   0.908225 0.743435 0.510788 -0.490139
H91   H     H_    0.878567 0.732525 0.429752 0.336804
S4    S     S_3+6 0.837209 0.356054 0.386816 -0.048063
O10   O     O_2   0.871905 0.419622 0.472359 -0.268302
O11   O     O_2   0.893192 0.305788 0.403144 -0.299544
O12   O     O_3   0.787929 0.395315 0.258535 -0.522799
H92   H     H_    0.821584 0.426065 0.257713 0.387251
C97   C     C_2   0.692121 0.190400 0.764889 0.509824
H93   H     H_    0.737427 0.162379 0.780900 -0.011685
O13   O     O_2   0.643474 0.211619 0.669948 -0.588037
C98   C     C_2   0.801404 0.576300 0.050689 0.527326
H94   H     H_    0.858014 0.578281 0.096174 0.006707
O14   O     O_2   0.769502 0.516667 0.003037 -0.587082
C99   C     C_2   0.192238 0.690487 0.765006 0.526611
H95   H     H_    0.237559 0.662481 0.781048 -0.019643
O15   O     O_2   0.143608 0.711712 0.670060 -0.570650
C100  C     C_2   0.301470 0.076499 0.050346 0.570727
H96   H     H_    0.358055 0.078605 0.095649 -0.001932
O16   O     O_2   0.269639 0.016822 0.002764 -0.581747

loop_
_geom_bond_atom_site_label_1
_geom_bond_atom_site_label_2
_ccdc_geom_bond_type
C15   C75   A    
C90   H82   S    
C53   H57   S    
C55   C59   D    
N14   N22   A    
C1    C93   A    
C43   H47   S    
C17   H85   S    
C29   S1    S    
C56   H60   S    
N6    Ni3   S    
C25   C43   S    
C82   H74   S    
C52   H32   S    
C26   C44   S    
C99   H95   S    
C2    H2    S    
C55   H59   S    
N21   Ni1   S    
C17   C23   S    
N1    Ni1   S    
N19   Ni4   S    
C64   H56   S    
C10   C37   S    
C18   C24   S    
C14   C74   A    
C81   N21   A    
C19   C21   S    
C90   N30   A    
C57   C67   S    
C38   C42   S    
C86   H78   S    
C54   C58   D    
C11   C71   A    
C99   O15   D    
N11   N19   A    
C83   H75   S    
C44   H24   S    
C77   H69   S    
O12   H92   S    
C22   C38   S    
C13   C81   A    
C92   C96   A    
S1    O3    S    
N9    N17   A    
N20   Ni4   S    
S2    O6    S    
C75   H67   S    
C18   H6    S    
C83   N23   A    
C87   H79   S    
C19   C35   S    
C17   H5    S    
N13   Ni7   S    
N8    N28   A    
C100  O16   D    
C92   H84   S    
C24   C40   S    
C39   C51   S    
C4    C96   A    
C19   H7    S    
C26   C34   S    
C71   H63   S    
C7    C87   A    
C74   N14   A    
C29   C33   S    
N1    N29   A    
C73   N13   A    
C42   H46   S    
C85   H77   S    
S3    O7    D    
C14   C34   S    
C92   N32   A    
C24   H12   S    
C89   H81   S    
N12   N20   A    
C50   H34   S    
O6    H90   S    
C78   N18   A    
C68   H52   S    
C6    C46   A    
C70   N10   A    
C71   N11   A    
C20   H88   S    
C5    C85   A    
N9    Ni5   S    
C29   H27   S    
C60   C66   S    
N16   N24   A    
N3    Ni2   S    
C16   C76   A    
C97   H93   S    
C47   N7    A    
S3    O8    D    
C79   H71   S    
C8    C56   S    
S2    O4    D    
C2    N2    A    
C17   C33   S    
C46   N6    A    
C16   C36   S    
C30   S2    S    
C15   C35   S    
O3    H89   S    
C21   H15   S    
C98   O14   D    
C90   C94   A    
N3    N31   A    
N22   Ni1   S    
N24   Ni2   S    
C23   H13   S    
N2    Ni1   S    
C63   C67   D    
C78   H70   S    
C28   H20   S    
C62   C66   D    
N16   Ni8   S    
C32   H26   S    
C2    C94   A    
C24   H14   S    
C31   H25   S    
C57   C97   S    
N15   N23   A    
C76   N16   A    
C1    H1    S    
C74   H66   S    
C30   C34   S    
C61   C94   S    
C42   H22   S    
C39   C43   S    
N13   N21   A    
C27   C35   S    
C60   C100  S    
C40   C52   S    
C31   S3    S    
C49   H29   S    
C16   C84   A    
C56   C60   D    
C77   N17   A    
C89   C93   A    
C8    C88   A    
C52   H36   S    
N18   Ni3   S    
C41   H21   S    
C8    C48   A    
C26   H18   S    
C13   C33   S    
C100  H96   S    
C26   H38   S    
N30   Ni5   S    
C25   H17   S    
N2    N30   A    
C27   C41   S    
C73   H65   S    
C44   H48   S    
C48   H44   S    
C23   H11   S    
C69   N9    A    
S4    O11   D    
C5    C45   A    
C9    C77   A    
C43   H23   S    
S2    O5    D    
C91   N31   A    
C18   C34   S    
C63   H55   S    
C37   C49   S    
N29   Ni5   S    
C11   C79   A    
C69   H61   S    
N10   Ni5   S    
C50   H30   S    
C7    C55   S    
C10   C70   A    
C45   N5    A    
C13   C73   A    
C6    C54   S    
C75   N15   A    
N4    N32   A    
C59   C99   S    
N25   Ni7   S    
S3    O9    S    
C31   C35   S    
C76   H68   S    
C30   H28   S    
C14   C82   A    
C19   H87   S    
N31   Ni6   S    
C64   C68   D    
C6    C86   A    
C82   N22   A    
C66   H50   S    
C25   H37   S    
C98   H94   S    
C5    C53   S    
C89   N29   A    
C45   H41   S    
C29   C51   S    
C58   C68   S    
C63   C96   S    
C30   C52   S    
O9    H91   S    
N23   Ni2   S    
C51   H35   S    
N26   Ni7   S    
C62   H54   S    
S1    O1    D    
C28   H40   S    
N17   Ni3   S    
C87   N27   A    
N12   Ni6   S    
C86   N26   A    
C64   C95   S    
C20   C22   S    
C84   H76   S    
C3    N3    A    
N7    Ni4   S    
C72   N12   A    
N11   Ni6   S    
C15   C83   A    
S4    O10   D    
C32   C36   S    
C38   C50   S    
N4    Ni2   S    
C32   S4    S    
C41   H45   S    
C79   N19   A    
C81   H73   S    
C72   H64   S    
C4    H4    S    
C46   H42   S    
C27   H19   S    
C27   H39   S    
C84   N24   A    
C9    C69   A    
C12   C39   S    
C97   O13   D    
N14   Ni7   S    
N6    N26   A    
C51   H31   S    
C22   H10   S    
C47   H43   S    
C59   C65   S    
C67   H51   S    
C4    N4    A    
C80   N20   A    
C49   H33   S    
C61   H53   S    
C18   H86   S    
C23   C39   S    
N27   Ni8   S    
C12   C80   A    
C58   C98   S    
C9    C38   S    
S1    O2    D    
C53   C57   D    
C10   C78   A    
C32   C50   S    
S4    O12   S    
C61   C65   D    
C37   C41   S    
C11   C40   S    
C12   C72   A    
N28   Ni8   S    
C48   N8    A    
N32   Ni6   S    
C20   H8    S    
C91   C95   A    
C20   C36   S    
C3    H3    S    
C88   H80   S    
C40   C44   S    
C21   C37   S    
C85   N25   A    
C28   C36   S    
C3    C95   A    
C88   N28   A    
C62   C93   S    
C25   C33   S    
N8    Ni4   S    
N5    N25   A    
N15   Ni8   S    
C31   C49   S    
C1    N1    A    
C70   H62   S    
C54   H58   S    
N7    N27   A    
C65   H49   S    
C80   H72   S    
C21   H9    S    
N5    Ni3   S    
C22   H16   S    
C7    C47   A    
C91   H83   S    
C28   C42   S    
N10   N18   A    
