data_mof_unit_41783.cif
_audit_creation_date              2012-12-10T20:54:27-0500
_audit_creation_method            fapswitch 2.2
_symmetry_space_group_name_H-M    P1
_symmetry_Int_Tables_number       1
_space_group_crystal_system       triclinic
_cell_length_a                    12.879801
_cell_length_b                    15.826952
_cell_length_c                    15.059435
_cell_angle_alpha                 90.042496
_cell_angle_beta                  97.220684
_cell_angle_gamma                 89.784081
_cell_volume                      3045.46818576

loop_
_atom_site_label
_atom_site_type_symbol
_atom_type_description
_atom_site_fract_x
_atom_site_fract_y
_atom_site_fract_z
_atom_type_partial_charge
C1    C     C_R   0.500067 0.338937 0.499965 0.896846
C2    C     C_R   0.499933 0.661063 0.500035 0.896846
C3    C     C_R   0.501421 0.957656 0.417167 0.014596
C4    C     C_R   0.498578 0.042344 0.582833 0.014596
C5    C     C_1   0.497867 0.824073 0.498832 -0.066692
C6    C     C_1   0.502133 0.175927 0.501168 -0.066692
C7    C     C_1   0.500918 0.250708 0.500163 -0.187878
C8    C     C_1   0.499082 0.749292 0.499837 -0.187878
C9    C     C_R   0.488166 0.425389 0.950332 -0.239788
C10   C     C_R   0.511834 0.574611 0.049668 -0.239788
C11   C     C_R   0.498655 0.501848 0.904854 0.017850
C12   C     C_R   0.501345 0.498152 0.095146 0.017850
C13   C     C_R   0.510398 0.577625 0.955479 0.032204
C14   C     C_R   0.489602 0.422375 0.044521 0.032204
C15   C     C_1   0.499645 0.500600 0.807065 0.053397
C16   C     C_1   0.500355 0.499400 0.192935 0.053397
C17   C     C_R   0.297700 0.498405 0.482464 0.894878
C18   C     C_R   0.702300 0.501595 0.517536 0.894878
C19   C     C_R   0.814237 0.506554 0.528520 -0.088668
C20   C     C_R   0.185762 0.493446 0.471480 -0.088668
C21   C     C_R   0.021125 0.446929 0.393392 -0.279112
C22   C     C_R   0.978875 0.553071 0.606608 -0.279112
C23   C     C_R   0.129297 0.452492 0.397399 0.203799
C24   C     C_R   0.870703 0.547509 0.602601 0.203799
C25   C     C_R   0.135338 0.527558 0.539932 -0.316901
C26   C     C_R   0.864662 0.472441 0.460068 -0.316901
C27   C     C_R   0.028696 0.520278 0.536874 0.155834
C28   C     C_R   0.971304 0.479722 0.463126 0.155834
C29   C     C_R   0.494361 0.954606 0.578823 -0.257478
C30   C     C_R   0.505638 0.045394 0.421177 -0.257478
C31   C     C_R   0.496232 0.913012 0.497322 0.105967
C32   C     C_R   0.503768 0.086988 0.502678 0.105967
H1    H     H_    0.820501 0.440516 0.403713 0.165533
H2    H     H_    0.179499 0.559484 0.596287 0.165533
H3    H     H_    0.976552 0.415430 0.337077 0.136943
H4    H     H_    0.023448 0.584570 0.662923 0.136943
H5    H     H_    0.491434 0.918377 0.639579 0.140937
H6    H     H_    0.508566 0.081623 0.360421 0.140937
H7    H     H_    0.480110 0.367168 0.912119 0.140360
H8    H     H_    0.519890 0.632832 0.087881 0.140360
N1    N     N_1   0.499970 0.500020 0.270540 -0.085205
N2    N     N_1   0.500030 0.499980 0.729460 -0.085205
O1    O     O_R   0.500000 0.378020 0.573650 -0.607751
O2    O     O_R   0.500000 0.621980 0.426350 -0.607751
O3    O     O_R   0.500050 0.378020 0.426320 -0.609521
O4    O     O_R   0.499950 0.621980 0.573680 -0.609522
O5    O     O_R   0.346340 0.499990 0.561490 -0.627438
O6    O     O_R   0.653660 0.500010 0.438510 -0.627438
O7    O     O_R   0.346380 0.499990 0.414160 -0.587368
O8    O     O_R   0.653620 0.500010 0.585840 -0.587368
Zn1   Zn    Zn3+2 0.499970 0.500000 0.598370 0.979243
Zn2   Zn    Zn3+2 0.500030 0.500000 0.401630 0.979243
N3    N     N_2   0.819494 0.584747 0.671539 -0.287636
H9    H     H_    0.862661 0.581843 0.734010 0.217815
C33   C     C_3   0.778943 0.668841 0.651065 -0.734143
H10   H     H_    0.733688 0.690470 0.704995 0.244495
H11   H     H_    0.725944 0.669243 0.586935 0.235243
H12   H     H_    0.844369 0.713542 0.646323 0.220288
N4    N     N_2   0.180505 0.415253 0.328460 -0.287636
H13   H     H_    0.137338 0.418158 0.265989 0.217815
C34   C     C_3   0.221056 0.331159 0.348934 -0.734144
H14   H     H_    0.266311 0.309531 0.295004 0.244496
H15   H     H_    0.155630 0.286459 0.353675 0.220288
H16   H     H_    0.274055 0.330757 0.413063 0.235244
C35   C     C_R   0.497096 0.085162 0.670682 0.120129
C36   C     C_R   0.574339 0.144535 0.701644 -0.131890
C37   C     C_R   0.572424 0.184359 0.784374 -0.132627
C38   C     C_R   0.494291 0.164671 0.837383 -0.119141
C39   C     C_R   0.418013 0.104995 0.807819 -0.132636
C40   C     C_R   0.419359 0.065242 0.724975 -0.170845
H17   H     H_    0.636461 0.159577 0.662117 0.126937
H18   H     H_    0.631822 0.230256 0.807568 0.130865
H19   H     H_    0.493087 0.195402 0.901486 0.133652
H20   H     H_    0.357712 0.089600 0.849077 0.128124
H21   H     H_    0.359323 0.019455 0.702856 0.125983
C41   C     C_R   0.502904 0.914838 0.329318 0.120129
C42   C     C_R   0.425661 0.855465 0.298356 -0.131890
C43   C     C_R   0.427576 0.815641 0.215626 -0.132626
C44   C     C_R   0.505709 0.835329 0.162617 -0.119143
C45   C     C_R   0.581987 0.895005 0.192181 -0.132635
C46   C     C_R   0.580641 0.934758 0.275025 -0.170845
H22   H     H_    0.363539 0.840422 0.337883 0.126937
H23   H     H_    0.368178 0.769744 0.192431 0.130865
H24   H     H_    0.506913 0.804598 0.098514 0.133652
H25   H     H_    0.642288 0.910399 0.150923 0.128124
H26   H     H_    0.640677 0.980545 0.297144 0.125983
C47   C     C_R   0.477980 0.339153 0.087787 0.107549
C48   C     C_R   0.551029 0.311811 0.159482 -0.132424
C49   C     C_R   0.539654 0.233141 0.199367 -0.129571
C50   C     C_R   0.456151 0.180715 0.167492 -0.115215
C51   C     C_R   0.383797 0.206894 0.095766 -0.144252
C52   C     C_R   0.394545 0.285656 0.055967 -0.178874
H27   H     H_    0.617275 0.350953 0.184003 0.120787
H28   H     H_    0.595923 0.212613 0.254694 0.125142
H29   H     H_    0.447710 0.119667 0.198069 0.128204
H30   H     H_    0.319303 0.166133 0.070958 0.129285
H31   H     H_    0.337485 0.305109 0.000673 0.130169
C53   C     C_R   0.522020 0.660847 0.912213 0.107549
C54   C     C_R   0.448971 0.688189 0.840518 -0.132424
C55   C     C_R   0.460346 0.766859 0.800634 -0.129572
C56   C     C_R   0.543848 0.819286 0.832508 -0.115215
C57   C     C_R   0.616202 0.793106 0.904235 -0.144252
C58   C     C_R   0.605455 0.714344 0.944033 -0.178875
H32   H     H_    0.382725 0.649046 0.815997 0.120787
H33   H     H_    0.404076 0.787387 0.745307 0.125142
H34   H     H_    0.552288 0.880334 0.801931 0.128204
H35   H     H_    0.680695 0.833867 0.929043 0.129285
H36   H     H_    0.662514 0.694891 0.999327 0.130169

loop_
_geom_bond_atom_site_label_1
_geom_bond_atom_site_label_2
_ccdc_geom_bond_type
C6    C32   S    
C33   H10   S    
C56   C57   A    
C34   H16   S    
C17   O5    A    
C47   C48   A    
O1    Zn1   S    
C50   H29   S    
N3    H9    S    
C2    O4    A    
C23   N4    S    
C55   H33   S    
C14   C47   S    
C18   C19   S    
C44   H24   S    
C20   C25   A    
C53   C58   A    
C9    H7    S    
C17   C20   S    
C30   H6    S    
C10   H8    S    
C37   H18   S    
C49   H28   S    
C34   H15   S    
C19   C26   A    
C57   C58   A    
C51   H30   S    
C11   C15   S    
C43   H23   S    
C1    O1    A    
C54   C55   A    
C2    O2    A    
C38   C39   A    
C58   H36   S    
N1    Zn2   S    
C4    C29   A    
N2    Zn1   S    
O2    Zn2   S    
C36   C37   A    
N4    H13   S    
C47   C52   A    
C39   C40   A    
C52   H31   S    
N3    C33   S    
N4    C34   S    
C37   C38   A    
C12   C16   S    
C39   H20   S    
C41   C42   A    
C17   O7    A    
C51   C52   A    
C43   C44   A    
O5    Zn1   S    
O3    Zn2   S    
C38   H19   S    
C42   C43   A    
O4    Zn1   S    
C3    C30   A    
C9    C14   A    
C45   H25   S    
C26   H1    S    
C36   H17   S    
C20   C23   A    
O7    Zn2   S    
O8    Zn1   S    
C57   H35   S    
C3    C31   A    
C3    C41   S    
C9    C11   A    
C4    C32   A    
C10   C12   A    
C21   C28   A    
C12   C14   A    
C35   C36   A    
C22   C27   A    
C21   C23   A    
C22   C24   A    
C40   H21   S    
C18   O8    A    
C56   H34   S    
C48   H27   S    
C1    C7    S    
C2    C8    S    
C46   H26   S    
C15   N2    T    
C45   C46   A    
C10   C13   A    
C18   O6    A    
C41   C46   A    
C5    C8    T    
C6    C7    T    
C21   H3    S    
C25   C27   A    
C22   H4    S    
C25   H2    S    
C26   C28   A    
C13   C53   S    
C33   H11   S    
C19   C24   A    
C24   N3    S    
C29   C31   A    
C30   C32   A    
C11   C13   A    
C1    O3    A    
C50   C51   A    
C4    C35   S    
C42   H22   S    
C55   C56   A    
C54   H32   S    
C34   H14   S    
C44   C45   A    
O6    Zn2   S    
C48   C49   A    
C53   C54   A    
C33   H12   S    
C29   H5    S    
C27   C28   A    
C49   C50   A    
C16   N1    T    
C35   C40   A    
C5    C31   S    
