data_mof_unit_55387.cif
_audit_creation_date              2012-12-10T16:56:34-0500
_audit_creation_method            fapswitch 2.2
_symmetry_space_group_name_H-M    P1
_symmetry_Int_Tables_number       1
_space_group_crystal_system       triclinic
_cell_length_a                    10.78186
_cell_length_b                    10.887161
_cell_length_c                    9.746523
_cell_angle_alpha                 91.528335
_cell_angle_beta                  90.082826
_cell_angle_gamma                 90.146569
_cell_volume                      1143.67229872

loop_
_atom_site_label
_atom_site_type_symbol
_atom_type_description
_atom_site_fract_x
_atom_site_fract_y
_atom_site_fract_z
_atom_type_partial_charge
C1    C     C_R   0.495549 0.265903 0.498028 0.829282
C2    C     C_3   0.878849 0.501917 0.500893 -0.141478
C3    C     C_3   0.926319 0.632785 0.448377 0.243357
C4    C     C_3   0.929445 0.399872 0.397486 0.357716
C5    C     C_2   0.547699 0.933489 0.396895 0.570100
C6    C     C_2   0.520914 0.867110 0.507420 -0.305432
C7    C     C_2   0.558120 0.067664 0.418351 -0.373083
C8    C     C_2   0.474851 0.135130 0.489621 -0.164826
C9    C     C_2   0.421956 0.435379 0.919747 0.105377
C10   C     C_2   0.407666 0.459253 0.074384 -0.142595
C11   C     C_R   0.260420 0.499389 0.500245 0.855612
C12   C     C_R   0.506023 0.734625 0.501599 0.911388
C13   C     C_R   0.740047 0.498498 0.500160 0.887798
C14   C     C_3   0.073866 0.472916 0.647321 -0.459860
C15   C     C_3   0.931803 0.477850 0.650140 -0.237050
C16   C     C_3   0.073198 0.626082 0.447482 0.223485
C17   C     C_3   0.073122 0.395588 0.405887 -0.508874
C18   C     C_3   0.123096 0.500876 0.501897 -0.070932
Cu1   Cu    Cu3+1 0.500030 0.500020 0.638630 1.018489
Cu2   Cu    Cu3+1 0.499970 0.499980 0.361370 1.020151
H1    H     H_    0.112294 0.534276 0.729215 0.165141
H2    H     H_    0.903558 0.426478 0.291418 0.171849
H3    H     H_    0.098901 0.619619 0.336960 0.151274
H4    H     H_    0.510680 0.912107 0.607750 0.101839
H5    H     H_    0.638720 0.112355 0.375287 0.170164
H6    H     H_    0.365731 0.364483 0.869885 0.103835
H7    H     H_    0.317745 0.442251 0.119789 0.140034
H8    H     H_    0.108608 0.380641 0.675607 0.231299
H9    H     H_    0.906915 0.557550 0.717801 0.148909
H10   H     H_    0.111642 0.403242 0.300534 0.139132
H11   H     H_    0.104420 0.305212 0.444038 0.239851
N1    N     N_2   0.498630 0.498660 0.846910 0.012890
N2    N     N_2   0.498590 0.498630 0.153040 -0.243120
O1    O     O_R   0.500020 0.321960 0.617040 -0.561923
O2    O     O_R   0.499980 0.321920 0.382900 -0.621389
O3    O     O_R   0.317710 0.500000 0.617070 -0.601757
O4    O     O_R   0.317670 0.499960 0.382930 -0.605992
O5    O     O_R   0.500020 0.678080 0.617100 -0.588114
O6    O     O_R   0.499980 0.678040 0.382960 -0.502402
O7    O     O_R   0.682330 0.500040 0.617070 -0.582754
O8    O     O_R   0.682290 0.500000 0.382930 -0.553730
O9    O     O_3   0.880931 0.642147 0.310569 -0.596260
C19   C     C_3   0.907133 0.754278 0.245904 -0.193573
H12   H     H_    0.999009 0.794098 0.273361 0.187822
H13   H     H_    0.832672 0.821874 0.269097 0.210476
H14   H     H_    0.906747 0.736955 0.133242 0.169040
O10   O     O_3   0.578657 0.874348 0.272698 -0.556821
C20   C     C_3   0.560871 0.950711 0.159605 -0.264653
H15   H     H_    0.636861 0.019475 0.153436 0.143550
H16   H     H_    0.468594 0.996456 0.162824 0.183986
H17   H     H_    0.563929 0.892998 0.064239 0.188558
C21   C     C_2   0.349999 0.090094 0.529487 0.786776
O11   O     O_2   0.297782 0.135710 0.629761 -0.606793
O12   O     O_R   0.288611 0.002073 0.447072 -0.746015
H18   H     H_    0.200209 0.987493 0.477818 0.366129
O13   O     O_3   0.514383 0.613148 0.902802 -0.514680
C22   C     C_3   0.635025 0.655919 0.875705 -0.015006
H19   H     H_    0.633076 0.726765 0.797267 0.185772
H20   H     H_    0.702484 0.582165 0.850738 0.199418
H21   H     H_    0.669845 0.705531 0.968775 0.136171
C23   C     C_2   0.619736 0.459664 0.110087 1.122659
O14   O     O_2   0.706581 0.531261 0.118923 -0.546961
O15   O     O_R   0.643305 0.337795 0.068462 -0.767895
H22   H     H_    0.569911 0.280999 0.081126 0.272597
C24   C     C_2   0.881518 0.364519 0.720914 0.943180
O16   O     O_2   0.812675 0.377332 0.819775 -0.582843
O17   O     O_R   0.919672 0.246401 0.680187 -0.703317
H23   H     H_    0.880703 0.179958 0.737091 0.325039
O18   O     O_3   0.136446 0.735636 0.492376 -0.570975
C25   C     C_3   0.147076 0.752863 0.636114 -0.216626
H24   H     H_    0.230619 0.706299 0.674949 0.180095
H25   H     H_    0.063128 0.725998 0.693211 0.134164
H26   H     H_    0.160839 0.852145 0.659248 0.198602
C26   C     C_2   0.876479 0.742716 0.535584 0.820297
O19   O     O_2   0.797467 0.728419 0.623036 -0.699436
O20   O     O_R   0.919501 0.861967 0.512844 -0.750003
H27   H     H_    0.878736 0.926153 0.575006 0.334118
O21   O     O_3   0.877059 0.283421 0.425040 -0.543890
C27   C     C_3   0.882888 0.204144 0.308053 -0.301433
H28   H     H_    0.977116 0.201124 0.261793 0.162731
H29   H     H_    0.813574 0.231726 0.230416 0.194866
H30   H     H_    0.860169 0.109505 0.339324 0.197472

loop_
_geom_bond_atom_site_label_1
_geom_bond_atom_site_label_2
_ccdc_geom_bond_type
C10   H7    S    
C3    O9    S    
C1    C8    S    
C14   C18   S    
Cu1   Cu2   S    
C13   O8    A    
Cu2   O8    S    
C7    C8    D    
C11   C18   S    
C5    O10   S    
C26   O20   S    
C14   H1    S    
C11   O3    A    
Cu1   O3    S    
C6    C12   S    
C5    C6    D    
C22   H20   S    
C15   C24   S    
O13   C22   S    
C11   O4    A    
C23   O15   S    
C2    C13   S    
C13   O7    A    
C9    N1    D    
Cu2   O2    S    
C20   H17   S    
C24   O17   S    
C9    H6    S    
C25   H24   S    
C9    C10   S    
C8    C21   S    
C20   H16   S    
C17   H10   S    
O18   C25   S    
Cu1   N1    S    
C21   O12   S    
C1    O1    A    
C15   H9    S    
C26   O19   D    
O17   H23   S    
O20   H27   S    
C27   H29   S    
Cu2   O6    S    
O21   C27   S    
C22   H21   S    
O15   H22   S    
C3    C26   S    
C2    C4    S    
C19   H12   S    
C4    O21   S    
Cu1   O5    S    
C4    H2    S    
O10   C20   S    
C6    H4    S    
C25   H26   S    
C17   C18   S    
C2    C15   S    
C19   H13   S    
Cu2   N2    S    
N2    C23   S    
C20   H15   S    
C16   H3    S    
C17   H11   S    
O9    C19   S    
C4    C17   S    
C21   O11   D    
C1    O2    A    
C5    C7    S    
O12   H18   S    
C16   O18   S    
Cu1   O1    S    
C27   H30   S    
C7    H5    S    
C12   O6    A    
C2    C3    S    
Cu2   O4    S    
C22   H19   S    
C10   N2    D    
C12   O5    A    
C23   O14   D    
C19   H14   S    
Cu1   O7    S    
C27   H28   S    
C16   C18   S    
C24   O16   D    
C14   C15   S    
C25   H25   S    
C14   H8    S    
N1    O13   S    
C3    C16   S    
