data_mof_unit_18717.cif
_audit_creation_date              2012-12-10T19:16:28-0500
_audit_creation_method            fapswitch 2.2
_symmetry_space_group_name_H-M    P1
_symmetry_Int_Tables_number       1
_space_group_crystal_system       triclinic
_cell_length_a                    10.637604
_cell_length_b                    9.67879
_cell_length_c                    27.737121
_cell_angle_alpha                 89.993201
_cell_angle_beta                  90.078522
_cell_angle_gamma                 89.925662
_cell_volume                      2855.78488541

loop_
_atom_site_label
_atom_site_type_symbol
_atom_type_description
_atom_site_fract_x
_atom_site_fract_y
_atom_site_fract_z
_atom_type_partial_charge
C1    C     C_R   0.257825 0.500411 0.501127 0.934840
C2    C     C_R   0.381745 0.509174 0.975090 0.000810
C3    C     C_R   0.613122 0.499142 0.973903 0.093681
C4    C     C_R   0.500454 0.500014 0.405939 0.910337
C5    C     C_R   0.496141 0.503915 0.949185 0.068656
C6    C     C_R   0.268425 0.526453 0.949241 -0.332154
C7    C     C_R   0.265425 0.528917 0.898788 0.508137
C8    C     C_R   0.378615 0.514960 0.872873 -0.082933
C9    C     C_R   0.493827 0.503154 0.898126 -0.132228
C10   C     C_R   0.607299 0.490330 0.872238 0.002755
C11   C     C_R   0.604372 0.489047 0.821954 0.506355
C12   C     C_R   0.513282 0.625384 0.278002 -0.096401
C13   C     C_R   0.381076 0.513510 0.822098 0.547835
C14   C     C_R   0.485746 0.625326 0.721956 -0.095419
C15   C     C_R   0.488174 0.625425 0.671897 -0.192968
C16   C     C_R   0.742603 0.500132 0.500394 0.977265
C17   C     C_R   0.503538 0.374751 0.672086 -0.215470
C18   C     C_R   0.501458 0.375107 0.722157 -0.086713
C19   C     C_R   0.492662 0.500306 0.746977 0.307885
C20   C     C_R   0.384005 0.498643 0.026040 0.093702
C21   C     C_R   0.500958 0.504037 0.050753 0.068543
C22   C     C_R   0.615312 0.509815 0.024844 0.000795
C23   C     C_R   0.504684 0.500529 0.252974 0.309607
C24   C     C_R   0.272944 0.480885 0.053229 -0.216696
C25   C     C_R   0.731528 0.530309 0.101128 0.507679
C26   C     C_R   0.724301 0.481830 0.946728 -0.216571
C27   C     C_R   0.721206 0.477938 0.896866 -0.126968
C28   C     C_R   0.499568 0.499998 0.594029 0.877192
C29   C     C_R   0.728521 0.527758 0.050679 -0.332185
C30   C     C_3   0.070708 0.652629 0.507777 0.310523
C31   C     C_3   0.071329 0.404541 0.542463 0.276117
C32   C     C_3   0.927327 0.651559 0.507105 -0.588612
C33   C     C_3   0.927177 0.415077 0.544252 -0.423550
C34   C     C_R   0.503298 0.503370 0.101813 -0.132371
C35   C     C_3   0.075228 0.445469 0.452517 -0.685341
C36   C     C_3   0.121730 0.501579 0.501838 -0.050857
C37   C     C_3   0.878972 0.500744 0.500528 -0.045266
C38   C     C_3   0.929575 0.436638 0.452288 0.841326
C39   C     C_3   0.394791 0.081582 0.469593 -0.237439
C40   C     C_3   0.394870 0.918758 0.469557 -0.234519
C41   C     C_3   0.618217 0.081211 0.478715 -0.208125
C42   C     C_3   0.618282 0.918515 0.478776 -0.247004
C43   C     C_3   0.486135 0.081263 0.548369 -0.242882
C44   C     C_3   0.485993 0.918744 0.548364 -0.224243
C45   C     C_R   0.389929 0.490009 0.127714 0.003439
C46   C     C_R   0.392900 0.488760 0.178002 0.505163
C47   C     C_R   0.616033 0.514338 0.177824 0.547380
C48   C     C_R   0.494914 0.375427 0.277802 -0.092905
C49   C     C_R   0.493703 0.374996 0.327879 -0.203880
C50   C     C_R   0.511702 0.625413 0.328066 -0.206125
C51   C     C_R   0.276088 0.477066 0.103095 -0.127946
C52   C     C_R   0.618444 0.515788 0.127052 -0.082890
C53   C     C_R   0.501833 0.500124 0.353321 -0.029400
C54   C     C_R   0.497285 0.500049 0.646644 -0.035730
H1    H     H_    0.518376 0.723162 0.346904 0.150875
H2    H     H_    0.889157 0.696125 0.541110 0.211808
H3    H     H_    0.896352 0.464811 0.578480 0.203684
H4    H     H_    0.520644 0.722087 0.258573 0.137488
H5    H     H_    0.893176 0.720221 0.477698 0.170946
H6    H     H_    0.886643 0.309081 0.544136 0.184009
H7    H     H_    0.109613 0.513155 0.422878 0.173147
H8    H     H_    0.116509 0.341518 0.445518 0.203312
H9    H     H_    0.401638 0.120301 0.431931 0.147198
H10   H     H_    0.401878 0.880169 0.431884 0.143302
H11   H     H_    0.303363 0.119475 0.483836 0.155826
H12   H     H_    0.488216 0.278928 0.258216 0.137126
H13   H     H_    0.303453 0.881036 0.483746 0.177534
H14   H     H_    0.631937 0.120051 0.441341 0.169160
H15   H     H_    0.632304 0.879416 0.441450 0.154790
H16   H     H_    0.564261 0.119052 0.571561 0.149439
H17   H     H_    0.563928 0.880539 0.571616 0.145450
H18   H     H_    0.397577 0.120114 0.564851 0.154646
H19   H     H_    0.397280 0.880322 0.564777 0.180942
H20   H     H_    0.699859 0.118683 0.500082 0.178667
H21   H     H_    0.699793 0.881133 0.500271 0.156678
H22   H     H_    0.188300 0.463701 0.122307 0.199717
H23   H     H_    0.815402 0.466724 0.962942 0.140473
H24   H     H_    0.482839 0.723307 0.653068 0.152245
H25   H     H_    0.479156 0.722098 0.741388 0.138120
H26   H     H_    0.180393 0.542828 0.967502 0.134456
H27   H     H_    0.181925 0.465363 0.037026 0.140597
H28   H     H_    0.486001 0.277122 0.346578 0.149997
H29   H     H_    0.914209 0.554233 0.101915 0.320742
H30   H     H_    0.075757 0.681085 0.578061 0.390511
H31   H     H_    0.204219 0.388814 0.590580 0.335647
H32   H     H_    0.915150 0.599209 0.409682 0.309979
H33   H     H_    0.914718 0.262577 0.417136 0.353669
H34   H     H_    0.510463 0.276790 0.653400 0.150477
H35   H     H_    0.082592 0.551914 0.897981 0.320794
H36   H     H_    0.809087 0.464956 0.877663 0.200046
H37   H     H_    0.506888 0.278488 0.741745 0.137694
H38   H     H_    0.816428 0.544600 0.032406 0.134560
H39   H     H_    0.102030 0.714631 0.476147 0.126609
H40   H     H_    0.095765 0.295186 0.533404 0.116902
N1    N     N_R   0.504600 0.500984 0.201670 -0.374109
N2    N     N_R   0.492617 0.500714 0.798274 -0.374695
N3    N     N_3   0.499750 0.138610 0.498940 -0.046391
N4    N     N_3   0.499750 0.861390 0.498940 -0.040939
O1    O     O_R   0.314910 0.616040 0.499990 -0.592906
O2    O     O_2   0.273635 0.523990 0.796427 -0.456422
O3    O     O_2   0.723445 0.525297 0.203474 -0.458742
O4    O     O_2   0.712294 0.476943 0.796712 -0.533028
O5    O     O_3   0.844229 0.547353 0.125374 -0.690320
O6    O     O_3   0.118278 0.719199 0.549227 -0.739362
O7    O     O_3   0.122399 0.437657 0.587836 -0.750961
O8    O     O_3   0.878052 0.505543 0.411846 -0.768866
O9    O     O_3   0.893956 0.296568 0.449965 -0.783143
O10   O     O_3   0.152624 0.545330 0.874528 -0.689008
O11   O     O_R   0.314910 0.383960 0.499990 -0.661613
O12   O     O_R   0.500140 0.616020 0.428740 -0.636214
O13   O     O_R   0.500140 0.383980 0.428740 -0.623954
O14   O     O_R   0.685320 0.616040 0.499970 -0.643540
O15   O     O_R   0.685320 0.383960 0.499970 -0.596859
O16   O     O_R   0.500090 0.616050 0.571230 -0.625870
O17   O     O_R   0.500090 0.383950 0.571230 -0.646108
O18   O     O_2   0.285071 0.476180 0.203256 -0.536823
Zn1   Zn    Zn3+2 0.500150 0.654960 0.499980 0.933500
Zn2   Zn    Zn3+2 0.500150 0.345040 0.499980 0.922881

loop_
_geom_bond_atom_site_label_1
_geom_bond_atom_site_label_2
_ccdc_geom_bond_type
C10   C27   A    
C11   N2    A    
C43   H18   S    
C47   O3    S    
C22   C29   A    
C4    C53   S    
C17   H34   S    
C39   H11   S    
C41   C42   S    
C35   C36   S    
C24   H27   S    
C16   O15   A    
C1    O1    A    
C7    C8    A    
H32   O8    S    
C45   C46   A    
C12   C23   A    
C42   H21   S    
C8    C13   A    
H29   O5    S    
C44   H17   S    
O13   Zn2   S    
C18   H37   S    
C30   H39   S    
C42   N4    S    
C40   N4    S    
O14   Zn1   S    
C39   N3    S    
C15   H24   S    
C45   C51   A    
N3    Zn2   S    
C27   H36   S    
C18   C19   A    
C38   O9    S    
C1    O11   A    
C41   H20   S    
C44   N4    S    
C46   N1    A    
C20   C24   A    
C8    C9    A    
C40   H13   S    
C31   C33   S    
C35   H8    S    
C9    C10   A    
C31   C36   S    
C16   C37   S    
C12   H4    S    
C24   C51   A    
C21   C22   A    
C31   O7    S    
C2    C6    A    
H31   O7    S    
O12   Zn1   S    
O11   Zn2   S    
C41   H14   S    
C25   C29   A    
C26   H23   S    
C13   N2    A    
C2    C20   A    
C50   C53   A    
C15   C54   A    
C35   C38   S    
C51   H22   S    
C39   C40   S    
C28   C54   S    
C25   O5    S    
C21   C34   A    
C32   C37   S    
C42   H15   S    
C33   C37   S    
C49   H28   S    
C38   O8    S    
C43   C44   S    
C5    C9    A    
C37   C38   S    
C28   O17   A    
O1    Zn1   S    
C6    H26   S    
O17   Zn2   S    
C17   C18   A    
C26   C27   A    
C35   H7    S    
C34   C45   A    
C14   H25   S    
C47   C52   A    
C28   O16   A    
C48   C49   A    
C4    O13   A    
C33   H6    S    
H30   O6    S    
C41   N3    S    
C2    C5    A    
C16   O14   A    
N4    Zn1   S    
C4    O12   A    
C33   H3    S    
C23   C48   A    
C7    O10   S    
C14   C19   A    
C3    C26   A    
C43   N3    S    
C3    C5    A    
C12   C50   A    
C6    C7    A    
C30   C36   S    
C43   H16   S    
C31   H40   S    
C39   H9    S    
C34   C52   A    
C50   H1    S    
C40   H10   S    
C46   O18   S    
C13   O2    S    
C25   C52   A    
C30   C32   S    
C49   C53   A    
H35   O10   S    
C23   N1    S    
C11   O4    S    
C44   H19   S    
O16   Zn1   S    
C10   C11   A    
O15   Zn2   S    
H33   O9    S    
C20   C21   A    
C30   O6    S    
C47   N1    A    
C14   C15   A    
C3    C22   A    
C32   H5    S    
C48   H12   S    
C17   C54   A    
C32   H2    S    
C29   H38   S    
C19   N2    S    
C1    C36   S    
