data_mof_unit_22357.cif
_audit_creation_date              2012-12-10T17:53:05-0500
_audit_creation_method            fapswitch 2.2
_symmetry_space_group_name_H-M    P1
_symmetry_Int_Tables_number       1
_space_group_crystal_system       triclinic
_cell_length_a                    14.689741
_cell_length_b                    14.708488
_cell_length_c                    27.809044
_cell_angle_alpha                 76.880284
_cell_angle_beta                  102.814478
_cell_angle_gamma                 114.76772
_cell_volume                      5258.5987245

loop_
_atom_site_label
_atom_site_type_symbol
_atom_type_description
_atom_site_fract_x
_atom_site_fract_y
_atom_site_fract_z
_atom_type_partial_charge
C1    C     C_R   0.880331 0.312292 0.507960 0.801753
C2    C     C_R   0.119687 0.687715 0.491265 0.803460
C3    C     C_R   0.996675 0.499285 0.897725 -0.044094
C4    C     C_R   0.003839 0.501368 0.102193 -0.044201
C5    C     C_R   0.960314 0.407027 0.879110 -0.019768
C6    C     C_R   0.032029 0.593162 0.119985 -0.019528
C7    C     C_R   0.925084 0.315808 0.911263 -0.148376
C8    C     C_R   0.058240 0.683962 0.086913 -0.148440
C9    C     C_R   0.031459 0.590999 0.864927 -0.036885
C10   C     C_R   0.977165 0.410049 0.135813 -0.037995
C11   C     C_R   0.997404 0.498886 0.645290 -0.105340
C12   C     C_R   0.002623 0.501156 0.354714 -0.105178
C13   C     C_R   0.970930 0.407226 0.033409 0.041316
C14   C     C_R   0.033200 0.593673 0.966866 0.041608
C15   C     C_R   0.031570 0.594018 0.017764 0.041557
C16   C     C_R   0.965426 0.406511 0.981790 0.041445
C17   C     C_R   0.002142 0.500874 0.050907 0.070291
C18   C     C_R   0.998410 0.499826 0.949008 0.070178
C19   C     C_R   0.946866 0.317209 0.068523 -0.199767
C20   C     C_R   0.069153 0.684305 0.932952 -0.199370
C21   C     C_R   0.949712 0.318805 0.118572 -0.143790
C22   C     C_R   0.067997 0.682749 0.883083 -0.143789
C23   C     C_R   0.999362 0.499827 0.592457 0.830888
C24   C     C_R   0.000641 0.500178 0.407544 0.830027
C25   C     C_R   0.927248 0.315310 0.961488 -0.203401
C26   C     C_R   0.057853 0.684604 0.036865 -0.203377
C27   C     C_R   0.812758 0.205062 0.508987 -0.053148
C28   C     C_R   0.187237 0.795258 0.484440 -0.052578
C29   C     C_R   0.783500 0.030252 0.509911 -0.186869
C30   C     C_R   0.215504 0.972981 0.466778 -0.186572
C31   C     C_R   0.850338 0.130120 0.512984 -0.184857
C32   C     C_R   0.149213 0.871679 0.472288 -0.186417
C33   C     C_R   0.708198 0.178946 0.502675 -0.243257
C34   C     C_R   0.291714 0.821105 0.489931 -0.249327
C35   C     C_R   0.639135 0.079915 0.497026 0.091604
C36   C     C_R   0.359972 0.922550 0.482979 0.090297
C37   C     C_R   0.678470 0.004659 0.501843 0.160184
C38   C     C_R   0.320366 0.998941 0.472632 0.161118
C39   C     C_R   0.532461 0.053603 0.487331 0.065435
C40   C     C_R   0.466401 0.949961 0.487613 0.066531
C41   C     C_R   0.508796 0.877519 0.491585 -0.215877
C42   C     C_R   0.489687 0.127574 0.476231 -0.216516
C43   C     C_R   0.612796 0.904789 0.498255 -0.219485
C44   C     C_R   0.385657 0.100446 0.468543 -0.217734
C45   C     C_R   0.959629 0.408192 0.828417 0.531147
C46   C     C_R   0.032713 0.591919 0.170688 0.528099
C47   C     C_R   0.714868 0.667964 0.416985 -0.316747
C48   C     C_R   0.285686 0.332896 0.583416 -0.313508
C49   C     C_R   0.796597 0.638424 0.429937 0.076300
C50   C     C_R   0.203657 0.361961 0.570249 0.076353
C51   C     C_R   0.715039 0.509449 0.493054 0.006044
C52   C     C_R   0.285011 0.490675 0.506980 0.007946
C53   C     C_R   0.628850 0.535363 0.481543 -0.020048
C54   C     C_R   0.371532 0.465291 0.518734 -0.020604
C55   C     C_R   0.631020 0.617089 0.442708 0.164474
C56   C     C_R   0.369571 0.383870 0.557723 0.163204
C57   C     C_R   0.541806 0.484235 0.507092 0.078697
C58   C     C_R   0.458704 0.516629 0.493280 0.082196
C59   C     C_R   0.465760 0.599333 0.454652 -0.242440
C60   C     C_R   0.534964 0.401849 0.545885 -0.240273
C61   C     C_R   0.550018 0.648061 0.429935 -0.203459
C62   C     C_R   0.450826 0.353291 0.570689 -0.195127
C63   C     C_R   0.029743 0.588774 0.814528 0.595060
C64   C     C_R   0.978717 0.412151 0.186210 0.597092
C65   C     C_R   0.068078 0.475440 0.732544 -0.187746
C66   C     C_R   0.929617 0.520673 0.267635 -0.186045
C67   C     C_R   0.069656 0.475743 0.682609 -0.213737
C68   C     C_R   0.927985 0.520321 0.317570 -0.214668
C69   C     C_R   0.923041 0.520923 0.658871 -0.303977
C70   C     C_R   0.079433 0.483215 0.340955 -0.303506
C71   C     C_R   0.919998 0.518668 0.709151 0.546434
C72   C     C_R   0.082529 0.485658 0.290675 0.547406
C73   C     C_R   0.994144 0.497685 0.745932 0.272414
C74   C     C_R   0.006052 0.502586 0.254043 0.268621
Cu1   Cu    Cu3+1 0.081740 0.475690 0.513040 0.941187
Cu2   Cu    Cu3+1 0.918260 0.524310 0.486960 0.940950
H1    H     H_    0.867236 0.539985 0.630668 0.173806
H2    H     H_    0.137328 0.467520 0.369003 0.173444
H3    H     H_    0.318367 0.760521 0.501138 0.151674
H4    H     H_    0.682581 0.237480 0.502840 0.145511
H5    H     H_    0.068568 0.853283 0.467714 0.155465
H6    H     H_    0.931074 0.148795 0.517882 0.156832
H7    H     H_    0.813907 0.973134 0.513221 0.138463
H8    H     H_    0.184837 0.031153 0.458290 0.139542
H9    H     H_    0.463634 0.799127 0.488105 0.142336
H10   H     H_    0.534325 0.207817 0.471675 0.147585
H11   H     H_    0.551849 0.711111 0.400479 0.145251
H12   H     H_    0.449238 0.290605 0.600333 0.144816
H13   H     H_    0.278807 0.549983 0.477326 0.120100
H14   H     H_    0.721036 0.449812 0.522542 0.120508
H15   H     H_    0.138535 0.322280 0.589799 0.128237
H16   H     H_    0.861738 0.678113 0.410400 0.127696
H17   H     H_    0.717419 0.730590 0.387194 0.143134
H18   H     H_    0.283346 0.270566 0.613355 0.143517
H19   H     H_    0.407271 0.628891 0.442530 0.127697
H20   H     H_    0.593623 0.372546 0.558159 0.130314
H21   H     H_    0.895414 0.243829 0.897726 0.186102
H22   H     H_    0.079067 0.755477 0.099551 0.186133
H23   H     H_    0.867935 0.534451 0.327062 0.172534
H24   H     H_    0.127742 0.458336 0.673262 0.171989
H25   H     H_    0.871091 0.534532 0.239376 0.162191
H26   H     H_    0.124718 0.458409 0.760961 0.160811
H27   H     H_    0.930210 0.247664 0.143805 0.186598
H28   H     H_    0.096315 0.754333 0.858746 0.186371
H29   H     H_    0.926887 0.243697 0.058892 0.140502
H30   H     H_    0.100565 0.758457 0.943722 0.140178
H31   H     H_    0.896646 0.241524 0.983162 0.140459
H32   H     H_    0.077080 0.757858 0.014047 0.140633
H33   H     H_    0.641985 0.846936 0.500932 0.153527
H34   H     H_    0.356177 0.159553 0.460047 0.152428
N1    N     N_R   0.994206 0.498230 0.797400 -0.449326
N2    N     N_R   0.006168 0.502235 0.202546 -0.450036
N3    N     N_R   0.795430 0.560780 0.467350 -0.177701
N4    N     N_R   0.204570 0.439220 0.532650 -0.178059
O1    O     O_R   0.977900 0.338120 0.517190 -0.588081
O2    O     O_R   0.022100 0.661880 0.482810 -0.588037
O3    O     O_R   0.839850 0.379180 0.495160 -0.589485
O4    O     O_R   0.160150 0.620820 0.504840 -0.589997
O5    O     O_R   0.069030 0.479490 0.580750 -0.584566
O6    O     O_R   0.930970 0.520510 0.419250 -0.585032
O7    O     O_R   0.930970 0.520550 0.558720 -0.586207
O8    O     O_R   0.069030 0.479450 0.441280 -0.586628
O9    O     O_2   0.924508 0.320169 0.810185 -0.553452
O10   O     O_2   0.060081 0.679585 0.188109 -0.552495
O11   O     O_2   0.952299 0.324892 0.218593 -0.523925
O12   O     O_2   0.063783 0.676278 0.782908 -0.525142
O13   O     O_3   0.848642 0.543009 0.722436 -0.560470
C75   C     C_3   0.755094 0.459368 0.719615 -0.312566
H35   H     H_    0.761203 0.390132 0.743998 0.180097
H36   H     H_    0.725144 0.444799 0.680484 0.153131
H37   H     H_    0.699378 0.476779 0.733070 0.200156
O14   O     O_3   0.156749 0.465739 0.277323 -0.559351
C76   C     C_3   0.246760 0.553595 0.278190 -0.314780
H38   H     H_    0.276754 0.572254 0.316689 0.153000
H39   H     H_    0.235417 0.619307 0.252503 0.179125
H40   H     H_    0.304925 0.539241 0.265124 0.199949

loop_
_geom_bond_atom_site_label_1
_geom_bond_atom_site_label_2
_ccdc_geom_bond_type
C49   N3    A    
C46   N2    A    
C70   H2    S    
Cu1   O8    S    
C8    C26   A    
C69   H1    S    
C14   C18   A    
C66   C68   A    
C71   O13   S    
C75   H35   S    
C2    O4    A    
C22   H28   S    
C23   O7    A    
C27   C33   A    
C32   H5    S    
C12   C68   A    
Cu2   O6    S    
C31   H6    S    
C59   H19   S    
Cu2   O7    S    
C35   C37   A    
C29   H7    S    
C51   H14   S    
C74   N2    S    
C9    C22   A    
C64   N2    A    
C29   C37   A    
C66   C74   A    
C65   C73   A    
C30   C38   A    
C3    C18   A    
C60   C62   A    
C69   C71   A    
C8    H22   S    
C61   H11   S    
Cu2   O2    S    
C2    O2    A    
C11   C67   A    
O14   C76   S    
C65   C67   A    
C76   H40   S    
C73   N1    S    
C42   H10   S    
C30   C32   A    
C6    C46   A    
C1    C27   S    
C48   C50   A    
C28   C34   A    
C63   N1    A    
C41   C43   A    
C66   H25   S    
C46   O10   S    
C52   H13   S    
Cu1   O4    S    
C42   C44   A    
C65   H26   S    
C52   C54   A    
C72   O14   S    
C39   C42   A    
C20   H30   S    
C53   C55   A    
C10   C21   A    
C54   C56   A    
C24   O6    A    
C59   C61   A    
C13   C19   A    
C27   C31   A    
C14   C20   A    
C28   C32   A    
Cu1   O5    S    
C4    C6    A    
C26   H32   S    
C39   C40   A    
C5    C7    A    
C53   C57   A    
C15   C26   A    
C6    C8    A    
C58   C59   A    
C5    C45   A    
C45   O9    S    
C51   C53   A    
C37   C43   A    
C35   C39   A    
Cu1   Cu2   S    
C38   C44   A    
C3    C9    A    
C34   H3    S    
C36   C40   A    
C24   O8    A    
Cu2   N3    S    
C47   H17   S    
Cu1   N4    S    
C51   N3    A    
C48   H18   S    
C67   H24   S    
C4    C17   A    
C19   H29   S    
C72   C74   A    
C40   C41   A    
C20   C22   A    
C76   H38   S    
C56   C62   A    
Cu1   O1    S    
C49   H16   S    
C4    C10   A    
O13   C75   S    
C75   H37   S    
C60   H20   S    
C25   H31   S    
C47   C55   A    
C54   C58   A    
C16   C25   A    
C48   C56   A    
C12   C70   A    
C7    H21   S    
C19   C21   A    
C9    C63   A    
C10   C64   A    
C3    C5    A    
C75   H36   S    
C1    O1    A    
C70   C72   A    
C11   C69   A    
C33   H4    S    
C15   C17   A    
C52   N4    A    
C47   C49   A    
C41   H9    S    
C12   C24   S    
Cu2   O3    S    
C7    C25   A    
C13   C17   A    
C36   C38   A    
C68   H23   S    
C29   C31   A    
C45   N1    A    
C23   O5    A    
C57   C58   A    
C62   H12   S    
C55   C61   A    
C11   C23   S    
C33   C35   A    
C34   C36   A    
C30   H8    S    
C63   O12   S    
C21   H27   S    
C50   H15   S    
C57   C60   A    
C16   C18   A    
C64   O11   S    
C13   C16   A    
C71   C73   A    
C76   H39   S    
C14   C15   A    
C2    C28   S    
C43   H33   S    
C50   N4    A    
C1    O3    A    
C44   H34   S    
