data_mof_unit_42302.cif
_audit_creation_date              2012-12-10T18:20:37-0500
_audit_creation_method            fapswitch 2.2
_symmetry_space_group_name_H-M    P1
_symmetry_Int_Tables_number       1
_space_group_crystal_system       triclinic
_cell_length_a                    14.069661
_cell_length_b                    13.624481
_cell_length_c                    14.952285
_cell_angle_alpha                 89.730349
_cell_angle_beta                  90.229124
_cell_angle_gamma                 82.240586
_cell_volume                      2839.92435132

loop_
_atom_site_label
_atom_site_type_symbol
_atom_type_description
_atom_site_fract_x
_atom_site_fract_y
_atom_site_fract_z
_atom_type_partial_charge
C1    C     C_R   0.500278 0.497301 0.327061 0.860688
C2    C     C_R   0.400808 0.368287 0.948304 0.403857
C3    C     C_R   0.806287 0.440247 0.559379 0.527652
C4    C     C_R   0.193141 0.564818 0.445103 0.582754
C5    C     C_R   0.790511 0.556161 0.439054 -0.097006
C6    C     C_R   0.210610 0.434168 0.552407 -0.116608
C7    C     C_R   0.890738 0.555679 0.436345 0.003878
C8    C     C_R   0.110874 0.430982 0.551727 -0.044367
C9    C     C_R   0.950229 0.493118 0.494598 0.014723
C10   C     C_R   0.051213 0.494563 0.494351 -0.023196
C11   C     C_R   0.908793 0.429025 0.552850 -0.215702
C12   C     C_R   0.499518 0.503373 0.672901 0.861720
C13   C     C_R   0.092593 0.559257 0.436723 -0.132592
C14   C     C_R   0.932430 0.614368 0.374632 -0.297684
C15   C     C_R   0.070486 0.362564 0.604630 -0.178848
C16   C     C_R   0.517664 0.314144 0.499877 0.889071
C17   C     C_R   0.482387 0.685835 0.500471 0.883216
C18   C     C_R   0.032756 0.615297 0.372654 0.464466
C19   C     C_R   0.971535 0.357827 0.603102 0.435784
C20   C     C_1   0.468478 0.789680 0.502410 -0.176269
C21   C     C_1   0.531768 0.210264 0.498186 -0.143072
C22   C     C_2   0.458323 0.982083 0.504470 0.403922
C23   C     C_R   0.494546 0.507535 0.953264 -0.105372
C24   C     C_2   0.541740 0.017845 0.495379 0.402282
C25   C     C_1   0.540067 0.122408 0.496627 -0.036647
C26   C     C_1   0.460123 0.877526 0.503714 -0.049619
C27   C     C_R   0.447771 0.443333 0.812432 -0.249797
C28   C     C_R   0.549301 0.560586 0.187534 -0.240823
C29   C     C_R   0.497033 0.510214 0.768197 -0.195746
C30   C     C_R   0.501427 0.492466 0.231678 -0.174062
C31   C     C_R   0.542300 0.581026 0.814308 0.405137
C32   C     C_R   0.453320 0.424097 0.185356 0.429901
C33   C     C_R   0.540205 0.580869 0.908353 -0.066638
C34   C     C_R   0.497215 0.500856 0.046671 -0.102251
C35   C     C_R   0.453050 0.426326 0.091408 -0.073125
C36   C     C_3   0.564317 0.793376 0.120990 0.092591
C37   C     C_3   0.609254 0.858982 0.186477 -0.764593
C38   C     C_3   0.258473 0.337314 0.890913 0.115306
C39   C     C_3   0.210617 0.267890 0.831527 -0.775747
C40   C     C_3   0.773485 0.436222 0.708603 0.144990
C41   C     C_3   0.734078 0.375432 0.781941 -0.734068
C42   C     C_3   0.212965 0.727928 0.437424 0.150190
C43   C     C_3   0.250515 0.805813 0.378964 -0.741405
C44   C     C_R   0.446621 0.440245 0.904648 -0.036858
C45   C     C_R   0.545284 0.567944 0.095395 -0.037898
C46   C     C_R   0.583247 0.650901 0.959140 0.351281
C47   C     C_R   0.408790 0.357270 0.040618 0.361213
C48   C     C_R   0.586297 0.643572 0.052034 0.412600
H1    H     H_    0.413474 0.390573 0.773817 0.202176
H2    H     H_    0.436110 0.339820 0.288220 0.324375
H3    H     H_    0.569653 0.766719 0.885391 0.352247
H4    H     H_    0.428258 0.240719 0.113840 0.359453
H5    H     H_    0.498709 0.771417 0.152780 0.124226
H6    H     H_    0.543239 0.837277 0.059388 0.171760
H7    H     H_    0.674101 0.883910 0.156549 0.267560
H8    H     H_    0.556997 0.924991 0.202730 0.211055
H9    H     H_    0.629828 0.817229 0.249168 0.251847
H10   H     H_    0.248025 0.412258 0.859174 0.121139
H11   H     H_    0.222627 0.341125 0.957341 0.186608
H12   H     H_    0.585925 0.611353 0.226321 0.196288
H13   H     H_    0.217576 0.192852 0.862206 0.273888
H14   H     H_    0.133304 0.296388 0.823337 0.214620
H15   H     H_    0.245058 0.262854 0.764687 0.243907
H16   H     H_    0.734677 0.512845 0.709594 0.192817
H17   H     H_    0.849944 0.440625 0.724978 0.144544
H18   H     H_    0.778903 0.302079 0.787971 0.262570
H19   H     H_    0.734924 0.414632 0.846840 0.209358
H20   H     H_    0.659391 0.363682 0.766073 0.256069
H21   H     H_    0.245942 0.728709 0.505033 0.127741
H22   H     H_    0.134388 0.749854 0.445361 0.133823
H23   H     H_    0.744309 0.602171 0.392962 0.161983
H24   H     H_    0.211327 0.812445 0.314136 0.271504
H25   H     H_    0.239778 0.878688 0.413021 0.192165
H26   H     H_    0.328088 0.784698 0.365620 0.245430
H27   H     H_    0.021786 0.702449 0.268177 0.332781
H28   H     H_    0.887399 0.257989 0.614255 0.368736
H29   H     H_    0.257223 0.384103 0.595006 0.162514
H30   H     H_    0.886765 0.659226 0.327218 0.151021
H31   H     H_    0.116451 0.309665 0.645246 0.163605
H32   H     H_    0.679650 0.996174 0.479353 0.339626
H33   H     H_    0.320401 0.003683 0.520384 0.333212
H34   H     H_    0.561289 0.662038 0.709428 0.327482
N1    N     N_R   0.750030 0.500040 0.500070 -0.135484
N2    N     N_R   0.249970 0.499960 0.499930 -0.150894
O1    O     O_R   0.580280 0.500020 0.367860 -0.632462
O2    O     O_3   0.373140 0.044831 0.514583 -0.779632
O3    O     O_3   0.590398 0.648217 0.769301 -0.752161
O4    O     O_3   0.403986 0.357882 0.230281 -0.722907
O5    O     O_3   0.621983 0.728304 0.920612 -0.674509
O6    O     O_3   0.374745 0.276498 0.078224 -0.679725
O7    O     O_3   0.631861 0.710103 0.100587 -0.576212
O8    O     O_3   0.356814 0.300609 0.899822 -0.581629
O9    O     O_3   0.761623 0.391128 0.624794 -0.598878
O10   O     O_3   0.235513 0.633887 0.396857 -0.535723
O11   O     O_3   0.073177 0.668081 0.307091 -0.731297
O12   O     O_R   0.419720 0.499980 0.632140 -0.632138
O13   O     O_3   0.940199 0.280587 0.649224 -0.758668
O14   O     O_R   0.419730 0.500030 0.367840 -0.548969
O15   O     O_R   0.580270 0.499970 0.632160 -0.580894
O16   O     O_R   0.591830 0.359650 0.500030 -0.581203
O17   O     O_R   0.408170 0.640350 0.499970 -0.608356
O18   O     O_R   0.431280 0.359660 0.500010 -0.605935
O19   O     O_R   0.568720 0.640340 0.499990 -0.604769
O20   O     O_3   0.626871 0.955063 0.485046 -0.780925
Zn1   Zn    Zn3+2 0.607200 0.499990 0.500020 0.992676
Zn2   Zn    Zn3+2 0.392800 0.500010 0.499980 0.995335

loop_
_geom_bond_atom_site_label_1
_geom_bond_atom_site_label_2
_ccdc_geom_bond_type
C43   H25   S    
C43   H24   S    
C18   O11   S    
C12   C29   S    
C27   C29   A    
C14   C18   A    
H4    O6    S    
C3    C11   A    
C40   O9    S    
C35   C47   A    
C19   O13   S    
H27   O11   S    
C41   H19   S    
C46   O5    S    
C15   C19   A    
C11   C19   A    
O16   Zn1   S    
C16   C21   S    
C13   C18   A    
H32   O20   S    
C36   C37   S    
C38   C39   S    
C5    N1    A    
H34   O3    S    
C32   O4    S    
C38   O8    S    
C42   H22   S    
C17   C20   S    
C34   C35   A    
C4    C13   A    
C17   O17   A    
C12   O15   A    
O12   Zn2   S    
C36   H5    S    
C38   H10   S    
C37   H8    S    
C27   C44   A    
C7    C14   A    
C15   H31   S    
C2    C44   A    
C23   C33   A    
C48   O7    S    
N2    Zn2   S    
C31   C33   A    
C9    C10   A    
H33   O2    S    
H2    O4    S    
C43   H26   S    
C22   O2    S    
C33   C46   A    
O1    Zn1   S    
C41   H20   S    
C28   H12   S    
C1    O1    A    
C39   H13   S    
C46   C48   A    
C28   C45   A    
C6    N2    A    
C32   C35   A    
C31   O3    S    
C24   C25   S    
C3    O9    S    
C5    C7    A    
C16   O16   A    
C6    H29   S    
C6    C8    A    
H28   O13   S    
C42   H21   S    
C23   C44   A    
N1    Zn1   S    
C24   O20   S    
C4    N2    A    
C23   C34   A    
O19   Zn1   S    
C34   C45   A    
C2    O8    S    
C9    C11   A    
C4    O10   S    
C36   O7    S    
C16   O18   A    
C40   C41   S    
C8    C15   A    
C40   H17   S    
C3    N1    A    
C47   O6    S    
C22   C24   D    
C42   C43   S    
C45   C48   A    
O17   Zn2   S    
C7    C9    A    
C39   H14   S    
C21   C25   T    
C42   O10   S    
C8    C10   A    
C10   C13   A    
O14   Zn2   S    
C1    O14   A    
C41   H18   S    
C2    C47   A    
C39   H15   S    
C40   H16   S    
C28   C30   A    
C17   O19   A    
C29   C31   A    
H3    O5    S    
C30   C32   A    
C20   C26   T    
C1    C30   S    
O18   Zn2   S    
C14   H30   S    
O15   Zn1   S    
C36   H6    S    
C38   H11   S    
C37   H7    S    
C5    H23   S    
C22   C26   S    
C12   O12   A    
C37   H9    S    
C27   H1    S    
