data_mof_unit_33318.cif
_audit_creation_date              2013-03-05T16:00:38-0500
_audit_creation_method            fapswitch 2.2
_symmetry_space_group_name_H-M    P1
_symmetry_Int_Tables_number       1
_space_group_crystal_system       triclinic
_cell_length_a                    8.498584
_cell_length_b                    12.926304
_cell_length_c                    19.161337
_cell_angle_alpha                 100.768184
_cell_angle_beta                  91.286256
_cell_angle_gamma                 97.932063
_cell_volume                      2045.60515301

loop_
_atom_site_label
_atom_site_type_symbol
_atom_site_description
_atom_site_fract_x
_atom_site_fract_y
_atom_site_fract_z
_atom_type_partial_charge
P1    P     P_3+3 0.042930 0.392230 0.337410 0.439690
O1    O     O_2   0.875110 0.423180 0.326290 -0.359416
O2    O     O_3   0.123410 0.433040 0.414950 -0.422340
O3    O     O_3   0.661010 0.625070 0.369680 -0.386801
O4    O     O_2   0.718159 0.503587 0.249563 -0.400879
O5    O     O_3   0.999336 0.254452 0.325611 -0.600456
O6    O     O_3   0.720382 0.699741 0.238610 -0.485190
H1    H     H_    0.705439 0.835781 0.311930 0.077758
C1    C     C_3   0.664110 0.859008 0.204263 -1.030223
H2    H     H_    0.791838 0.883194 0.196072 0.270074
H3    H     H_    0.605312 0.813489 0.153221 0.276179
P2    P     P_3+3 0.672230 0.754900 0.555730 0.427900
P3    P     P_3+3 0.131567 0.822398 0.412428 0.471420
O7    O     O_2   0.847800 0.768730 0.534310 -0.349048
O8    O     O_3   0.082250 0.684470 0.405440 -0.383101
O9    O     O_2   0.006860 0.874200 0.458486 -0.363974
O10   O     O_3   0.721104 0.780219 0.647356 -0.623151
O11   O     O_3   0.085386 0.847179 0.328217 -0.463292
C2    C     C_3   0.201106 0.812718 0.281803 0.422673
H4    H     H_    0.225697 0.732110 0.286637 0.060914
H5    H     H_    0.311907 0.870973 0.292801 0.026958
C3    C     C_3   0.141400 0.805997 0.205396 -0.941848
H6    H     H_    0.034598 0.744570 0.192258 0.290007
H7    H     H_    0.110265 0.883780 0.197780 0.236802
C4    C     C_3   0.173928 0.797465 0.629847 0.414203
H8    H     H_    0.294479 0.812077 0.611761 0.013925
H9    H     H_    0.095635 0.751738 0.584759 0.163522
C5    C     C_3   0.119899 0.905031 0.654060 -0.937199
H10   H     H_    0.196275 0.951802 0.700084 0.241569
H11   H     H_    0.128796 0.949325 0.609772 0.260360
H12   H     H_    0.995352 0.894876 0.670375 0.264745
Ba1   Ba    Ba6+2 0.853180 0.547790 0.465300 1.525480
C6    C     C_3   0.135041 0.212175 0.300960 0.214657
H13   H     H_    0.235826 0.244668 0.339748 0.155104
H14   H     H_    0.164280 0.231686 0.248198 -0.040382
C7    C     C_3   0.106161 0.091420 0.291791 0.234120
H15   H     H_    0.021573 0.056620 0.245425 0.027187
H16   H     H_    0.219995 0.061687 0.277634 0.085923
C8    C     C_3   0.586920 0.786881 0.688739 1.090696
H17   H     H_    0.481659 0.736617 0.659747 0.060636
C9    C     C_3   0.552174 0.901111 0.706001 -1.122382
H18   H     H_    0.658535 0.956328 0.730296 0.288045
H19   H     H_    0.453960 0.907338 0.743074 0.267511
H20   H     H_    0.516439 0.924469 0.656290 0.201402
P4    P     P_3+3 0.146790 0.607860 0.662600 0.454589
O12   O     O_2   0.314600 0.576860 0.673750 -0.335785
O13   O     O_3   0.066300 0.567050 0.585060 -0.459466
O14   O     O_3   0.528700 0.375020 0.630330 -0.373944
O15   O     O_3   0.179832 0.746977 0.688110 -0.576341
P5    P     P_3+3 0.053795 0.175968 0.591120 0.417455
O16   O     O_3   0.611760 0.365720 0.463870 -0.407320
O17   O     O_3   0.107460 0.315620 0.594570 -0.392951
O18   O     O_2   0.188833 0.121583 0.553775 -0.379788
O19   O     O_3   0.067969 0.154170 0.678541 -0.607419
Ba2   Ba    Ba6+2 0.336650 0.452300 0.534710 1.534454
P6    P     P_3+3 0.626484 0.596535 0.276699 0.441464
C10   C     C_3   0.647047 0.790505 0.260871 0.518869
H21   H     H_    0.518017 0.771514 0.268537 -0.041435
H22   H     H_    0.606692 0.931194 0.221020 0.212165
O20   O     O_3   0.577950 0.634370 0.536140 -0.411089
C11   C     C_3   0.600599 0.242499 0.312273 0.366030
H23   H     H_    0.599944 0.329236 0.327237 0.134951
H24   H     H_    0.717592 0.221615 0.325021 0.125412
C12   C     C_3   0.566940 0.210364 0.232329 -1.036427
H25   H     H_    0.450626 0.232132 0.217467 0.238886
H26   H     H_    0.661500 0.252401 0.204465 0.252102
H27   H     H_    0.564590 0.123237 0.215230 0.258539
P7    P     P_3+3 0.516900 0.229152 0.439216 0.406229
O21   O     O_2   0.341900 0.231310 0.465740 -0.329056
O22   O     O_3   0.484253 0.187093 0.347064 -0.615847
H28   H     H_    0.235430 0.783992 0.168510 0.211688
C13   C     C_3   0.916250 0.151812 0.706818 0.204404
H29   H     H_    0.863013 0.223549 0.700454 0.112414
H30   H     H_    0.838484 0.078694 0.680344 0.087763
C14   C     C_3   0.927158 0.146829 0.785553 0.127570
H31   H     H_    0.002270 0.220737 0.814137 0.096853
H32   H     H_    0.982411 0.075170 0.790878 0.086676
P8    P     P_3+3 0.580809 0.419248 0.721657 0.471234
C15   C     C_3   0.424703 0.243912 0.746244 1.013231
O23   O     O_2   0.539006 0.533128 0.740733 -0.355502
O24   O     O_3   0.471027 0.350539 0.779181 -0.612644
H33   H     H_    0.325933 0.245415 0.707663 0.063588
H34   H     H_    0.420076 0.103642 0.796501 0.208661
C16   C     C_3   0.362719 0.176973 0.801519 -0.472423
H35   H     H_    0.235256 0.149486 0.789649 0.147246
C17   C     C_R   0.072954 0.555959 0.800234 -0.340969
H36   H     H_    0.169821 0.617273 0.822602 0.159027
C18   C     C_R   0.029638 0.545345 0.726890 0.342936
C19   C     C_R   0.858721 0.415835 0.806605 -0.332543
H37   H     H_    0.800084 0.350210 0.828021 0.179494
C20   C     C_R   0.793408 0.433769 0.742488 0.285573
C21   C     C_R   0.343986 0.569635 0.186580 -0.357509
H38   H     H_    0.397191 0.638011 0.166294 0.150354
C22   C     C_R   0.415907 0.548102 0.247856 0.186248
C23   C     C_R   0.124711 0.433434 0.194984 -0.359614
H39   H     H_    0.021496 0.376538 0.174180 0.142154
C24   C     C_R   0.170886 0.442975 0.268080 0.286603
C25   C     C_R   0.993303 0.485098 0.842316 0.081690
C26   C     C_R   0.884613 0.490424 0.700875 -0.406158
H40   H     H_    0.836285 0.498506 0.649683 0.163988
C27   C     C_R   0.208569 0.501433 0.151617 0.130636
C28   C     C_R   0.325108 0.489182 0.290124 -0.172371
C29   C     C_R   0.773214 0.432969 0.960127 -0.114443
C30   C     C_R   0.672655 0.400486 0.010576 -0.176001
C31   C     C_R   0.721656 0.426217 0.081377 -0.085363
C32   C     C_R   0.874875 0.476905 0.100306 -0.075828
C33   C     C_R   0.991837 0.479921 0.049426 0.045535
C34   C     C_R   0.938629 0.465141 0.975519 0.108019
C35   C     C_R   0.155583 0.502763 0.072601 -0.038753
C36   C     C_R   0.264782 0.524016 0.018649 0.030787
C37   C     C_R   0.212499 0.511723 0.944851 0.068877
C38   C     C_R   0.047870 0.485341 0.921264 -0.065812
C39   C     C_R   0.428890 0.557901 0.035346 -0.329410
C40   C     C_R   0.531192 0.599307 0.988656 0.670993
C41   C     C_R   0.484020 0.574362 0.916416 -0.304197
C42   C     C_R   0.331715 0.522036 0.895218 -0.155272
H41   H     H_    0.712370 0.440341 0.912499 0.136810
H42   H     H_    0.548966 0.371013 0.996407 0.131829
H43   H     H_    0.636734 0.414639 0.121400 0.142032
H44   H     H_    0.901489 0.513493 0.155193 0.180536
H45   H     H_    0.487775 0.547303 0.082458 0.174549
H46   H     H_    0.566995 0.588466 0.876220 0.185327
H47   H     H_    0.309217 0.490627 0.839289 0.207629
C43   C     C_R   0.757928 0.176180 0.520972 -0.202359
C44   C     C_R   0.415769 0.822441 0.490881 -0.503900
C45   C     C_R   0.404667 0.981383 0.444377 -0.200930
C46   C     C_R   0.334295 0.880132 0.451506 0.208200
C47   C     C_R   0.574459 0.854233 0.515271 0.219334
C48   C     C_R   0.645626 0.959372 0.510668 -0.032712
C49   C     C_R   0.555704 0.024940 0.477208 -0.097515
C50   C     C_R   0.615629 0.134172 0.481751 0.167711
C51   C     C_R   0.856039 0.112144 0.546116 0.175822
C52   C     C_R   0.798275 0.003994 0.542131 -0.272944
H48   H     H_    0.337439 0.026883 0.416047 0.210280
H49   H     H_    0.868186 0.958443 0.568628 0.198169
H50   H     H_    0.352369 0.751915 0.504237 0.120140
O25   O     O_3   0.060221 0.059261 0.355900 -0.566477
C53   C     C_3   0.893159 0.045651 0.360297 0.082077
H51   H     H_    0.825816 0.016887 0.308561 0.061250
H52   H     H_    0.855304 0.120893 0.386328 0.080293
H53   H     H_    0.858460 0.986392 0.393891 0.154189
O26   O     O_3   0.607911 0.749188 0.752873 -0.606052
C54   C     C_3   0.765660 0.777034 0.782292 -0.095822
H54   H     H_    0.811509 0.862682 0.785786 0.114053
H55   H     H_    0.845944 0.726678 0.751540 0.152890
H56   H     H_    0.767536 0.761422 0.836954 0.108620
O27   O     O_3   0.773441 0.138337 0.812224 -0.577005
C55   C     C_3   0.785009 0.132829 0.884925 -0.256959
H57   H     H_    0.844617 0.209465 0.916783 0.143044
H58   H     H_    0.848130 0.066390 0.894021 0.130631
H59   H     H_    0.663565 0.117276 0.904054 0.174656
O28   O     O_3   0.553889 0.199328 0.713581 -0.645079
C56   C     C_3   0.499292 0.130764 0.649257 -0.314455
H60   H     H_    0.472039 0.176873 0.608469 0.219125
H61   H     H_    0.393414 0.073222 0.655732 0.163601
H62   H     H_    0.594819 0.085600 0.630629 0.167298
N1    N     N_2   0.389618 0.236145 0.873865 -0.061057
H63   H     H_    0.509040 0.254109 0.889217 0.222167
C57   C     C_3   0.292835 0.191914 0.925577 -0.914481
H64   H     H_    0.328717 0.238117 0.979842 0.239545
H65   H     H_    0.307676 0.106835 0.923761 0.246997
H66   H     H_    0.165012 0.197665 0.914874 0.246987
N2    N     N_2   0.375384 0.496360 0.361628 -0.097803
H67   H     H_    0.478332 0.466685 0.370868 0.200492
C58   C     C_3   0.356421 0.597464 0.404706 -0.548629
H68   H     H_    0.461895 0.631199 0.435311 0.235238
H69   H     H_    0.269389 0.590400 0.445587 0.256818
H70   H     H_    0.336957 0.657563 0.372386 0.141538
O29   O     O_3   0.683844 0.644972 0.015767 -0.603206
C59   C     C_3   0.761385 0.713569 0.974177 -0.269302
H71   H     H_    0.681756 0.767355 0.957897 0.133528
H72   H     H_    0.811869 0.666738 0.927623 0.143916
H73   H     H_    0.862698 0.764588 0.006701 0.180498
N3    N     N_2   0.804529 0.286281 0.534604 -0.106396
H74   H     H_    0.829432 0.319992 0.587378 0.157297
C60   C     C_3   0.915801 0.319010 0.485088 -0.463315
H75   H     H_    0.975223 0.398917 0.508763 0.274183
H76   H     H_    0.853551 0.317830 0.434215 0.216737
H77   H     H_    0.007073 0.265390 0.472732 0.226882

loop_
_geom_bond_atom_site_label_1
_geom_bond_atom_site_label_2
_geom_bond_distance
_ccdc_geom_bond_type
C11   O22   1.395552 S    
O14   Ba2   2.831687 S    
C9    H18   1.105489 S    
N1    H63   1.032736 S    
C42   H47   1.075490 S    
C54   H56   1.103244 S    
C33   C35   1.425069 A    
O29   C59   1.407824 S    
O4    P6    1.537533 D    
C31   C32   1.382368 A    
C23   H39   1.079781 S    
C55   H59   1.107816 S    
C47   C48   1.428624 A    
P8    O23   1.541373 D    
C40   C41   1.397613 A    
O8    Ba1   2.852223 S    
C8    C9    1.522860 S    
C58   H68   1.053814 S    
P4    O12   1.554398 D    
C4    C5    1.517926 S    
P6    C22   1.848560 S    
P5    O19   1.754013 S    
P3    O11   1.749217 S    
H34   C16   1.113984 S    
C5    H10   1.109656 S    
N2    C58   1.440936 S    
C55   H58   1.111124 S    
O11   C2    1.403109 S    
P1    O2    1.586041 S    
C15   C16   1.545849 S    
C17   C18   1.421332 A    
C43   N3    1.396946 S    
C59   H71   1.113584 S    
C45   C49   1.411489 A    
C27   C35   1.573752 S    
C54   H54   1.110898 S    
C6    C7    1.522307 S    
C43   C51   1.390687 A    
O1    Ba1   2.868108 S    
P1    O1    1.554118 D    
O10   C8    1.406707 S    
O14   P8    1.762606 S    
C11   H24   1.099518 S    
N3    H74   1.028371 S    
O27   C55   1.410028 S    
C6    H14   1.112084 S    
C36   C37   1.445888 A    
N2    H67   1.027136 S    
O2    Ba2   2.843838 S    
C60   H77   1.110607 S    
C2    H4    1.110516 S    
C28   N2    1.408420 S    
C4    O15   1.397694 S    
O12   Ba2   2.868491 S    
C44   C47   1.397527 A    
P5    O17   1.788269 S    
C33   C34   1.446661 A    
C57   H65   1.118376 S    
C37   C42   1.414957 A    
C56   H61   1.110445 S    
C7    O25   1.414847 S    
Ba1   Ba2   4.684297 S    
O16   Ba2   2.976323 S    
C24   C28   1.384849 A    
O17   Ba2   2.852843 S    
C11   H23   1.104967 S    
C60   H76   1.095164 S    
N1    C57   1.450442 S    
C41   H46   1.079409 S    
Ba2   O20   2.895928 S    
O3    P6    1.759975 S    
C9    H19   1.109767 S    
C29   H41   1.065005 S    
O6    P6    1.745092 S    
C13   C14   1.523323 S    
C30   C31   1.375620 A    
C30   H42   1.077884 S    
P4    O13   1.586069 S    
P5    O18   1.547545 D    
C25   C38   1.571576 S    
P1    O5    1.738929 S    
C12   H27   1.109839 S    
P4    C18   1.834886 S    
C55   H57   1.110069 S    
C13   H30   1.104903 S    
P1    C24   1.889758 S    
C8    H17   1.101548 S    
C15   O24   1.402510 S    
C17   H36   1.080146 S    
P7    O21   1.584648 D    
C14   O27   1.411101 S    
C4    H8    1.091968 S    
P1    Ba1   3.446756 S    
C34   C38   1.445230 A    
C43   C50   1.395561 A    
C1    H22   1.110243 S    
C12   H26   1.110542 S    
P2    O10   1.754155 S    
P7    C50   1.871681 S    
C14   H31   1.113834 S    
Ba1   O16   2.896537 S    
H1    C10   1.109080 S    
C14   H32   1.114516 S    
C40   O29   1.394691 S    
C57   H64   1.110990 S    
C8    O26   1.420312 S    
P4    O15   1.754298 S    
C2    C3    1.521665 S    
C21   C22   1.402318 A    
C6    H13   1.103592 S    
C57   H66   1.116083 S    
C39   H45   1.062529 S    
Ba2   O21   2.921598 S    
C16   H35   1.097236 S    
C56   H62   1.092376 S    
C44   C46   1.390721 A    
C1    H3    1.111016 S    
C36   C39   1.413636 A    
C45   H48   1.079422 S    
O3    Ba1   2.832312 S    
P5    C51   1.880219 S    
C21   C27   1.419563 A    
C48   C52   1.416884 A    
C44   H50   1.069902 S    
P7    O22   1.751599 S    
C60   H75   1.094696 S    
P2    O7    1.551793 D    
C58   H70   1.106828 S    
P3    O8    1.753388 S    
Ba1   O13   2.843219 S    
C3    H7    1.108489 S    
C19   C20   1.408031 A    
Ba1   O20   2.977185 S    
C7    H16   1.110256 S    
C19   H37   1.076524 S    
C3    H28   1.109962 S    
O13   Ba2   2.985842 S    
C39   C40   1.388589 A    
C1    H2    1.110418 S    
C54   H55   1.110736 S    
C7    H15   1.114081 S    
C37   C38   1.435410 A    
C32   H44   1.074648 S    
C3    H6    1.110783 S    
C5    H12   1.107776 S    
O7    Ba1   2.921403 S    
C13   H29   1.111313 S    
C53   H53   1.103858 S    
C15   H33   1.110628 S    
C16   N1    1.449228 S    
C23   C24   1.424214 A    
P2    C47   1.891458 S    
P8    C20   1.817986 S    
C4    H9    1.101520 S    
O25   C53   1.412733 S    
O5    C6    1.397786 S    
C19   C25   1.425239 A    
C12   H25   1.109727 S    
C53   H52   1.100251 S    
C49   C50   1.419234 A    
C48   C49   1.439868 A    
C26   H40   1.083434 S    
C11   C12   1.520083 S    
P8    O24   1.748571 S    
C10   H21   1.109374 S    
C59   H72   1.110552 S    
C45   C46   1.394183 A    
C5    H11   1.107328 S    
C21   H38   1.078284 S    
C9    H20   1.100225 S    
C51   C52   1.403636 A    
C1    C10   1.520588 S    
O16   P7    1.807735 S    
O2    Ba1   2.984981 S    
C17   C25   1.441093 A    
N3    C60   1.432938 S    
C18   C26   1.367567 A    
C53   H51   1.107517 S    
P3    C46   1.861291 S    
C23   C27   1.448313 A    
O19   C13   1.408445 S    
O28   C56   1.404483 S    
P4    Ba2   3.447282 S    
C58   H69   1.096879 S    
C32   C33   1.409631 A    
P3    O9    1.538672 D    
C29   C30   1.389535 A    
C52   H49   1.073410 S    
O26   C54   1.414822 S    
C31   H43   1.081355 S    
C29   C34   1.417878 A    
C20   C26   1.364608 A    
C56   H60   1.106224 S    
C35   C36   1.443711 A    
O6    C10   1.404855 S    
P2    O20   1.622872 S    
P2    Ba1   3.472327 S    
C41   C42   1.389242 A    
C22   C28   1.388468 A    
C15   O28   1.414176 S    
C2    H5    1.110970 S    
C59   H73   1.109180 S    
