data_mof_unit_46135.cif
_audit_creation_date              2012-12-10T18:11:45-0500
_audit_creation_method            fapswitch 2.2
_symmetry_space_group_name_H-M    P1
_symmetry_Int_Tables_number       1
_space_group_crystal_system       triclinic
_cell_length_a                    10.488425
_cell_length_b                    12.621063
_cell_length_c                    13.105025
_cell_angle_alpha                 82.174795
_cell_angle_beta                  90.667955
_cell_angle_gamma                 102.797078
_cell_volume                      1675.62763714

loop_
_atom_site_label
_atom_site_type_symbol
_atom_type_description
_atom_site_fract_x
_atom_site_fract_y
_atom_site_fract_z
_atom_type_partial_charge
C1    C     C_R   0.479757 0.438692 0.691247 0.858151
C2    C     C_R   0.458981 0.446214 0.973704 0.040346
C3    C     C_R   0.429497 0.466803 0.869190 0.057184
C4    C     C_R   0.742453 0.501012 0.500310 0.860385
C5    C     C_R   0.459271 0.529264 0.035835 0.052126
C6    C     C_R   0.407545 0.622202 0.999020 0.151992
C7    C     C_R   0.358034 0.632348 0.898968 0.063183
C8    C     C_R   0.369834 0.554901 0.835001 -0.235082
C9    C     C_R   0.513707 0.523322 0.133134 -0.246839
C10   C     C_R   0.449209 0.688249 0.164665 -0.223754
C11   C     C_R   0.461989 0.399131 0.801099 -0.127704
C12   C     C_3   0.063219 0.579060 0.427185 -0.176458
C13   C     C_R   0.321185 0.088652 0.344751 -0.302005
C14   C     C_R   0.652573 0.799207 0.631221 0.024569
C15   C     C_R   0.683406 0.903266 0.660788 -0.245870
C16   C     C_R   0.512763 0.561119 0.308622 0.855338
C17   C     C_R   0.625301 0.984792 0.611392 -0.195131
C18   C     C_R   0.535690 0.962313 0.531504 0.017063
C19   C     C_R   0.507655 0.854711 0.504303 0.236310
C20   C     C_R   0.472991 0.041728 0.477806 -0.016216
C21   C     C_R   0.383786 0.011810 0.398636 0.197026
C22   C     C_R   0.358153 0.905656 0.373649 -0.295182
C23   C     C_3   0.987880 0.599137 0.520602 -0.133554
C24   C     C_R   0.419503 0.828511 0.425652 -0.214951
C25   C     C_R   0.495177 0.150446 0.498850 -0.049900
C26   C     C_R   0.347511 0.194559 0.369301 0.004873
C27   C     C_R   0.257597 0.499014 0.499771 0.841799
C28   C     C_3   0.937077 0.421271 0.573001 -0.178008
C29   C     C_3   0.049323 0.517784 0.592981 -0.178895
C30   C     C_3   0.121929 0.497720 0.499567 0.035218
C31   C     C_3   0.012365 0.401180 0.479574 -0.135860
C32   C     C_3   0.950972 0.482552 0.407191 -0.177037
C33   C     C_3   0.878286 0.502545 0.500600 0.025567
C34   C     C_R   0.405666 0.702295 0.063879 -0.188255
C35   C     C_R   0.499936 0.596589 0.199695 -0.047420
C36   C     C_R   0.493820 0.299138 0.839539 -0.238786
C37   C     C_R   0.501924 0.269252 0.945543 0.166381
C38   C     C_R   0.487316 0.343423 0.011996 -0.201285
H1    H     H_    0.094070 0.531793 0.668577 0.124095
H2    H     H_    0.880984 0.357369 0.632458 0.128625
H3    H     H_    0.652325 0.063978 0.637428 0.130890
H4    H     H_    0.751936 0.920673 0.721952 0.147929
H5    H     H_    0.396290 0.748783 0.402415 0.208016
H6    H     H_    0.026349 0.320550 0.462847 0.143866
H7    H     H_    0.906236 0.468607 0.331585 0.133061
H8    H     H_    0.119490 0.642984 0.367810 0.126761
H9    H     H_    0.973955 0.679783 0.537329 0.143478
H10   H     H_    0.437723 0.745909 0.216019 0.151180
H11   H     H_    0.366499 0.773756 0.038476 0.160091
H12   H     H_    0.564043 0.459406 0.160802 0.146442
H13   H     H_    0.494904 0.317262 0.093347 0.142579
H14   H     H_    0.534982 0.118642 0.927993 0.179087
H15   H     H_    0.622596 0.181644 0.019228 0.177948
H16   H     H_    0.279546 0.723777 0.783122 0.189710
H17   H     H_    0.208911 0.709126 0.899841 0.173380
H18   H     H_    0.515894 0.245906 0.787149 0.148172
H19   H     H_    0.329635 0.562961 0.758654 0.161143
H20   H     H_    0.300505 0.255347 0.328210 0.135300
H21   H     H_    0.290493 0.882060 0.313263 0.149089
H22   H     H_    0.253044 0.067086 0.284161 0.146507
H23   H     H_    0.561294 0.180971 0.556964 0.122968
H24   H     H_    0.697066 0.735377 0.669552 0.137862
N1    N     N_R   0.432930 0.222190 0.444670 -0.101365
N2    N     N_R   0.566370 0.776980 0.554790 -0.131198
N3    N     N_3   0.529801 0.165714 0.986978 -0.460144
N4    N     N_3   0.299209 0.722583 0.861645 -0.464516
O1    O     O_R   0.467970 0.366730 0.627150 -0.614936
O2    O     O_R   0.510820 0.544830 0.662520 -0.615558
O3    O     O_R   0.664630 0.410960 0.482340 -0.618814
O4    O     O_R   0.707470 0.589060 0.517710 -0.624267
O5    O     O_R   0.489180 0.455170 0.337480 -0.615068
O6    O     O_R   0.532030 0.633270 0.372850 -0.632597
O7    O     O_R   0.292530 0.410940 0.482290 -0.620489
O8    O     O_R   0.335370 0.589040 0.517660 -0.642771
Zn1   Zn    Zn3+2 0.471390 0.381080 0.476380 0.932788
Zn2   Zn    Zn3+2 0.528610 0.618920 0.523620 0.921430

loop_
_geom_bond_atom_site_label_1
_geom_bond_atom_site_label_2
_ccdc_geom_bond_type
C32   H7    S    
C16   O6    A    
O6    Zn2   S    
C4    O4    A    
C7    C8    A    
C13   H22   S    
C12   C23   S    
C28   C29   S    
C37   C38   A    
O8    Zn2   S    
C23   C29   S    
C36   C37   A    
C10   H10   S    
C16   C35   S    
C5    C6    A    
C20   C25   A    
C28   H2    S    
C14   H24   S    
C1    O2    A    
C18   C19   A    
C25   N1    A    
C23   C33   S    
C37   N3    S    
C10   C35   A    
C27   O8    A    
H15   N3    S    
C21   C22   A    
C12   C32   S    
C27   C30   S    
O7    Zn1   S    
C16   O5    A    
C4    O3    A    
C23   H9    S    
C31   H6    S    
C12   H8    S    
C3    C8    A    
C22   H21   S    
C38   H13   S    
C6    C34   A    
C26   N1    A    
C5    C9    A    
C29   C30   S    
C36   H18   S    
C8    H19   S    
C2    C38   A    
C31   C32   S    
C19   N2    A    
C14   N2    A    
C29   H1    S    
C17   C18   A    
N2    Zn2   S    
C13   C21   A    
C10   C34   A    
C25   H23   S    
C26   H20   S    
C28   C33   S    
O4    Zn2   S    
C22   C24   A    
C13   C26   A    
C2    C5    A    
O1    Zn1   S    
H17   N4    S    
C15   C17   A    
C4    C33   S    
C11   C36   A    
C34   H11   S    
C12   C30   S    
C19   C24   A    
C28   C31   S    
C9    H12   S    
C15   H4    S    
C6    C7    A    
H16   N4    S    
O2    Zn2   S    
C32   C33   S    
C2    C3    A    
C7    N4    S    
O5    Zn1   S    
C30   C31   S    
N1    Zn1   S    
C1    O1    A    
O3    Zn1   S    
C18   C20   A    
C17   H3    S    
C3    C11   A    
C20   C21   A    
C9    C35   A    
C24   H5    S    
C14   C15   A    
C1    C11   S    
C27   O7    A    
H14   N3    S    
