data_mof_unit_45149.cif
_audit_creation_date              2012-12-11T15:37:20-0500
_audit_creation_method            fapswitch 2.2
_symmetry_space_group_name_H-M    P1
_symmetry_Int_Tables_number       1
_space_group_crystal_system       triclinic
_cell_length_a                    17.526961
_cell_length_b                    24.682572
_cell_length_c                    14.938084
_cell_angle_alpha                 90.031952
_cell_angle_beta                  126.725854
_cell_angle_gamma                 89.961231
_cell_volume                      5179.62766591

loop_
_atom_site_label
_atom_site_type_symbol
_atom_type_description
_atom_site_fract_x
_atom_site_fract_y
_atom_site_fract_z
_atom_type_partial_charge
C1    C     C_R   0.817325 0.634327 0.907840 -0.021919
C2    C     C_R   0.147541 0.347869 0.091882 -0.080993
C3    C     C_R   0.147522 0.652083 0.092022 -0.081644
C4    C     C_R   0.817058 0.365976 0.907861 -0.025482
C5    C     C_R   0.318026 0.134978 0.907437 -0.069476
C6    C     C_R   0.646619 0.847718 0.092200 -0.112790
C7    C     C_R   0.648143 0.151933 0.091876 -0.069974
C8    C     C_R   0.317311 0.865704 0.907685 -0.041403
C9    C     C_3   0.422015 0.500019 0.346250 0.152482
C10   C     C_3   0.591043 0.500012 0.539852 0.092782
C11   C     C_3   0.922137 0.999864 0.345603 0.146568
C12   C     C_3   0.091673 0.999917 0.538610 0.093489
C13   C     C_R   0.671024 0.316199 0.941173 -0.402108
C14   C     C_R   0.267635 0.724632 0.070951 -0.384373
C15   C     C_R   0.267331 0.278321 0.062722 -0.377329
C16   C     C_R   0.671124 0.683250 0.942554 -0.401136
C17   C     C_R   0.171060 0.816094 0.940704 -0.390779
C18   C     C_R   0.768401 0.224698 0.070784 -0.389350
C19   C     C_R   0.766444 0.776191 0.067535 -0.317584
C20   C     C_R   0.173516 0.182592 0.949832 -0.269749
C21   C     C_R   0.119219 0.772756 0.936697 0.857216
C22   C     C_R   0.819339 0.267551 0.074770 0.842642
C23   C     C_R   0.818250 0.733733 0.071562 0.829531
C24   C     C_R   0.120950 0.225738 0.945052 0.853765
C25   C     C_R   0.619574 0.272502 0.936671 0.847396
C26   C     C_R   0.318943 0.767120 0.074407 0.842176
C27   C     C_R   0.319272 0.236004 0.066569 0.817330
C28   C     C_R   0.618802 0.726399 0.938420 0.851039
C29   C     C_R   0.168441 0.727371 0.002041 -0.227221
C30   C     C_R   0.770426 0.313008 0.009222 -0.218048
C31   C     C_R   0.770336 0.687536 0.008544 -0.220791
C32   C     C_R   0.168809 0.273216 0.001518 -0.244293
C33   C     C_R   0.669209 0.227096 0.001646 -0.228584
C34   C     C_R   0.270430 0.812563 0.008616 -0.210932
C35   C     C_R   0.271941 0.188594 0.009045 -0.209762
C36   C     C_R   0.667387 0.772465 0.001357 -0.193661
C37   C     C_R   0.113565 0.451159 0.635898 0.604043
C38   C     C_R   0.118268 0.548881 0.546556 0.607649
C39   C     C_R   0.118300 0.451094 0.546463 0.603693
C40   C     C_R   0.113585 0.548786 0.636033 0.603933
C41   C     C_R   0.485973 0.969489 0.539407 0.592695
C42   C     C_R   0.632018 0.026666 0.555893 0.620304
C43   C     C_R   0.490000 0.969489 0.451259 0.616479
C44   C     C_R   0.628543 0.026258 0.645969 0.634668
C45   C     C_R   0.107296 0.499997 0.491135 -0.502821
C46   C     C_R   0.096757 0.499969 0.670096 -0.500233
C47   C     C_R   0.562712 0.997986 0.459703 -0.585259
C48   C     C_R   0.555712 0.997364 0.636936 -0.583950
C49   C     C_R   0.908763 0.373522 0.095267 0.007885
C50   C     C_R   0.057465 0.649638 0.906136 0.007813
C51   C     C_R   0.057173 0.350299 0.906031 0.017272
C52   C     C_R   0.909218 0.627154 0.095307 0.012096
C53   C     C_R   0.409039 0.872937 0.095081 0.014247
C54   C     C_R   0.558305 0.149239 0.905828 -0.054396
C55   C     C_R   0.556520 0.850004 0.906276 -0.090007
C56   C     C_R   0.409981 0.128180 0.095183 -0.019977
C57   C     C_R   0.053224 0.545299 0.307007 -0.093035
C58   C     C_R   0.017800 0.454295 0.749975 -0.105789
C59   C     C_R   0.017731 0.545667 0.749926 -0.103501
C60   C     C_R   0.053315 0.454726 0.307021 -0.097317
C61   C     C_R   0.546947 0.045380 0.303867 -0.075044
C62   C     C_R   0.519510 0.953827 0.753532 -0.016835
C63   C     C_R   0.516106 0.045541 0.748169 -0.094323
C64   C     C_R   0.548028 0.954241 0.303438 -0.063940
C65   C     C_R   0.735423 0.455170 0.702895 -0.105505
C66   C     C_R   0.266392 0.544802 0.238451 -0.070325
C67   C     C_R   0.266436 0.455208 0.238416 -0.071508
C68   C     C_R   0.735398 0.544832 0.702897 -0.101849
C69   C     C_R   0.235797 0.955166 0.702311 -0.079810
C70   C     C_R   0.766449 0.044729 0.238479 -0.054887
C71   C     C_R   0.766430 0.955102 0.238684 -0.155236
C72   C     C_R   0.235922 0.044816 0.701998 -0.101357
C73   C     C_R   0.823985 0.646618 0.002719 0.046980
C74   C     C_R   0.119635 0.319332 0.998621 0.105734
C75   C     C_R   0.120293 0.680531 0.998863 0.101235
C76   C     C_R   0.823531 0.354036 0.002800 0.044602
C77   C     C_R   0.325023 0.147760 0.002501 0.122217
C78   C     C_R   0.618411 0.818791 0.998884 0.201178
C79   C     C_R   0.621499 0.180073 0.998547 0.120224
C80   C     C_R   0.323912 0.853441 0.002514 0.070980
C81   C     C_R   0.072225 0.500014 0.372990 0.229386
C82   C     C_R   0.049298 0.499971 0.725163 0.259930
C83   C     C_R   0.559417 0.999532 0.363148 0.313884
C84   C     C_R   0.544619 0.999284 0.723178 0.315800
C85   C     C_R   0.681582 0.500005 0.648701 0.081876
C86   C     C_R   0.320901 0.500007 0.257684 0.081594
C87   C     C_R   0.182277 0.999986 0.647445 0.099082
C88   C     C_R   0.820874 0.999871 0.257681 0.133392
C89   C     C_3   0.516098 0.455710 0.500238 -0.105028
C90   C     C_3   0.497036 0.544440 0.385961 -0.118357
C91   C     C_3   0.497183 0.455665 0.385809 -0.113355
C92   C     C_3   0.515957 0.544256 0.500396 -0.107371
C93   C     C_3   0.016806 0.955601 0.499495 -0.098140
C94   C     C_3   0.997063 0.044289 0.384781 -0.126260
C95   C     C_3   0.997251 0.955520 0.384729 -0.124745
C96   C     C_3   0.016604 0.044135 0.499535 -0.145837
C97   C     C_3   0.441007 0.499953 0.461985 -0.138227
C98   C     C_3   0.574179 0.500084 0.426034 -0.249622
C99   C     C_3   0.941789 0.999826 0.461668 -0.137956
C100  C     C_3   0.074173 0.999947 0.424439 -0.230050
H1    H     H_    0.938748 0.367042 0.182024 0.143171
H2    H     H_    0.015720 0.662770 0.820045 0.155389
H3    H     H_    0.015468 0.337183 0.819916 0.154876
H4    H     H_    0.939417 0.633964 0.182051 0.146541
H5    H     H_    0.439020 0.866003 0.181653 0.152784
H6    H     H_    0.517084 0.162076 0.819587 0.130860
H7    H     H_    0.514836 0.836955 0.820117 0.160292
H8    H     H_    0.440534 0.135767 0.181749 0.127912
H9    H     H_    0.070785 0.586849 0.333363 0.220557
H10   H     H_    0.025942 0.412408 0.737946 0.188318
H11   H     H_    0.025741 0.587541 0.737787 0.186885
H12   H     H_    0.071021 0.413186 0.333380 0.220233
H13   H     H_    0.560118 0.086744 0.333469 0.159195
H14   H     H_    0.526739 0.912118 0.737871 0.127891
H15   H     H_    0.520149 0.086867 0.727604 0.127617
H16   H     H_    0.562794 0.912801 0.332800 0.122412
H17   H     H_    0.720006 0.414979 0.668662 0.125979
H18   H     H_    0.290167 0.586268 0.254318 0.144852
H19   H     H_    0.290312 0.413756 0.254209 0.144727
H20   H     H_    0.719914 0.585010 0.668650 0.127253
H21   H     H_    0.220570 0.914937 0.668290 0.127198
H22   H     H_    0.790308 0.086175 0.254288 0.138343
H23   H     H_    0.790217 0.913623 0.254849 0.120115
H24   H     H_    0.221021 0.084945 0.667448 0.065654
H25   H     H_    0.386281 0.499901 0.477369 0.176081
H26   H     H_    0.630895 0.500136 0.414060 0.150775
H27   H     H_    0.887430 0.999783 0.477638 0.178732
H28   H     H_    0.130564 0.999990 0.411921 0.169398
H29   H     H_    0.634166 0.351580 0.889909 0.221350
H30   H     H_    0.305265 0.688702 0.119501 0.219520
H31   H     H_    0.303511 0.315730 0.105043 0.226391
H32   H     H_    0.635032 0.647327 0.892961 0.223071
H33   H     H_    0.134520 0.851486 0.889303 0.220280
H34   H     H_    0.806313 0.188787 0.119187 0.221433
H35   H     H_    0.803454 0.812645 0.114145 0.216452
H36   H     H_    0.138030 0.145503 0.905062 0.221501
N1    N     N_R   0.892620 0.603790 0.941800 -0.057043
N2    N     N_R   0.107380 0.396210 0.058200 -0.053360
N3    N     N_R   0.107380 0.603790 0.058200 -0.052483
N4    N     N_R   0.892620 0.396210 0.941800 -0.057071
N5    N     N_R   0.392620 0.103790 0.941800 -0.094182
N6    N     N_R   0.607380 0.896210 0.058200 -0.082542
N7    N     N_R   0.607380 0.103790 0.058200 -0.045609
N8    N     N_R   0.392620 0.896210 0.941800 -0.048731
N9    N     N_R   0.952210 0.397600 0.057910 -0.061426
N10   N     N_R   0.047790 0.602400 0.942090 -0.072998
N11   N     N_R   0.047790 0.397600 0.942090 -0.075303
N12   N     N_R   0.952210 0.602400 0.057910 -0.063914
N13   N     N_R   0.452210 0.897600 0.057910 -0.079618
N14   N     N_R   0.547790 0.102400 0.942090 -0.069765
N15   N     N_R   0.547790 0.897600 0.942090 -0.061437
N16   N     N_R   0.452210 0.102400 0.057910 -0.052749
N17   N     N_R   0.026300 0.529110 0.206760 -0.077887
N18   N     N_R   0.973700 0.470890 0.793240 -0.072261
N19   N     N_R   0.973700 0.529110 0.793240 -0.071893
N20   N     N_R   0.026300 0.470890 0.206760 -0.077638
N21   N     N_R   0.526300 0.029110 0.206760 -0.065306
N22   N     N_R   0.473700 0.970890 0.793240 -0.060764
N23   N     N_R   0.473700 0.029110 0.793240 -0.075190
N24   N     N_R   0.526300 0.970890 0.206760 -0.079275
N25   N     N_R   0.818530 0.472270 0.792960 -0.052934
N26   N     N_R   0.181470 0.527730 0.207040 -0.043083
N27   N     N_R   0.181470 0.472270 0.207040 -0.042938
N28   N     N_R   0.818530 0.527730 0.792960 -0.052682
N29   N     N_R   0.318530 0.972270 0.792960 -0.047593
N30   N     N_R   0.681470 0.027730 0.207040 -0.035576
N31   N     N_R   0.681470 0.972270 0.207040 -0.068175
N32   N     N_R   0.318530 0.027730 0.792960 -0.059451
Ni1   Ni    Ni4+2 0.934150 0.565840 0.869060 0.269577
Ni2   Ni    Ni4+2 0.065850 0.434160 0.130940 0.298763
Ni3   Ni    Ni4+2 0.065850 0.565840 0.130940 0.298901
Ni4   Ni    Ni4+2 0.934150 0.434160 0.869060 0.268798
Ni5   Ni    Ni4+2 0.434150 0.065840 0.869060 0.215825
Ni6   Ni    Ni4+2 0.565850 0.934160 0.130940 0.222640
Ni7   Ni    Ni4+2 0.565850 0.065840 0.130940 0.305305
Ni8   Ni    Ni4+2 0.434150 0.934160 0.869060 0.294399
C101  C     C_2   0.762308 0.665077 0.802462 0.517483
H37   H     H_    0.694920 0.683523 0.773189 0.037917
O1    O     O_2   0.794337 0.672266 0.749907 -0.564204
C102  C     C_2   0.187245 0.324137 0.202351 0.535154
H38   H     H_    0.217028 0.283579 0.222265 0.034446
O2    O     O_2   0.184755 0.349108 0.271108 -0.566898
C103  C     C_2   0.185997 0.675878 0.202172 0.534149
H39   H     H_    0.214778 0.716655 0.222077 0.053628
O3    O     O_2   0.183555 0.650679 0.270692 -0.563672
C104  C     C_2   0.762123 0.335061 0.802643 0.534295
H40   H     H_    0.694646 0.316753 0.773225 0.040214
O4    O     O_2   0.794293 0.327628 0.750287 -0.560323
C105  C     C_2   0.263600 0.164263 0.800091 0.604158
H41   H     H_    0.289293 0.164399 0.749648 -0.007212
O5    O     O_2   0.191283 0.189282 0.767691 -0.538242
C106  C     C_2   0.685797 0.825707 0.203936 0.586524
H42   H     H_    0.691619 0.851675 0.266382 -0.014691
O6    O     O_2   0.710041 0.778351 0.226807 -0.534168
C107  C     C_2   0.686750 0.175950 0.201889 0.522297
H43   H     H_    0.716019 0.216610 0.221717 0.046622
O7    O     O_2   0.683877 0.151056 0.270394 -0.565533
C108  C     C_2   0.262535 0.834929 0.802299 0.541747
H44   H     H_    0.195091 0.816510 0.772719 0.046797
O8    O     O_2   0.294840 0.827694 0.750034 -0.543821
C109  C     C_2   0.523721 0.406355 0.563483 0.526542
H45   H     H_    0.523478 0.366361 0.533264 -0.004724
O9    O     O_2   0.531512 0.410991 0.649932 -0.538510
C110  C     C_2   0.490449 0.593528 0.322804 0.525739
H46   H     H_    0.545792 0.624086 0.364700 0.037991
O10   O     O_2   0.424154 0.599098 0.224377 -0.555553
C111  C     C_2   0.490729 0.406674 0.322448 0.518711
H47   H     H_    0.546118 0.376112 0.364215 0.033619
O11   O     O_2   0.424485 0.401197 0.223979 -0.559330
C112  C     C_2   0.523406 0.593530 0.563812 0.529970
H48   H     H_    0.521807 0.633588 0.532971 -0.001789
O12   O     O_2   0.532338 0.588768 0.650934 -0.536929
C113  C     C_2   0.024642 0.906241 0.562859 0.493860
H49   H     H_    0.024002 0.866240 0.532367 0.014798
O13   O     O_2   0.033003 0.910876 0.649667 -0.538373
C114  C     C_2   0.990066 0.093354 0.321329 0.528594
H50   H     H_    0.045338 0.123963 0.362916 0.029775
O14   O     O_2   0.923519 0.098843 0.222988 -0.552539
C115  C     C_2   0.990398 0.906490 0.321207 0.545545
H51   H     H_    0.046010 0.876042 0.362585 0.048152
O15   O     O_2   0.923551 0.900838 0.223048 -0.557719
C116  C     C_2   0.024234 0.093413 0.563024 0.586752
H52   H     H_    0.024147 0.133453 0.533079 0.012887
O16   O     O_2   0.031906 0.088662 0.649391 -0.497316
F1    F     F_    0.022655 0.774775 0.870046 -0.654331
F2    F     F_    0.915577 0.263081 0.136556 -0.673732
F3    F     F_    0.914195 0.739070 0.131267 -0.671031
F4    F     F_    0.025027 0.221544 0.886286 -0.635174
F5    F     F_    0.522991 0.274211 0.869941 -0.664043
F6    F     F_    0.415123 0.762319 0.136028 -0.677897
F7    F     F_    0.414435 0.242360 0.120753 -0.676357
F8    F     F_    0.522367 0.723516 0.874110 -0.638745
F9    F     F_    0.122065 0.403075 0.684902 -0.626981
F10   F     F_    0.129662 0.597271 0.513228 -0.619086
F11   F     F_    0.129771 0.402709 0.513087 -0.622304
F12   F     F_    0.122165 0.596848 0.685222 -0.631469
F13   F     F_    0.410784 0.944860 0.527034 -0.641172
F14   F     F_    0.701576 0.054608 0.561693 -0.605115
F15   F     F_    0.419714 0.944249 0.355191 -0.638569
F16   F     F_    0.694314 0.054043 0.740398 -0.604240

loop_
_geom_bond_atom_site_label_1
_geom_bond_atom_site_label_2
_ccdc_geom_bond_type
C16   C28   A    
C53   N13   A    
N3    N10   A    
C64   H16   S    
C67   H19   S    
N2    Ni2   S    
C72   N32   A    
C109  H45   S    
N1    N12   A    
C92   C112  S    
C59   C82   A    
C63   N23   A    
C40   F12   S    
C70   C88   A    
C9    C91   S    
C7    N7    A    
C42   F14   S    
N23   Ni5   S    
C15   C32   A    
C54   N14   A    
C41   F13   S    
C113  H49   S    
C26   F6    S    
C16   C31   A    
C40   C46   A    
C25   F5    S    
N30   Ni7   S    
C100  H28   S    
C42   C44   A    
C10   C85   S    
C71   H23   S    
C38   C40   A    
C114  O14   D    
C62   H14   S    
C19   C36   A    
C103  O3    D    
C32   C74   S    
C31   C73   S    
C15   H31   S    
C4    N4    A    
C19   H35   S    
C53   H5    S    
C96   C99   S    
N12   Ni3   S    
C66   N26   A    
C11   C99   S    
N13   Ni6   S    
C4    C104  S    
C37   F9    S    
C10   C98   S    
N27   Ni2   S    
N19   Ni1   S    
C93   C95   S    
C56   H8    S    
C38   C45   A    
C62   C84   A    
C58   N18   A    
C34   C80   S    
C46   C82   S    
N25   Ni4   S    
C1    C101  S    
C26   C34   A    
N7    N14   A    
C57   H9    S    
N26   Ni3   S    
C20   C24   A    
C10   C89   S    
C101  O1    D    
C95   C115  S    
C62   N22   A    
N3    Ni3   S    
C108  H44   S    
C51   N11   A    
C6    N6    A    
C3    C75   A    
C93   C99   S    
N1    Ni1   S    
C69   C87   A    
C39   C45   A    
C63   H15   S    
C50   N10   A    
C113  O13   D    
C10   C92   S    
C52   N12   A    
C71   N31   A    
C72   H24   S    
N5    Ni5   S    
C68   C85   A    
C109  O9    D    
C64   N24   A    
N28   Ni1   S    
C105  H41   S    
C2    C102  S    
N4    Ni4   S    
C44   F16   S    
N25   N28   A    
C49   H1    S    
C102  O2    D    
C92   C97   S    
C90   C110  S    
C68   N28   A    
N32   Ni5   S    
C6    C106  S    
C4    C76   A    
C54   H6    S    
C93   C113  S    
C111  H47   S    
C2    N2    A    
C13   C30   A    
C53   C80   A    
C114  H50   S    
C97   H25   S    
C52   C73   A    
C61   C83   A    
C115  H51   S    
C55   C78   A    
C59   N19   A    
C95   C100  S    
C33   C79   S    
C7    C107  S    
C99   H27   S    
C27   C35   A    
C21   C29   A    
C35   C77   S    
C20   H36   S    
C56   C77   A    
C48   C84   S    
C51   C74   A    
C89   C97   S    
N29   Ni8   S    
C56   N16   A    
C106  O6    D    
N6    N15   A    
C9    C90   S    
C41   C48   A    
C19   C23   A    
C103  H39   S    
C24   C32   A    
C64   C83   A    
C38   F10   S    
N8    N13   A    
C60   H12   S    
C43   C47   A    
C61   N21   A    
C9    C86   S    
C115  O15   D    
N2    N11   A    
C30   C76   S    
C60   C81   A    
C70   H22   S    
C15   C27   A    
C69   H21   S    
C11   C88   S    
N8    Ni8   S    
N9    Ni2   S    
C49   C76   A    
N18   Ni4   S    
N17   Ni3   S    
C8    N8    A    
C14   C26   A    
N17   N20   A    
C94   C96   S    
C71   C88   A    
N18   N19   A    
C43   F15   S    
N21   Ni7   S    
N31   Ni6   S    
C29   C75   S    
C11   C95   S    
C11   C94   S    
C27   F7    S    
C110  O10   D    
C50   H2    S    
N29   N32   A    
C96   C116  S    
C17   H33   S    
N22   N23   A    
C5    C77   A    
C57   C81   A    
C12   C93   S    
C89   C91   S    
C17   C34   A    
C14   C29   A    
C104  O4    D    
C72   C87   A    
C1    N1    A    
C102  H38   S    
C41   C43   A    
C7    C79   A    
N26   N27   A    
C14   H30   S    
N22   Ni8   S    
C55   N15   A    
C28   F8    S    
N11   Ni4   S    
C116  O16   D    
C67   C86   A    
C9    C97   S    
N15   Ni8   S    
C22   C30   A    
C12   C87   S    
C18   C22   A    
N24   Ni6   S    
C20   C35   A    
C45   C81   S    
C5    N5    A    
C111  O11   D    
C47   C83   S    
C13   C25   A    
C91   C98   S    
C2    C74   A    
N4    N9    A    
C66   C86   A    
C23   F3    S    
N16   Ni7   S    
C65   C85   A    
C22   F2    S    
C58   H10   S    
N21   N24   A    
C21   F1    S    
C89   C109  S    
C63   C84   A    
C94   C114  S    
C3    C103  S    
C1    C73   A    
C106  H42   S    
C112  O12   D    
C58   C82   A    
C37   C46   A    
C5    C105  S    
C49   N9    A    
C36   C78   S    
C50   C75   A    
C68   H20   S    
C39   F11   S    
C65   N25   A    
N14   Ni5   S    
N30   N31   A    
C57   N17   A    
N7    Ni7   S    
N20   Ni2   S    
C91   C111  S    
C90   C92   S    
N6    Ni6   S    
C52   H4    S    
C18   H34   S    
C60   N20   A    
C112  H48   S    
C94   C100  S    
C116  H52   S    
C16   H32   S    
C18   C33   A    
C69   N29   A    
C12   C100  S    
C70   N30   A    
C6    C78   A    
C8    C108  S    
C54   C79   A    
C61   H13   S    
C107  H43   S    
C67   N27   A    
C98   H26   S    
C42   C47   A    
C3    N3    A    
C110  H46   S    
C28   C36   A    
C37   C39   A    
C101  H37   S    
C66   H18   S    
N10   Ni1   S    
C55   H7    S    
C59   H11   S    
C8    C80   A    
C65   H17   S    
C12   C96   S    
C108  O8    D    
C105  O5    D    
C104  H40   S    
C24   F4    S    
C51   H3    S    
C25   C33   A    
C90   C98   S    
C13   H29   S    
C44   C48   A    
N5    N16   A    
C23   C31   A    
C107  O7    D    
C17   C21   A    
