data_mof_unit_65919.cif
_audit_creation_date              2013-03-05T16:14:23-0500
_audit_creation_method            fapswitch 2.2
_symmetry_space_group_name_H-M    P1
_symmetry_Int_Tables_number       1
_space_group_crystal_system       monoclinic
_cell_length_a                    7.202524
_cell_length_b                    23.186372
_cell_length_c                    25.238121
_cell_angle_alpha                 90.0
_cell_angle_beta                  90.0
_cell_angle_gamma                 89.999981
_cell_volume                      4214.77632251

loop_
_atom_site_label
_atom_site_type_symbol
_atom_site_description
_atom_site_fract_x
_atom_site_fract_y
_atom_site_fract_z
_atom_type_partial_charge
O1    O     O_R   0.690340 0.802800 0.195640 -0.586514
O2    O     O_R   0.309660 0.197200 0.804360 -0.586515
O3    O     O_R   0.309660 0.197200 0.695640 -0.586515
O4    O     O_R   0.690340 0.802800 0.304360 -0.586516
O5    O     O_R   0.190340 0.697200 0.304360 -0.586516
O6    O     O_R   0.809660 0.302800 0.695640 -0.586515
O7    O     O_R   0.809660 0.302800 0.804360 -0.586516
O8    O     O_R   0.190340 0.697200 0.195640 -0.586515
O9    O     O_R   0.360590 0.809740 0.303990 -0.579774
O10   O     O_R   0.639410 0.190260 0.696010 -0.579773
O11   O     O_R   0.639410 0.190260 0.803990 -0.579773
O12   O     O_R   0.360590 0.809740 0.196010 -0.579767
O13   O     O_R   0.860590 0.690260 0.196010 -0.579776
O14   O     O_R   0.139410 0.309740 0.803990 -0.579773
O15   O     O_R   0.139410 0.309740 0.696010 -0.579773
O16   O     O_R   0.860590 0.690260 0.303990 -0.579773
C1    C     C_R   0.529192 0.822430 0.322570 1.099317
C2    C     C_R   0.470808 0.177570 0.677430 1.099317
C3    C     C_R   0.470808 0.177570 0.822570 1.099318
C4    C     C_R   0.529192 0.822430 0.177430 1.099313
C5    C     C_R   0.029192 0.677570 0.177430 1.099321
C6    C     C_R   0.970808 0.322430 0.822570 1.099318
C7    C     C_R   0.970808 0.322430 0.677430 1.099318
C8    C     C_R   0.029192 0.677570 0.322570 1.099316
O17   O     O_3   0.523810 0.713070 0.250000 -0.290906
O18   O     O_3   0.476190 0.286930 0.750000 -0.290904
O19   O     O_3   0.023810 0.786930 0.250000 -0.290899
O20   O     O_3   0.976190 0.213070 0.750000 -0.290904
V1    V     V_3+5 0.248970 0.756850 0.250000 1.289163
V2    V     V_3+5 0.751030 0.243150 0.750000 1.289157
V3    V     V_3+5 0.748970 0.743150 0.250000 1.289159
V4    V     V_3+5 0.251030 0.256850 0.750000 1.289157
C9    C     C_R   0.038660 0.636333 0.367968 -0.420872
C10   C     C_R   0.961340 0.363667 0.632031 -0.420872
C11   C     C_R   0.961341 0.363667 0.867968 -0.420872
C12   C     C_R   0.038660 0.636333 0.132031 -0.420872
C13   C     C_R   0.538660 0.863668 0.132032 -0.420883
C14   C     C_R   0.461341 0.136333 0.867968 -0.420872
C15   C     C_R   0.461340 0.136333 0.632031 -0.420872
C16   C     C_R   0.538660 0.863667 0.367968 -0.420871
C17   C     C_R   0.896625 0.595350 0.374684 -0.292133
C18   C     C_R   0.103375 0.404650 0.625316 -0.292133
C19   C     C_R   0.103376 0.404650 0.874683 -0.292133
C20   C     C_R   0.896625 0.595349 0.125316 -0.292138
C21   C     C_R   0.396622 0.904650 0.125316 -0.292110
C22   C     C_R   0.603376 0.095350 0.874684 -0.292133
C23   C     C_R   0.603375 0.095350 0.625316 -0.292133
C24   C     C_R   0.396624 0.904650 0.374684 -0.292133
C25   C     C_R   0.902034 0.555116 0.416049 0.774007
C26   C     C_R   0.097966 0.444884 0.583951 0.774007
C27   C     C_R   0.097967 0.444884 0.916049 0.774006
C28   C     C_R   0.902035 0.555116 0.083951 0.774007
C29   C     C_R   0.402033 0.944884 0.083951 0.774005
C30   C     C_R   0.597968 0.055116 0.916049 0.774007
C31   C     C_R   0.597966 0.055116 0.583951 0.774007
C32   C     C_R   0.402033 0.944884 0.416049 0.774007
C33   C     C_R   0.052567 0.554781 0.452165 -0.170168
C34   C     C_R   0.947432 0.445219 0.547835 -0.170168
C35   C     C_R   0.947433 0.445219 0.952165 -0.170166
C36   C     C_R   0.052568 0.554782 0.047835 -0.170166
C37   C     C_R   0.552570 0.945220 0.047836 -0.170173
C38   C     C_R   0.447434 0.054781 0.952165 -0.170167
C39   C     C_R   0.447433 0.054781 0.547835 -0.170167
C40   C     C_R   0.552567 0.945219 0.452165 -0.170167
C41   C     C_R   0.194770 0.595335 0.445435 0.695270
C42   C     C_R   0.805230 0.404664 0.554565 0.695270
C43   C     C_R   0.805230 0.404665 0.945435 0.695269
C44   C     C_R   0.194770 0.595336 0.054564 0.695268
C45   C     C_R   0.694777 0.904667 0.054567 0.695268
C46   C     C_R   0.305230 0.095335 0.945435 0.695270
C47   C     C_R   0.305230 0.095336 0.554565 0.695270
C48   C     C_R   0.694770 0.904664 0.445435 0.695270
C49   C     C_R   0.188377 0.636611 0.404597 0.151487
C50   C     C_R   0.811623 0.363389 0.595403 0.151487
C51   C     C_R   0.811624 0.363389 0.904597 0.151487
C52   C     C_R   0.188376 0.636611 0.095403 0.151489
C53   C     C_R   0.688381 0.863392 0.095405 0.151494
C54   C     C_R   0.311624 0.136610 0.904597 0.151486
C55   C     C_R   0.311623 0.136611 0.595403 0.151487
C56   C     C_R   0.688377 0.863389 0.404597 0.151487
N1    N     N_2   0.069470 0.515353 0.495611 0.091272
N2    N     N_2   0.930530 0.484647 0.504389 0.091271
N3    N     N_2   0.930531 0.484647 0.995611 0.091271
N4    N     N_2   0.069471 0.515353 0.004389 0.091272
N5    N     N_2   0.569474 0.984648 0.004390 0.091272
N6    N     N_2   0.430531 0.015353 0.995611 0.091272
N7    N     N_2   0.430530 0.015353 0.504389 0.091272
N8    N     N_2   0.569470 0.984647 0.495611 0.091272
H1    H     H_    0.219075 0.406085 0.652707 0.212121
H2    H     H_    0.780925 0.593915 0.347293 0.212121
H3    H     H_    0.780926 0.593915 0.152707 0.212120
H4    H     H_    0.219075 0.406085 0.847293 0.212121
H5    H     H_    0.719076 0.093915 0.847293 0.212121
H6    H     H_    0.280920 0.906084 0.152706 0.212129
H7    H     H_    0.280925 0.906085 0.347293 0.212121
H8    H     H_    0.719075 0.093915 0.652707 0.212121
F1    F     F_    0.239030 0.483497 0.580217 -0.597175
F2    F     F_    0.760970 0.516503 0.419783 -0.597175
F3    F     F_    0.760972 0.516503 0.080217 -0.597176
F4    F     F_    0.239031 0.483497 0.919783 -0.597176
F5    F     F_    0.739031 0.016503 0.919783 -0.597176
F6    F     F_    0.260966 0.983496 0.080215 -0.597170
F7    F     F_    0.260970 0.983497 0.419783 -0.597175
F8    F     F_    0.739030 0.016503 0.580217 -0.597175
F9    F     F_    0.337701 0.596112 0.480568 -0.553315
F10   F     F_    0.662299 0.403888 0.519432 -0.553315
F11   F     F_    0.662300 0.403888 0.980568 -0.553315
F12   F     F_    0.337699 0.596113 0.019431 -0.553316
F13   F     F_    0.837714 0.903892 0.019436 -0.553316
F14   F     F_    0.162300 0.096112 0.980568 -0.553314
F15   F     F_    0.162299 0.096112 0.519432 -0.553315
F16   F     F_    0.837701 0.903888 0.480568 -0.553315
N9    N     N_R   0.329777 0.680174 0.402745 0.278591
O21   O     O_R   0.503740 0.665924 0.407319 -0.292365
O22   O     O_R   0.283829 0.734400 0.404549 -0.308877
N10   N     N_R   0.670223 0.319826 0.597255 0.278591
O23   O     O_R   0.496259 0.334076 0.592681 -0.292364
O24   O     O_R   0.716171 0.265599 0.595451 -0.308876
N11   N     N_R   0.670223 0.319826 0.902745 0.278591
O25   O     O_R   0.496260 0.334076 0.907319 -0.292364
O26   O     O_R   0.716171 0.265599 0.904549 -0.308877
N12   N     N_R   0.329775 0.680175 0.097254 0.278589
O27   O     O_R   0.503738 0.665926 0.092680 -0.292368
O28   O     O_R   0.283824 0.734402 0.095450 -0.308874
N13   N     N_R   0.829787 0.819831 0.097259 0.278598
O29   O     O_R   0.783849 0.765603 0.095447 -0.308872
O30   O     O_R   0.003753 0.834085 0.092700 -0.292395
N14   N     N_R   0.170223 0.180174 0.902745 0.278591
O31   O     O_R   0.996260 0.165924 0.907319 -0.292364
O32   O     O_R   0.216171 0.234400 0.904549 -0.308877
N15   N     N_R   0.170223 0.180174 0.597255 0.278591
O33   O     O_R   0.996259 0.165924 0.592681 -0.292364
O34   O     O_R   0.216171 0.234401 0.595451 -0.308877
N16   N     N_R   0.829777 0.819826 0.402745 0.278591
O35   O     O_R   0.003740 0.834076 0.407319 -0.292364
O36   O     O_R   0.783829 0.765599 0.404549 -0.308877

loop_
_geom_bond_atom_site_label_1
_geom_bond_atom_site_label_2
_geom_bond_distance
_ccdc_geom_bond_type
O17   V3    1.765334 S    
N7    N8    1.247967 D    
C48   F16   1.358794 S    
O18   V4    1.765334 S    
C24   H7    1.083251 S    
O12   V1    2.001727 S    
O19   V1    1.765334 S    
C30   F5    1.357462 S    
C45   C53   1.407234 A    
C10   C18   1.406503 A    
C54   N14   1.435148 S    
N14   O31   1.300935 A    
C47   C55   1.407238 A    
N1    N2    1.247965 D    
C25   C33   1.416489 A    
O15   V4    2.001726 S    
C5    C12   1.493872 S    
N5    N6    1.247965 D    
O16   V3    2.001724 S    
C6    C11   1.493871 S    
C38   N6    1.432782 S    
O11   C3    1.334592 A    
O8    V1    1.993347 S    
C23   C31   1.400601 A    
C35   N3    1.432782 S    
C34   N2    1.432783 S    
C46   C54   1.407238 A    
C37   C45   1.400732 A    
C42   C50   1.407239 A    
O1    V3    1.993348 S    
C56   N16   1.435149 S    
N10   O23   1.300934 A    
C38   C46   1.400731 A    
O3    C2    1.328735 A    
O2    V4    1.993345 S    
C41   F9    1.358794 S    
C16   C24   1.406503 A    
C12   C52   1.420365 A    
C35   C43   1.400730 A    
C25   F2    1.357462 S    
C29   C37   1.416491 A    
C34   C42   1.400729 A    
O11   V2    2.001725 S    
O1    C4    1.328734 A    
C47   F15   1.358794 S    
C23   H8    1.083251 S    
C32   C40   1.416489 A    
C11   C19   1.406502 A    
C49   N9    1.435148 S    
O9    V1    2.001725 S    
C20   C28   1.400601 A    
O15   C7    1.334592 A    
C17   H2    1.083251 S    
C50   N10   1.435148 S    
O16   C8    1.334592 A    
O7    V2    1.993346 S    
O12   C4    1.334592 A    
C45   F13   1.358794 S    
C42   F10   1.358794 S    
C21   H6    1.083251 S    
C17   C25   1.400601 A    
C8    C9    1.493872 S    
O5    V1    1.993345 S    
N11   O26   1.300944 A    
O10   C2    1.334593 A    
C26   C34   1.416489 A    
C51   N11   1.435148 S    
C46   F14   1.358794 S    
C41   C49   1.407239 A    
O14   V4    2.001724 S    
N16   O36   1.300942 A    
C14   C54   1.420366 A    
C13   C53   1.420363 A    
C31   F8    1.357463 S    
C31   C39   1.416489 A    
C1    C16   1.493872 S    
C15   C55   1.420364 A    
C2    C15   1.493872 S    
C3    C14   1.493870 S    
O10   V2    2.001727 S    
N3    N4    1.247966 D    
C29   F6    1.357462 S    
C7    C10   1.493872 S    
C55   N15   1.435149 S    
C22   C30   1.400601 A    
C16   C56   1.420364 A    
O8    C5    1.328735 A    
O13   C5    1.334592 A    
C20   H3    1.083250 S    
C37   N5    1.432783 S    
C10   C50   1.420365 A    
O4    C1    1.328734 A    
C9    C49   1.420365 A    
O6    V2    1.993348 S    
C39   C47   1.400730 A    
N13   O29   1.300947 A    
C33   N1    1.432783 S    
C12   C20   1.406503 A    
C27   C35   1.416491 A    
C13   C21   1.406503 A    
N15   O33   1.300935 A    
C53   N13   1.435144 S    
C15   C23   1.406503 A    
N9    O21   1.300934 A    
O9    C1    1.334593 A    
C27   F4    1.357462 S    
C24   C32   1.400601 A    
C26   F1    1.357462 S    
C18   C26   1.400601 A    
C39   N7    1.432783 S    
O2    C3    1.328736 A    
O13   V3    2.001726 S    
C11   C51   1.420365 A    
C32   F7    1.357463 S    
C33   C41   1.400729 A    
N15   O34   1.300942 A    
N14   O32   1.300942 A    
N11   O25   1.300934 A    
N16   O35   1.300935 A    
C44   C52   1.407238 A    
O7    C6    1.328735 A    
C30   C38   1.416490 A    
C28   F3    1.357463 S    
C19   H4    1.083250 S    
C18   H1    1.083251 S    
C9    C17   1.406503 A    
O14   C6    1.334592 A    
O20   V2    1.765334 S    
C52   N12   1.435149 S    
C48   C56   1.407238 A    
C4    C13   1.493871 S    
C36   N4    1.432782 S    
C43   F11   1.358794 S    
O5    C8    1.328735 A    
C19   C27   1.400602 A    
O6    C7    1.328735 A    
N10   O24   1.300944 A    
C40   C48   1.400730 A    
C22   H5    1.083250 S    
O3    V4    1.993346 S    
C14   C22   1.406504 A    
O4    V3    1.993346 S    
C21   C29   1.400602 A    
C43   C51   1.407239 A    
C36   C44   1.400732 A    
C28   C36   1.416489 A    
N13   O30   1.300948 A    
C44   F12   1.358795 S    
N12   O27   1.300934 A    
N12   O28   1.300944 A    
C40   N8    1.432781 S    
N9    O22   1.300944 A    
