data_mof_unit_62236.cif
_audit_creation_date              2012-12-10T18:08:06-0500
_audit_creation_method            fapswitch 2.2
_symmetry_space_group_name_H-M    P1
_symmetry_Int_Tables_number       1
_space_group_crystal_system       triclinic
_cell_length_a                    18.618471
_cell_length_b                    18.738016
_cell_length_c                    18.797761
_cell_angle_alpha                 109.506121
_cell_angle_beta                  109.431899
_cell_angle_gamma                 109.13837
_cell_volume                      5069.23842102

loop_
_atom_site_label
_atom_site_type_symbol
_atom_type_description
_atom_site_fract_x
_atom_site_fract_y
_atom_site_fract_z
_atom_type_partial_charge
C1    C     C_R   0.381246 0.501844 0.380113 0.876837
C2    C     C_R   0.317131 0.505394 0.314973 -0.076112
C3    C     C_R   0.307096 0.231858 0.474506 -0.191865
C4    C     C_R   0.618025 0.619622 0.497920 0.903295
C5    C     C_R   0.243668 0.167191 0.474226 0.151105
C6    C     C_R   0.186315 0.186252 0.500628 -0.016013
C7    C     C_R   0.193056 0.269338 0.527354 0.152470
C8    C     C_R   0.257542 0.332612 0.527229 -0.192908
C9    C     C_R   0.313821 0.313786 0.500761 -0.117253
C10   C     C_R   0.763312 0.501610 0.675357 0.190061
C11   C     C_R   0.822787 0.491766 0.735370 0.186979
C12   C     C_R   0.816987 0.812706 0.567940 0.020487
C13   C     C_R   0.814044 0.494391 0.807968 -0.060411
C14   C     C_R   0.744525 0.499470 0.817439 -0.241619
C15   C     C_R   0.683185 0.503462 0.755789 -0.233759
C16   C     C_R   0.622378 0.501888 0.619811 0.875995
C17   C     C_R   0.691821 0.503966 0.685066 -0.070760
C18   C     C_R   0.000624 0.880312 0.380139 0.890389
C19   C     C_R   0.879959 0.877852 0.497523 0.914298
C20   C     C_R   0.000054 0.120513 0.619890 0.913157
C21   C     C_R   0.120092 0.120120 0.500190 0.861316
C22   C     C_R   0.000414 0.620002 0.120656 0.898627
C23   C     C_3   0.870649 0.865788 0.664801 -0.096687
C24   C     C_R   0.120140 0.502162 0.122010 0.846158
C25   C     C_R   0.999401 0.380255 0.879309 0.883751
C26   C     C_R   0.879872 0.497933 0.877921 0.861129
C27   C     C_R   0.006213 0.824992 0.244758 0.124014
C28   C     C_R   0.379816 0.379844 0.500232 0.895934
C29   C     C_R   0.997497 0.755892 0.176649 0.069065
C30   C     C_R   0.001041 0.686162 0.187590 -0.144762
C31   C     C_R   0.004879 0.679531 0.261161 0.150676
C32   C     C_R   0.996427 0.739975 0.320880 0.139120
C33   C     C_R   0.001628 0.814379 0.314463 -0.117124
C34   C     C_3   0.796820 0.797091 0.665277 -0.058105
C35   C     C_R   0.919080 0.178332 0.677997 0.132837
C36   C     C_R   0.918540 0.246623 0.737305 0.074112
C37   C     C_R   0.998823 0.314824 0.811866 -0.161727
C38   C     C_R   0.079732 0.320964 0.823396 0.086224
C39   C     C_R   0.080910 0.261156 0.755564 0.120291
C40   C     C_R   0.753084 0.753685 0.568322 0.029608
C41   C     C_R   0.000174 0.187874 0.685401 -0.109764
C42   C     C_R   0.679680 0.683778 0.492602 -0.157228
C43   C     C_R   0.670680 0.675118 0.411487 0.157413
C44   C     C_R   0.740279 0.736207 0.411067 0.164237
C45   C     C_R   0.251158 0.427499 0.239088 -0.223727
C46   C     C_R   0.813392 0.807840 0.491980 -0.160791
C47   C     C_3   0.587377 0.602863 0.327348 -0.855146
C48   C     C_3   0.239397 0.079565 0.443909 -0.911644
C49   C     C_3   0.134830 0.294419 0.557631 -0.914114
C50   C     C_3   0.777964 0.511537 0.603637 -0.895267
C51   C     C_3   0.892975 0.476598 0.720288 -0.895545
C52   C     C_3   0.023191 0.909552 0.243569 -0.877945
C53   C     C_3   0.737931 0.721659 0.325803 -0.870175
C54   C     C_3   0.020589 0.610498 0.277640 -0.867175
C55   C     C_3   0.981507 0.725199 0.390753 -0.855854
C56   C     C_R   0.186358 0.427810 0.177084 -0.219191
C57   C     C_3   0.833132 0.096001 0.606962 -0.845971
C58   C     C_3   0.167290 0.277906 0.757453 -0.884792
C59   C     C_3   0.824795 0.742442 0.700724 -0.894946
C60   C     C_R   0.186664 0.505780 0.191028 -0.058395
C61   C     C_R   0.251710 0.585452 0.268367 0.073755
C62   C     C_R   0.320085 0.585469 0.329595 0.106325
H1    H     H_    0.351700 0.218267 0.454577 0.169839
H2    H     H_    0.576168 0.618339 0.274010 0.238114
H3    H     H_    0.590354 0.541553 0.306859 0.252591
H4    H     H_    0.449524 0.672840 0.401269 0.169594
H5    H     H_    0.388565 0.720033 0.408733 0.201680
H6    H     H_    0.185122 0.029654 0.441674 0.248145
H7    H     H_    0.230472 0.054375 0.377305 0.240257
H8    H     H_    0.301730 0.086998 0.488183 0.249575
H9    H     H_    0.087246 0.242339 0.559832 0.247006
H10   H     H_    0.175904 0.351787 0.624252 0.240711
H11   H     H_    0.097518 0.312025 0.513364 0.249090
H12   H     H_    0.263302 0.396557 0.547161 0.169391
H13   H     H_    0.848144 0.556283 0.629701 0.238543
H14   H     H_    0.757425 0.447059 0.551009 0.248725
H15   H     H_    0.742180 0.540997 0.575614 0.243303
H16   H     H_    0.921127 0.449185 0.758517 0.231739
H17   H     H_    0.864653 0.428122 0.651203 0.238065
H18   H     H_    0.946503 0.538717 0.737119 0.251181
H19   H     H_    0.074990 0.929160 0.226040 0.234988
H20   H     H_    0.962056 0.901042 0.195809 0.241126
H21   H     H_    0.048165 0.965340 0.307490 0.248356
H22   H     H_    0.802960 0.759826 0.334493 0.237519
H23   H     H_    0.738370 0.501376 0.873323 0.161733
H24   H     H_    0.717097 0.652412 0.284576 0.238598
H25   H     H_    0.691584 0.739095 0.290968 0.245553
H26   H     H_    0.925890 0.699535 0.045900 0.167930
H27   H     H_    0.979693 0.806929 0.092992 0.193867
H28   H     H_    0.055098 0.587659 0.245441 0.225736
H29   H     H_    0.064004 0.637451 0.348014 0.237525
H30   H     H_    0.957204 0.554048 0.254389 0.249578
H31   H     H_    0.934358 0.745331 0.401010 0.224490
H32   H     H_    0.951946 0.655489 0.372383 0.239783
H33   H     H_    0.044585 0.762699 0.452720 0.252237
H34   H     H_    0.628283 0.505412 0.762859 0.166082
H35   H     H_    0.839955 0.037437 0.598203 0.236888
H36   H     H_    0.779836 0.088529 0.623000 0.244732
H37   H     H_    0.812660 0.096974 0.544841 0.247524
H38   H     H_    0.845753 0.306311 0.759203 0.185338
H39   H     H_    0.806964 0.236877 0.657398 0.185694
H40   H     H_    0.152918 0.379175 0.954200 0.167887
H41   H     H_    0.214529 0.384940 0.907825 0.193667
H42   H     H_    0.159556 0.239157 0.693585 0.248374
H43   H     H_    0.205822 0.346804 0.775596 0.235768
H44   H     H_    0.205260 0.263696 0.805037 0.242873
H45   H     H_    0.935274 0.868675 0.690877 0.184442
H46   H     H_    0.903346 0.979306 0.765122 0.193790
H47   H     H_    0.814799 0.945333 0.672146 0.187867
H48   H     H_    0.766271 0.687403 0.687894 0.255078
H49   H     H_    0.858732 0.716076 0.669918 0.247370
H50   H     H_    0.869785 0.783316 0.772037 0.247205
H51   H     H_    0.193626 0.657219 0.238754 0.194537
H52   H     H_    0.240541 0.683369 0.342100 0.178978
H53   H     H_    0.758944 0.821487 0.691320 0.174501
H54   H     H_    0.249373 0.366224 0.228220 0.165140
H55   H     H_    0.136086 0.367125 0.117597 0.152503
H56   H     H_    0.529307 0.592621 0.335972 0.221674
N1    N     N_3   0.393348 0.665341 0.405913 -0.433210
N2    N     N_3   0.985815 0.754604 0.096083 -0.420692
N3    N     N_3   0.836443 0.245808 0.720045 -0.436410
N4    N     N_3   0.159034 0.388817 0.904352 -0.420943
N5    N     N_3   0.877220 0.951661 0.697838 -0.455334
N6    N     N_3   0.248341 0.665219 0.287355 -0.464709
O1    O     O_R   0.408340 0.551690 0.460080 -0.598864
O2    O     O_R   0.051700 0.643420 0.091650 -0.604212
O3    O     O_R   0.039910 0.448390 0.091720 -0.623601
O4    O     O_R   0.408400 0.448280 0.356690 -0.631093
O5    O     O_R   0.143340 0.551810 0.091690 -0.613593
O6    O     O_R   0.948300 0.356760 0.908530 -0.617012
O7    O     O_R   0.051730 0.460180 0.908500 -0.601812
O8    O     O_R   0.856660 0.448370 0.908490 -0.628326
O9    O     O_R   0.960090 0.551790 0.908450 -0.610838
O10   O     O_R   0.591580 0.643330 0.551700 -0.626315
O11   O     O_R   0.591640 0.539920 0.448310 -0.622423
O12   O     O_R   0.948260 0.908480 0.356680 -0.620750
O13   O     O_R   0.591600 0.551720 0.643310 -0.628495
O14   O     O_R   0.591660 0.448310 0.539920 -0.612788
O15   O     O_R   0.408360 0.460080 0.551690 -0.626371
O16   O     O_R   0.408420 0.356670 0.448300 -0.625686
O17   O     O_R   0.051710 0.908420 0.460050 -0.623194
O18   O     O_R   0.960120 0.908380 0.551680 -0.620547
O19   O     O_R   0.856660 0.908440 0.448310 -0.618059
O20   O     O_R   0.051740 0.091590 0.643330 -0.609428
O21   O     O_R   0.948290 0.091650 0.539960 -0.626459
O22   O     O_R   0.143330 0.091630 0.551690 -0.622289
O23   O     O_R   0.039880 0.091690 0.448320 -0.620645
O24   O     O_R   0.948270 0.540000 0.091680 -0.620065
Zn1   Zn    Zn3+2 0.499960 0.569050 0.569040 0.955379
Zn2   Zn    Zn3+2 0.500040 0.430950 0.430960 0.944149
Zn3   Zn    Zn3+2 0.069080 0.999990 0.569020 0.950539
Zn4   Zn    Zn3+2 0.930920 0.000070 0.430980 0.946213
Zn5   Zn    Zn3+2 0.930940 0.431040 0.000110 0.954034
Zn6   Zn    Zn3+2 0.069060 0.569140 0.000070 0.976478

loop_
_geom_bond_atom_site_label_1
_geom_bond_atom_site_label_2
_ccdc_geom_bond_type
C27   C29   A    
C56   H55   S    
C20   O20   A    
C35   C36   A    
C28   O16   A    
C1    O4    A    
C48   H7    S    
C55   H31   S    
O3    Zn5   S    
C20   C41   S    
C19   C46   S    
C7    C8    A    
C39   C41   A    
O14   Zn2   S    
C12   C23   S    
C37   C38   A    
C61   N6    S    
C34   C40   S    
C21   O23   A    
C36   C37   A    
C1    O1    A    
C54   H28   S    
O20   Zn3   S    
C30   C31   A    
C22   O2    A    
C16   C17   S    
C10   C17   A    
C57   H37   S    
C59   H48   S    
C1    C2    S    
C51   H18   S    
C25   C37   S    
C24   O5    A    
C47   H56   S    
C16   O13   A    
C45   C56   A    
C8    C9    A    
C49   H10   S    
C24   O3    A    
C59   H49   S    
C18   O12   A    
C53   H24   S    
H26   N2    S    
C32   C55   S    
H52   N6    S    
C40   C42   A    
C23   H45   S    
C13   C14   A    
O13   Zn1   S    
C61   C62   A    
C28   O15   A    
C55   H32   S    
C25   O6    A    
C44   C53   S    
O12   Zn4   S    
C44   C46   A    
C59   H50   S    
C51   H17   S    
O7    Zn6   S    
C2    C45   A    
C38   C39   A    
C5    C48   S    
O9    Zn6   S    
C7    C49   S    
C12   C46   A    
C47   H2    S    
H47   N5    S    
C23   N5    S    
C34   H53   S    
C6    C21   S    
O15   Zn1   S    
C27   C33   A    
C56   C60   A    
C60   C61   A    
C58   H44   S    
O18   Zn3   S    
C12   C40   A    
C52   H21   S    
C43   C44   A    
C54   H30   S    
C29   C30   A    
C3    C9    A    
C50   H14   S    
C31   C32   A    
H27   N2    S    
C24   C60   S    
C23   C34   S    
C57   H35   S    
C8    H12   S    
O8    Zn5   S    
C53   H25   S    
C48   H6    S    
C52   H20   S    
C62   N1    S    
C38   N4    S    
O1    Zn1   S    
C4    O11   A    
O2    Zn6   S    
C55   H33   S    
O19   Zn4   S    
C22   O24   A    
C19   O18   A    
H4    N1    S    
C53   H22   S    
C34   C59   S    
C49   H11   S    
C13   C26   S    
C58   H42   S    
C42   C43   A    
H46   N5    S    
C25   O7    A    
C50   H15   S    
O16   Zn2   S    
C29   N2    S    
C15   H34   S    
C26   O8    A    
C27   C52   S    
O17   Zn3   S    
C4    O10   A    
O4    Zn2   S    
C15   C17   A    
H38   N3    S    
C19   O19   A    
C22   C30   S    
C14   C15   A    
C18   O17   A    
C16   O14   A    
C14   H23   S    
C48   H8    S    
C3    C5    A    
C6    C7    A    
C3    H1    S    
O11   Zn2   S    
C35   C57   S    
C58   H43   S    
C21   O22   A    
H5    N1    S    
O23   Zn4   S    
C51   H16   S    
C54   H29   S    
C26   O9    A    
C50   H13   S    
C32   C33   A    
C11   C13   A    
C45   H54   S    
C5    C6    A    
H51   N6    S    
C4    C42   S    
C57   H36   S    
C39   C58   S    
C36   N3    S    
O6    Zn5   S    
C31   C54   S    
C52   H19   S    
C35   C41   A    
C18   C33   S    
H39   N3    S    
O21   Zn4   S    
C11   C51   S    
C10   C11   A    
O22   Zn3   S    
C2    C62   A    
C49   H9    S    
C20   O21   A    
O24   Zn5   S    
H40   N4    S    
H41   N4    S    
C43   C47   S    
C47   H3    S    
O5    Zn6   S    
O10   Zn1   S    
C9    C28   S    
C10   C50   S    
