data_mof_unit_20373.cif
_audit_creation_date              2012-12-11T16:11:48-0500
_audit_creation_method            fapswitch 2.2
_symmetry_space_group_name_H-M    P1
_symmetry_Int_Tables_number       1
_space_group_crystal_system       triclinic
_cell_length_a                    7.010832
_cell_length_b                    14.360118
_cell_length_c                    15.769701
_cell_angle_alpha                 89.968833
_cell_angle_beta                  90.201452
_cell_angle_gamma                 90.060736
_cell_volume                      1587.62539127

loop_
_atom_site_label
_atom_site_type_symbol
_atom_type_description
_atom_site_fract_x
_atom_site_fract_y
_atom_site_fract_z
_atom_type_partial_charge
O1    O     O_R   0.638960 0.835150 0.161940 -0.501174
O2    O     O_R   0.361040 0.164850 0.838060 -0.501286
O3    O     O_R   0.309170 0.846340 0.337470 -0.520253
O4    O     O_R   0.690830 0.153660 0.662530 -0.525185
O5    O     O_R   0.138810 0.664830 0.338070 -0.554181
O6    O     O_R   0.861190 0.335170 0.661930 -0.555488
C1    C     C_R   0.478311 0.869597 0.365274 0.746097
C2    C     C_R   0.521681 0.130289 0.634829 0.751118
O7    O     O_R   0.309250 0.846350 0.162570 -0.502331
O8    O     O_R   0.690750 0.153650 0.837430 -0.502177
O9    O     O_R   0.138880 0.664840 0.161920 -0.554047
O10   O     O_R   0.861120 0.335160 0.838080 -0.553720
C3    C     C_R   0.478209 0.867357 0.132884 0.813126
C4    C     C_R   0.521786 0.132576 0.867054 0.812920
O11   O     O_R   0.638880 0.835150 0.338090 -0.545408
O12   O     O_R   0.361120 0.164850 0.661910 -0.544209
O13   O     O_3   0.472380 0.690440 0.250000 -0.408191
O14   O     O_3   0.527620 0.309560 0.750000 -0.407326
V1    V     V_3+5 0.197550 0.761040 0.250010 1.603483
V2    V     V_3+5 0.802450 0.238960 0.749990 1.595184
O15   O     O_R   0.809160 0.653640 0.162540 -0.538965
O16   O     O_R   0.190840 0.346360 0.837460 -0.539234
C5    C     C_R   0.976776 0.633474 0.132138 0.765236
C6    C     C_R   0.023223 0.366520 0.867865 0.765398
O17   O     O_R   0.809090 0.653640 0.337440 -0.554994
O18   O     O_R   0.190910 0.346360 0.662560 -0.552292
C7    C     C_R   0.977943 0.631484 0.366386 0.642735
C8    C     C_R   0.022044 0.368556 0.633645 0.640104
V3    V     V_3+5 0.697540 0.738950 0.250000 1.524711
V4    V     V_3+5 0.302460 0.261050 0.750000 1.529464
O19   O     O_3   0.972580 0.809550 0.250010 -0.321227
O20   O     O_3   0.027420 0.190450 0.749990 -0.322944
C9    C     C_3   0.077858 0.581024 0.524826 -0.131325
C10   C     C_3   0.922079 0.419074 0.475244 -0.110524
C11   C     C_3   0.905737 0.532563 0.567806 -0.137559
C12   C     C_3   0.094203 0.467534 0.432267 -0.115832
H1    H     H_    0.828205 0.559129 0.624072 0.120360
H2    H     H_    0.171728 0.440998 0.375989 0.129575
H3    H     H_    0.141965 0.648269 0.544869 0.135101
H4    H     H_    0.857960 0.351830 0.455204 0.127233
C13   C     C_3   0.011586 0.438841 0.562737 -0.006781
C14   C     C_3   0.988361 0.561251 0.437333 -0.018722
C15   C     C_3   0.183930 0.486519 0.520539 -0.122446
C16   C     C_3   0.816011 0.513582 0.479533 -0.132684
H5    H     H_    0.335864 0.475209 0.537702 0.111598
H6    H     H_    0.664081 0.524907 0.462372 0.111321
C17   C     C_3   0.856562 0.438088 0.006466 -0.156776
C18   C     C_3   0.143432 0.561898 0.993537 -0.156908
C19   C     C_3   0.007518 0.458785 0.076456 -0.189314
C20   C     C_3   0.992474 0.541203 0.923548 -0.189916
H7    H     H_    0.014041 0.424599 0.139575 0.131219
H8    H     H_    0.985950 0.575388 0.860428 0.129531
H9    H     H_    0.743991 0.384460 0.012563 0.133720
H10   H     H_    0.256001 0.615527 0.987439 0.133478
C21   C     C_3   0.984031 0.564145 0.060628 -0.054311
C22   C     C_3   0.015960 0.435844 0.939376 -0.054449
C23   C     C_3   0.834454 0.543783 0.991216 0.224547
C24   C     C_3   0.165536 0.456203 0.008787 0.223634
C25   C     C_3   0.676515 0.982412 0.470469 -0.229076
C26   C     C_3   0.323487 0.017309 0.529775 -0.214796
C27   C     C_3   0.580101 0.079964 0.473412 -0.244753
C28   C     C_3   0.419915 0.919763 0.526807 -0.250162
H11   H     H_    0.644915 0.146082 0.450995 0.160235
H12   H     H_    0.355093 0.853639 0.549210 0.171134
H13   H     H_    0.822683 0.967951 0.447082 0.193972
H14   H     H_    0.177413 0.031593 0.553360 0.184008
C29   C     C_3   0.510985 0.059816 0.564489 -0.163815
C30   C     C_3   0.489031 0.939929 0.435740 -0.172242
C31   C     C_3   0.605822 0.963512 0.561308 0.471508
C32   C     C_3   0.394165 0.036225 0.438935 0.490675
C33   C     C_3   0.661534 0.953514 0.003560 0.580234
C34   C     C_3   0.338482 0.046324 0.996279 0.580078
C35   C     C_3   0.529923 0.957162 0.925655 -0.316225
C36   C     C_3   0.470102 0.042682 0.074166 -0.316163
H15   H     H_    0.555019 0.921706 0.864403 0.221801
H16   H     H_    0.445043 0.078252 0.135335 0.221893
C37   C     C_3   0.509486 0.063118 0.938306 -0.227595
C38   C     C_3   0.490523 0.936728 0.061544 -0.227763
C39   C     C_3   0.643307 0.060097 0.015669 -0.121397
C40   C     C_3   0.356709 0.939738 0.984167 -0.121360
H17   H     H_    0.738725 0.118841 0.029807 0.232377
H18   H     H_    0.261291 0.880992 0.970044 0.232288
S1    S     S_3+6 0.867390 0.883694 0.999549 0.008897
O21   O     O_2   0.999268 0.912814 0.069650 -0.291405
O22   O     O_2   0.816010 0.783444 0.011908 -0.402594
O23   O     O_3   0.966732 0.897222 0.903329 -0.479196
H19   H     H_    0.893799 0.855437 0.865185 0.371646
S2    S     S_3+6 0.132617 0.116140 0.000330 0.009370
O24   O     O_2   0.183973 0.216403 0.988031 -0.402336
O25   O     O_2   0.000756 0.087052 0.930212 -0.291227
O26   O     O_3   0.033264 0.102548 0.096541 -0.479444
H20   H     H_    0.106209 0.144298 0.134713 0.371918
C41   C     C_3   0.645415 0.591732 0.974303 -0.732820
H21   H     H_    0.554855 0.546022 0.934367 0.188719
H22   H     H_    0.573291 0.607234 0.035107 0.207584
H23   H     H_    0.667755 0.656684 0.937960 0.252322
C42   C     C_3   0.354542 0.408220 0.025689 -0.731076
H24   H     H_    0.445108 0.453892 0.065660 0.189132
H25   H     H_    0.332137 0.343239 0.061982 0.253011
H26   H     H_    0.426686 0.392750 0.964883 0.207013
S3    S     S_3+6 0.749953 0.909513 0.640577 -0.005361
O27   O     O_2   0.891934 0.978305 0.675000 -0.303461
O28   O     O_2   0.625550 0.875129 0.711303 -0.353108
O29   O     O_3   0.867781 0.819166 0.597801 -0.502031
H27   H     H_    0.767445 0.779327 0.572279 0.311615
S4    S     S_3+6 0.250452 0.089887 0.359360 -0.003012
O30   O     O_2   0.376152 0.121518 0.288078 -0.333978
O31   O     O_2   0.104993 0.022182 0.325940 -0.325297
O32   O     O_3   0.138861 0.182910 0.400685 -0.501447
H28   H     H_    0.049028 0.156935 0.442914 0.312997

loop_
_geom_bond_atom_site_label_1
_geom_bond_atom_site_label_2
_ccdc_geom_bond_type
C27   C32   S    
C18   C21   S    
C41   H21   S    
O13   V3    S    
C12   C14   S    
C6    C22   S    
O4    C2    A    
V1    O19   S    
C33   C39   S    
C42   H24   S    
C17   C19   S    
C18   H10   S    
C24   C42   S    
O9    V1    S    
S3    O27   D    
C36   H16   S    
C10   H4    S    
C9    C14   S    
C11   H1    S    
O3    C1    A    
C9    C11   S    
C38   C40   S    
S4    O30   D    
O12   V4    S    
C8    C13   S    
C26   C28   S    
C4    C37   S    
C27   H11   S    
O7    C3    A    
C28   H12   S    
C42   H25   S    
C1    C30   S    
O5    C7    A    
O7    V1    S    
O6    C8    A    
C26   C29   S    
O8    V2    S    
C19   H7    S    
C20   H8    S    
O3    V1    S    
O14   V4    S    
C10   C12   S    
C17   H9    S    
C18   C20   S    
C26   H14   S    
C2    O12   A    
C23   C41   S    
C13   C15   S    
C10   C13   S    
C14   C16   S    
C11   C13   S    
O29   H27   S    
C34   S2    S    
C16   H6    S    
O11   V3    S    
C33   S1    S    
C37   C39   S    
O17   V3    S    
C25   C27   S    
C9    C15   S    
C10   C16   S    
C34   C36   S    
C32   S4    S    
O26   H20   S    
C39   H17   S    
O23   H19   S    
C1    O11   A    
C19   C21   S    
O15   V3    S    
C20   C22   S    
C19   C24   S    
C34   C40   S    
C28   C31   S    
C29   C31   S    
C34   C37   S    
C25   C30   S    
C17   C23   S    
C27   C29   S    
S1    O21   D    
S2    O26   S    
C26   C32   S    
O10   V2    S    
O1    V3    S    
C9    H3    S    
C18   C24   S    
C11   C16   S    
C15   H5    S    
C25   C31   S    
C40   H18   S    
S1    O22   D    
S2    O25   D    
O18   V4    S    
C41   H23   S    
C36   C39   S    
C21   C23   S    
O8    C4    A    
O16   C6    A    
O1    C3    A    
C35   H15   S    
C12   H2    S    
C42   H26   S    
C33   C35   S    
V2    O20   S    
C3    C38   S    
O16   V4    S    
C20   C23   S    
C5    C21   S    
O5    V1    S    
C31   S3    S    
O17   C7    A    
O6    V2    S    
O10   C6    A    
O18   C8    A    
C28   C30   S    
O2    V4    S    
O15   C5    A    
V3    O19   S    
O32   H28   S    
C25   H13   S    
V4    O20   S    
C7    C14   S    
C41   H22   S    
S4    O31   D    
O9    C5    A    
O13   V1    S    
C35   C40   S    
C22   C24   S    
O14   V2    S    
O2    C4    A    
O4    V2    S    
S1    O23   S    
S2    O24   D    
C2    C29   S    
S3    O28   D    
C36   C38   S    
C30   C32   S    
C35   C37   S    
C12   C15   S    
S3    O29   S    
C33   C38   S    
C17   C22   S    
S4    O32   S    
