data_mof_unit_11486.cif
_audit_creation_date              2013-03-05T16:02:01-0500
_audit_creation_method            fapswitch 2.2
_symmetry_space_group_name_H-M    P1
_symmetry_Int_Tables_number       1
_space_group_crystal_system       triclinic
_cell_length_a                    6.94152
_cell_length_b                    17.661935
_cell_length_c                    19.37373
_cell_angle_alpha                 108.589226
_cell_angle_beta                  89.352474
_cell_angle_gamma                 90.859256
_cell_volume                      2251.00618931

loop_
_atom_site_label
_atom_site_type_symbol
_atom_site_description
_atom_site_fract_x
_atom_site_fract_y
_atom_site_fract_z
_atom_type_partial_charge
O1    O     O_R   0.494330 0.415720 0.413720 -0.595378
O2    O     O_R   0.819330 0.430070 0.560210 -0.578149
O3    O     O_R   0.994320 0.584280 0.586280 -0.566336
C1    C     C_R   0.649821 0.414665 0.581233 0.955266
O4    O     O_R   0.823730 0.406300 0.412670 -0.601646
O5    O     O_R   0.998760 0.560340 0.437690 -0.567218
C2    C     C_R   0.655303 0.384070 0.384654 0.923519
O6    O     O_R   0.489890 0.439660 0.562310 -0.575316
O7    O     O_3   0.662340 0.550560 0.508380 -0.226472
V1    V     V_3+5 0.935370 0.490620 0.498450 1.251021
O8    O     O_R   0.328750 0.569930 0.439790 -0.573591
C3    C     C_R   0.160430 0.587186 0.420212 0.989007
O9    O     O_R   0.324340 0.593700 0.587330 -0.598221
C4    C     C_R   0.155852 0.614503 0.616510 0.998781
V2    V     V_3+5 0.435940 0.509380 0.501550 1.250041
O10   O     O_3   0.159100 0.449440 0.491620 -0.261539
H1    H     H_    0.362956 0.859137 0.571058 0.164827
C5    C     C_R   0.037709 0.591998 0.759333 0.111465
C6    C     C_R   0.954166 0.585389 0.823168 -0.142022
C7    C     C_R   0.924334 0.652158 0.882984 -0.100091
C8    C     C_R   0.981132 0.726773 0.880733 -0.130593
C9    C     C_R   0.059314 0.737277 0.816497 0.101115
C10   C     C_R   0.081440 0.669135 0.752607 0.056212
C11   C     C_R   0.120505 0.814310 0.816580 -0.262092
C12   C     C_R   0.194183 0.825025 0.751825 0.123747
C13   C     C_R   0.202939 0.759138 0.686455 0.093338
C14   C     C_R   0.148167 0.681187 0.686493 -0.289002
C15   C     C_R   0.252887 0.901595 0.750090 -0.121481
C16   C     C_R   0.312445 0.913444 0.685409 -0.073458
C17   C     C_R   0.317759 0.849579 0.621309 -0.025764
C18   C     C_R   0.264182 0.773369 0.621469 -0.080506
H2    H     H_    0.918238 0.527266 0.827740 0.157375
H3    H     H_    0.863426 0.645726 0.932551 0.158352
H4    H     H_    0.963444 0.775826 0.930614 0.127393
H5    H     H_    0.248635 0.953764 0.798116 0.137083
H6    H     H_    0.353453 0.972693 0.684998 0.150656
H7    H     H_    0.269531 0.726302 0.569664 0.128917
C19   C     C_R   0.293545 0.632896 0.320855 -0.152472
C20   C     C_R   0.151836 0.640152 0.374140 -0.318142
C21   C     C_R   0.000789 0.695273 0.381527 0.335005
C22   C     C_R   0.992537 0.743207 0.334723 -0.076157
C23   C     C_R   0.134803 0.731875 0.278581 0.025714
C24   C     C_R   0.286241 0.677013 0.272395 0.086374
C25   C     C_R   0.848979 0.802116 0.341030 0.225643
C26   C     C_R   0.844458 0.844150 0.291228 -0.127566
C27   C     C_R   0.979396 0.831434 0.234609 -0.021413
C28   C     C_R   0.126333 0.775409 0.228234 0.035873
C29   C     C_R   0.264742 0.762686 0.171462 0.078649
C30   C     C_R   0.414592 0.709032 0.167749 -0.183783
C31   C     C_R   0.426934 0.666991 0.217259 0.184521
C32   C     C_R   0.973373 0.876396 0.186149 0.348537
C33   C     C_R   0.110113 0.863535 0.129138 -0.372018
C34   C     C_R   0.251482 0.804109 0.119966 0.188473
H8    H     H_    0.406007 0.589821 0.316018 0.189674
H9    H     H_    0.733676 0.888450 0.298002 0.211178
H10   H     H_    0.526919 0.699643 0.127039 0.186532
C35   C     C_R   0.552412 0.214431 0.893278 0.301593
C36   C     C_R   0.624554 0.135513 0.869846 -0.345563
C37   C     C_R   0.699140 0.102679 0.798369 0.093008
C38   C     C_R   0.705925 0.148999 0.750587 0.086616
C39   C     C_R   0.634369 0.227883 0.774240 -0.022676
C40   C     C_R   0.556979 0.260633 0.845362 0.000821
C41   C     C_R   0.780697 0.118296 0.679121 -0.149975
C42   C     C_R   0.783525 0.163958 0.632015 -0.119084
C43   C     C_R   0.712076 0.241675 0.654700 0.134392
C44   C     C_R   0.637539 0.274007 0.726044 0.068418
C45   C     C_R   0.566247 0.352602 0.749141 0.160552
C46   C     C_R   0.488952 0.384196 0.819246 -0.222696
C47   C     C_R   0.481792 0.338616 0.866313 -0.052115
C48   C     C_R   0.713574 0.287580 0.607190 -0.133678
C49   C     C_R   0.641076 0.365499 0.630124 -0.108559
C50   C     C_R   0.572060 0.398221 0.701570 -0.190453
H11   H     H_    0.838353 0.058812 0.658424 0.182083
H12   H     H_    0.841736 0.138205 0.577509 0.179075
H13   H     H_    0.770613 0.262820 0.552344 0.137783
H14   H     H_    0.526376 0.459835 0.720497 0.141523
H15   H     H_    0.431179 0.444064 0.837475 0.159256
H16   H     H_    0.414822 0.365191 0.918973 0.209745
C51   C     C_R   0.830886 0.391685 0.250722 -0.216553
C52   C     C_R   0.917732 0.397572 0.187544 -0.201206
C53   C     C_R   0.903787 0.334768 0.122100 0.458086
C54   C     C_R   0.803728 0.264843 0.121332 -0.215355
C55   C     C_R   0.719448 0.256179 0.185453 0.048905
C56   C     C_R   0.732500 0.321208 0.251388 0.118595
C57   C     C_R   0.620875 0.184626 0.184407 -0.214172
C58   C     C_R   0.540154 0.177790 0.250106 0.072629
C59   C     C_R   0.553293 0.243030 0.315777 0.082175
C60   C     C_R   0.646149 0.315239 0.316215 -0.238757
C61   C     C_R   0.450939 0.105967 0.252324 -0.243797
C62   C     C_R   0.377065 0.097913 0.317415 0.296423
C63   C     C_R   0.394588 0.162026 0.382617 0.270219
C64   C     C_R   0.480031 0.233609 0.380983 -0.325987
H17   H     H_    0.842069 0.443477 0.298869 0.156884
H18   H     H_    0.993503 0.452321 0.189768 0.190557
H19   H     H_    0.791730 0.217642 0.069853 0.155748
H20   H     H_    0.436962 0.055132 0.203484 0.193973
H21   H     H_    0.495836 0.280740 0.432415 0.165829
O11   O     O_R   0.775200 0.060470 0.937800 -0.579071
O12   O     O_R   0.441110 0.093720 0.087350 -0.589780
O13   O     O_R   0.266330 0.939630 0.062280 -0.567752
C65   C     C_R   0.609802 0.116077 0.115535 0.975954
O14   O     O_R   0.445750 0.069950 0.939820 -0.571839
O15   O     O_R   0.271000 0.915700 0.913700 -0.594644
C66   C     C_R   0.615364 0.086160 0.919286 1.035136
O16   O     O_R   0.770530 0.084400 0.086380 -0.580320
O17   O     O_3   0.602830 0.949510 0.991680 -0.251306
V3    V     V_3+5 0.329710 0.009370 0.001550 1.267132
O18   O     O_R   0.940990 0.906170 0.912570 -0.588667
C67   C     C_R   0.109951 0.883633 0.884774 0.938356
O19   O     O_R   0.936350 0.929940 0.060100 -0.568491
C68   C     C_R   0.104204 0.913199 0.080104 1.032142
V4    V     V_3+5 0.829160 0.990450 0.998310 1.267988
O20   O     O_3   0.105910 0.050480 0.008320 -0.256433
N1    N     N_R   0.854915 0.699950 0.435344 0.243190
O21   O     O_R   0.896549 0.730107 0.504099 -0.407119
O22   O     O_R   0.694679 0.659920 0.416348 -0.377012
I1    I     I_    0.633126 0.842225 0.423854 -0.226713
N2    N     N_R   0.830196 0.936694 0.195846 0.233773
O23   O     O_R   0.654918 0.916074 0.174197 -0.381594
O24   O     O_R   0.879840 0.011872 0.217935 -0.394481
I2    I     I_    0.428465 0.770007 0.023106 -0.378690
I3    I     I_    0.665696 0.589178 0.203132 -0.396187
N3    N     N_R   0.476460 0.247730 0.965937 0.219481
O25   O     O_R   0.550696 0.312892 0.010332 -0.379441
O26   O     O_R   0.320453 0.217946 0.985284 -0.348934
I4    I     I_    0.785205 0.980080 0.761833 -0.435894
I5    I     I_    0.116844 0.478016 0.687923 -0.391832
N4    N     N_R   0.336202 0.154164 0.451530 0.252366
O27   O     O_R   0.273571 0.215930 0.503404 -0.401192
O28   O     O_R   0.371165 0.088805 0.466295 -0.333154
N5    N     N_R   0.988380 0.342461 0.056351 0.267544
O29   O     O_R   0.093993 0.404625 0.058295 -0.355661
O30   O     O_R   0.957620 0.288249 0.993711 -0.352070
N6    N     N_R   0.281735 0.024821 0.316262 0.262105
O31   O     O_R   0.120908 0.026290 0.351821 -0.330703
O32   O     O_R   0.348824 0.956523 0.275980 -0.374312

loop_
_geom_bond_atom_site_label_1
_geom_bond_atom_site_label_2
_geom_bond_distance
_ccdc_geom_bond_type
C59   C60   1.417962 A    
C22   C23   1.428714 A    
C6    C7    1.380983 A    
C31   I3    2.128100 S    
C1    O6    1.299552 A    
N4    O27   1.301715 A    
N1    O21   1.301260 A    
C35   C36   1.418459 A    
N3    O25   1.300370 A    
O17   V4    1.708476 S    
C26   C27   1.398945 A    
C33   C34   1.415708 A    
C12   C15   1.417123 A    
C16   H6    1.082818 S    
C13   C14   1.423004 A    
C38   C41   1.412080 A    
C8    C9    1.416541 A    
C15   C16   1.392075 A    
C45   C50   1.404219 A    
O5    C3    1.294875 A    
C17   C18   1.392013 A    
C62   N6    1.435710 S    
N3    O26   1.299768 A    
O17   V3    2.161405 S    
C43   C48   1.407123 A    
C32   N2    1.434291 S    
O18   C67   1.298874 A    
C5    C6    1.397572 A    
C2    C60   1.487242 S    
N2    O23   1.299908 A    
V3    O20   1.710646 S    
O19   C68   1.299546 A    
O8    V2    1.997194 S    
C39   C44   1.421252 A    
C21   N1    1.429331 S    
C28   C29   1.417160 A    
C15   H5    1.081283 S    
C46   C47   1.395651 A    
C48   C49   1.403740 A    
O1    V2    2.001511 S    
C10   C14   1.434557 A    
C4    C14   1.486761 S    
O7    V1    2.161433 S    
C50   H14   1.082840 S    
C44   C45   1.411254 A    
C13   C18   1.419684 A    
O9    C4    1.299220 A    
H1    C17   1.082141 S    
C51   C56   1.414403 A    
C47   H16   1.080637 S    
C6    H2    1.083356 S    
O4    V1    1.999205 S    
V4    O20   2.160663 S    
C64   H21   1.081087 S    
C53   C54   1.403810 A    
N2    O24   1.300874 A    
C34   I2    2.154753 S    
C65   O16   1.296088 A    
C29   C34   1.417211 A    
O11   V4    1.998033 S    
C63   N4    1.438859 S    
C41   C42   1.397140 A    
C32   C33   1.412563 A    
C35   C40   1.417809 A    
C11   C12   1.416063 A    
C20   C21   1.416326 A    
O4    C2    1.296283 A    
C58   C59   1.421123 A    
N6    O32   1.299792 A    
C8    H4    1.079950 S    
C41   H11   1.079413 S    
C33   C68   1.485507 S    
C12   C13   1.422174 A    
C57   C58   1.424233 A    
C27   C32   1.411040 A    
C54   C55   1.418088 A    
C45   C46   1.397587 A    
C40   C47   1.412275 A    
C18   H7    1.080694 S    
C38   C39   1.416466 A    
C37   I4    2.144466 S    
O2    C1    1.294081 A    
C16   C17   1.386728 A    
C5    I5    2.123392 S    
C35   N3    1.438788 S    
C55   C56   1.422392 A    
C19   H8    1.080604 S    
O14   V3    1.998029 S    
O14   C66   1.295525 A    
O3    C4    1.297220 A    
C7    H3    1.082955 S    
C21   C22   1.426302 A    
O12   C65   1.299386 A    
O16   V4    2.007429 S    
C43   C44   1.412008 A    
O6    V2    1.997550 S    
O9    V2    2.001849 S    
C22   C25   1.427511 A    
C9    C11   1.418736 A    
C36   C66   1.486806 S    
C23   C24   1.418433 A    
C52   H18   1.082688 S    
N5    O29   1.301722 A    
O2    V1    1.998089 S    
C63   C64   1.397794 A    
C57   C65   1.490522 S    
C25   C26   1.393261 A    
C46   H15   1.083990 S    
C27   C28   1.408628 A    
C29   C30   1.403414 A    
O13   V3    1.997767 S    
C54   H19   1.079951 S    
C55   C57   1.422600 A    
O1    C2    1.296909 A    
C11   C67   1.489677 S    
C56   C60   1.418912 A    
C52   C53   1.396516 A    
N5    O30   1.301546 A    
C58   C61   1.416025 A    
N4    O28   1.301446 A    
O5    V1    1.997954 S    
N1    O22   1.300868 A    
O8    C3    1.302423 A    
C24   C31   1.409681 A    
C51   H17   1.080920 S    
N6    O31   1.301412 A    
C30   H10   1.078932 S    
O12   V3    1.999047 S    
O15   C67   1.295141 A    
C42   C43   1.397905 A    
C3    C20   1.486832 S    
C36   C37   1.415185 A    
C19   C24   1.399938 A    
O3    V1    2.000032 S    
V1    O10   1.710633 S    
C62   C63   1.407160 A    
C19   C20   1.395069 A    
C25   I1    2.138790 S    
C61   H20   1.081046 S    
C5    C10   1.437056 A    
O11   C66   1.301304 A    
C23   C28   1.423684 A    
O7    V2    1.710369 S    
C39   C40   1.416409 A    
O19   V4    1.997127 S    
C53   N5    1.441135 S    
C51   C52   1.391036 A    
O18   V4    2.001674 S    
C37   C38   1.417448 A    
C49   C50   1.401000 A    
C7    C8    1.383728 A    
C26   H9    1.082156 S    
O13   C68   1.296895 A    
C30   C31   1.391635 A    
C48   H13   1.084659 S    
C42   H12   1.083934 S    
C9    C10   1.433759 A    
O15   V3    2.000022 S    
C61   C62   1.403936 A    
C59   C64   1.413907 A    
C1    C49   1.475276 S    
V2    O10   2.160589 S    
