data_mof_unit_41331.cif
_audit_creation_date              2012-12-10T17:44:32-0500
_audit_creation_method            fapswitch 2.2
_symmetry_space_group_name_H-M    P1
_symmetry_Int_Tables_number       1
_space_group_crystal_system       triclinic
_cell_length_a                    9.952872
_cell_length_b                    10.627108
_cell_length_c                    15.403695
_cell_angle_alpha                 91.718381
_cell_angle_beta                  67.678891
_cell_angle_gamma                 89.884037
_cell_volume                      1506.33617721

loop_
_atom_site_label
_atom_site_type_symbol
_atom_type_description
_atom_site_fract_x
_atom_site_fract_y
_atom_site_fract_z
_atom_type_partial_charge
C1    C     C_R   0.501348 0.739183 0.497463 0.888308
C2    C     C_R   0.413823 0.462349 0.911074 0.037254
C3    C     C_R   0.299093 0.377293 0.951244 0.150815
C4    C     C_R   0.523868 0.471792 0.947690 0.119374
C5    C     C_R   0.496362 0.429092 0.038330 0.067754
C6    C     C_R   0.371917 0.355344 0.082564 -0.234320
C7    C     C_R   0.277837 0.325912 0.037599 -0.216036
C8    C     C_R   0.664525 0.511781 0.892530 -0.245220
C9    C     C_R   0.772313 0.524348 0.929534 -0.140416
C10   C     C_R   0.736865 0.503547 0.025853 0.097103
C11   C     C_R   0.596153 0.459222 0.080652 0.094089
C12   C     C_R   0.408354 0.498134 0.675894 0.929158
C13   C     C_R   0.836768 0.525461 0.069574 -0.168017
C14   C     C_R   0.792417 0.519557 0.166822 -0.198945
C15   C     C_R   0.554461 0.454551 0.177742 -0.259699
C16   C     C_R   0.466580 0.862144 0.340952 -0.175697
C17   C     C_R   0.448295 0.924738 0.267805 -0.115391
C18   C     C_R   0.448710 0.055679 0.267667 -0.140970
C19   C     C_R   0.467463 0.124487 0.340664 -0.191979
C20   C     C_R   0.484400 0.062474 0.416041 0.101879
C21   C     C_R   0.483926 0.930516 0.416214 0.089054
C22   C     C_R   0.505416 0.871296 0.490827 -0.102801
C23   C     C_R   0.501843 0.260666 0.497095 0.857029
C24   C     C_R   0.533239 0.938495 0.560909 -0.190830
C25   C     C_R   0.533411 0.067004 0.560841 -0.210345
C26   C     C_R   0.506218 0.128062 0.490503 -0.095864
C27   C     C_R   0.792801 0.672789 0.617919 -0.163072
C28   C     C_R   0.829660 0.758246 0.675162 -0.210819
C29   C     C_R   0.968305 0.756562 0.675784 -0.140634
C30   C     C_R   0.070946 0.669588 0.618965 -0.054281
C31   C     C_R   0.038378 0.584150 0.558306 0.152764
C32   C     C_R   0.894319 0.584792 0.558032 0.155662
C33   C     C_R   0.961668 0.419214 0.444096 -0.116069
C34   C     C_R   0.591374 0.497420 0.323789 0.834235
C35   C     C_R   0.104573 0.419363 0.444018 -0.104621
C36   C     C_R   0.349368 0.476711 0.776367 -0.073216
C37   C     C_R   0.648841 0.489650 0.221267 -0.060001
C38   C     C_R   0.211778 0.341172 0.902121 -0.227784
C39   C     C_R   0.244838 0.383384 0.811728 -0.160434
C40   C     C_R   0.416991 0.530323 0.833193 -0.125321
H1    H     H_    0.188930 0.262468 0.070188 0.149576
H2    H     H_    0.947972 0.550853 0.030157 0.183607
H3    H     H_    0.551854 0.891278 0.616830 0.185823
H4    H     H_    0.469333 0.760443 0.336920 0.153787
H5    H     H_    0.435332 0.871414 0.210555 0.153163
H6    H     H_    0.436082 0.104087 0.210323 0.135709
H7    H     H_    0.470912 0.225863 0.336445 0.137892
H8    H     H_    0.551645 0.119258 0.616884 0.156248
H9    H     H_    0.935319 0.353129 0.398338 0.145145
H10   H     H_    0.683824 0.678106 0.622870 0.233964
H11   H     H_    0.749501 0.825254 0.720115 0.170978
H12   H     H_    0.444262 0.431792 0.221444 0.153309
H13   H     H_    0.995858 0.821418 0.721816 0.176088
H14   H     H_    0.173048 0.668986 0.626509 0.215004
H15   H     H_    0.185045 0.353355 0.398157 0.139880
H16   H     H_    0.868575 0.542959 0.199513 0.164342
H17   H     H_    0.127166 0.272395 0.929966 0.149201
H18   H     H_    0.191966 0.340742 0.768592 0.181650
H19   H     H_    0.351334 0.311227 0.148569 0.135733
H20   H     H_    0.692013 0.531536 0.819188 0.155960
N1    N     N_R   0.856800 0.501200 0.500850 -0.117433
N2    N     N_R   0.142390 0.501280 0.500880 -0.119244
O1    O     O_R   0.385310 0.683220 0.500000 -0.642706
O2    O     O_R   0.614640 0.683250 0.500010 -0.625792
O3    O     O_R   0.319840 0.499980 0.632240 -0.596138
O4    O     O_R   0.549160 0.500000 0.632250 -0.635709
O5    O     O_R   0.385360 0.316750 0.499990 -0.617815
O6    O     O_R   0.614690 0.316780 0.500000 -0.611586
O7    O     O_R   0.450840 0.500000 0.367750 -0.627291
O8    O     O_R   0.680160 0.500020 0.367760 -0.608633
Zn1   Zn    Zn3+2 0.346880 0.499980 0.499990 0.943257
Zn2   Zn    Zn3+2 0.653120 0.500020 0.500010 0.940518
C41   C     C_2   0.918132 0.563851 0.865217 0.929916
O9    O     O_2   0.976408 0.654396 0.886028 -0.590596
O10   O     O_R   0.988104 0.501343 0.778456 -0.796541
H21   H     H_    0.933321 0.425591 0.768528 0.292138
C42   C     C_2   0.460219 0.665834 0.823333 0.897485
O11   O     O_2   0.450236 0.726460 0.759780 -0.687184
O12   O     O_R   0.498751 0.727819 0.891738 -0.793794
H22   H     H_    0.521285 0.819903 0.878443 0.338393

loop_
_geom_bond_atom_site_label_1
_geom_bond_atom_site_label_2
_ccdc_geom_bond_type
C14   H16   S    
C16   C21   A    
C34   C37   S    
C41   O9    D    
C19   C20   A    
C4    C8    A    
C42   O11   D    
C30   H14   S    
C29   H13   S    
C28   C29   A    
C17   H5    S    
C32   N1    A    
C5    C11   A    
C3    C7    A    
C5    C6    A    
C28   H11   S    
C19   H7    S    
C33   H9    S    
C1    O1    A    
C18   C19   A    
C23   C26   S    
C23   O5    A    
O7    Zn1   S    
C15   C37   A    
C11   C15   A    
O4    Zn2   S    
C3    C38   A    
C8    C9    A    
C12   C36   S    
C9    C10   A    
C34   O8    A    
C27   H10   S    
C7    H1    S    
C1    C22   S    
C13   C14   A    
C41   O10   S    
C31   N2    A    
C9    C41   S    
C18   H6    S    
C13   H2    S    
C42   O12   S    
C38   C39   A    
C35   H15   S    
C36   C40   A    
C24   C25   A    
C16   C17   A    
C25   C26   A    
O3    Zn1   S    
C39   H18   S    
C12   O4    A    
C23   O6    A    
C2    C4    A    
O10   H21   S    
C29   C30   A    
C38   H17   S    
C31   C32   A    
C25   H8    S    
O6    Zn2   S    
C17   C18   A    
C15   H12   S    
C34   O7    A    
N1    Zn2   S    
O1    Zn1   S    
C22   C24   A    
C1    O2    A    
C16   H4    S    
C27   C32   A    
C6    H19   S    
C36   C39   A    
C4    C5    A    
C10   C13   A    
C6    C7    A    
C12   O3    A    
C2    C3    A    
C8    H20   S    
C14   C37   A    
C30   C31   A    
C20   C26   A    
C33   C35   A    
N2    Zn1   S    
C35   N2    A    
O5    Zn1   S    
O2    Zn2   S    
C10   C11   A    
O12   H22   S    
C2    C40   A    
C20   C21   A    
C33   N1    A    
C27   C28   A    
C24   H3    S    
C40   C42   S    
O8    Zn2   S    
C21   C22   A    
