data_mof_unit_57555.cif
_audit_creation_date              2013-03-05T16:46:09-0500
_audit_creation_method            fapswitch 2.2
_symmetry_space_group_name_H-M    P1
_symmetry_Int_Tables_number       1
_space_group_crystal_system       triclinic
_cell_length_a                    10.765389
_cell_length_b                    10.735273
_cell_length_c                    9.877125
_cell_angle_alpha                 88.331676
_cell_angle_beta                  90.755491
_cell_angle_gamma                 90.554777
_cell_volume                      1140.86087486

loop_
_atom_site_label
_atom_site_type_symbol
_atom_site_description
_atom_site_fract_x
_atom_site_fract_y
_atom_site_fract_z
_atom_type_partial_charge
O1    O     O_R   0.500020 0.316790 0.614690 -0.629740
O2    O     O_R   0.500000 0.316760 0.385350 -0.618222
C1    C     C_R   0.501196 0.259478 0.501309 0.894562
O3    O     O_R   0.316770 0.500030 0.614670 -0.577987
O4    O     O_R   0.316750 0.499990 0.385330 -0.642721
C2    C     C_R   0.260101 0.502084 0.498746 0.905402
Zn1   Zn    Zn3+2 0.500010 0.500020 0.653130 0.987751
Zn2   Zn    Zn3+2 0.499990 0.499980 0.346870 0.972465
O5    O     O_R   0.500000 0.683240 0.614650 -0.597081
O6    O     O_R   0.499980 0.683210 0.385310 -0.639219
O7    O     O_R   0.683250 0.500010 0.614670 -0.631520
O8    O     O_R   0.683230 0.499970 0.385330 -0.598219
C3    C     C_R   0.505224 0.739547 0.498156 0.903416
C4    C     C_R   0.739886 0.497778 0.501341 0.903355
C5    C     C_R   0.201943 0.772899 0.129041 0.274370
C6    C     C_R   0.163470 0.715389 0.251190 -0.324429
H1    H     H_    0.168049 0.766878 0.343922 0.214747
C7    C     C_R   0.115761 0.593305 0.254749 -0.030930
C8    C     C_R   0.111529 0.524349 0.134566 0.506277
C9    C     C_R   0.148793 0.582468 0.013008 -0.369298
H2    H     H_    0.138961 0.531738 0.920297 0.206625
C10   C     C_R   0.191512 0.706441 0.007817 0.207263
C11   C     C_R   0.931853 0.541124 0.386907 -0.176725
H3    H     H_    0.879076 0.575648 0.299509 0.163715
C12   C     C_R   0.872402 0.496731 0.503578 -0.065711
C13   C     C_R   0.940612 0.452571 0.617815 0.085522
C14   C     C_R   0.068113 0.455733 0.612485 -0.185447
H4    H     H_    0.121027 0.420800 0.699594 0.164594
C15   C     C_R   0.127541 0.502210 0.496619 -0.107775
C16   C     C_R   0.059288 0.544389 0.381685 0.047752
C17   C     C_R   0.867457 0.493521 0.847389 -0.290406
H5    H     H_    0.888555 0.591259 0.827848 0.181704
C18   C     C_R   0.825607 0.455652 0.974867 -0.106738
H6    H     H_    0.815261 0.524592 0.051583 0.147762
C19   C     C_R   0.801346 0.330299 0.006615 0.614352
C20   C     C_R   0.817951 0.242052 0.904611 -0.387976
H7    H     H_    0.798737 0.144477 0.924918 0.174543
C21   C     C_R   0.858874 0.278833 0.774301 0.304090
C22   C     C_R   0.884336 0.406764 0.746258 0.022965
C23   C     C_R   0.566820 0.059447 0.607667 0.189406
C24   C     C_R   0.512846 0.126774 0.499647 -0.121409
C25   C     C_R   0.484399 0.065809 0.379037 -0.177154
H8    H     H_    0.448042 0.115062 0.290979 0.192759
C26   C     C_R   0.492243 0.937965 0.374658 -0.172042
H9    H     H_    0.462883 0.891997 0.283538 0.215577
C27   C     C_R   0.524051 0.870454 0.492571 -0.126251
C28   C     C_R   0.572102 0.931851 0.603937 0.136035
C29   C     C_3   0.544465 0.913278 0.750341 -0.403346
C30   C     C_3   0.535224 0.052963 0.754383 -0.466825
H10   H     H_    0.454378 0.865171 0.769959 0.273998
H11   H     H_    0.625421 0.875812 0.808813 0.194655
H12   H     H_    0.438712 0.083135 0.772542 0.236685
H13   H     H_    0.609732 0.093235 0.818343 0.202504
C31   C     C_R   0.422410 0.421911 0.072587 0.201260
N1    N     N_R   0.499160 0.499140 0.142800 -0.096959
C32   C     C_R   0.564312 0.587754 0.070181 -0.113793
H14   H     H_    0.619501 0.656124 0.123048 0.138287
C33   C     C_R   0.564737 0.587403 0.926195 -0.097640
H15   H     H_    0.621082 0.654726 0.870782 0.138956
N2    N     N_R   0.499160 0.499180 0.857150 -0.102024
C34   C     C_R   0.421301 0.423320 0.929796 0.225381
C35   C     C_3   0.423457 0.286246 0.926786 -0.492896
C36   C     C_3   0.426140 0.283374 0.079262 -0.467655
H16   H     H_    0.336783 0.247056 0.882010 0.224999
H17   H     H_    0.512251 0.256940 0.884203 0.212316
H18   H     H_    0.341560 0.239713 0.122941 0.216749
H19   H     H_    0.515246 0.247911 0.121895 0.241448
N3    N     N_R   0.214473 0.765848 0.878167 0.223059
O9    O     O_R   0.175510 0.878517 0.852176 -0.324440
O10   O     O_R   0.254389 0.700873 0.778844 -0.405635
O11   O     O_3   0.758153 0.302558 0.136712 -0.607764
C37   C     C_3   0.777291 0.177659 0.179475 -0.248804
H20   H     H_    0.761016 0.169728 0.290039 0.234754
H21   H     H_    0.874405 0.147888 0.162159 0.185435
H22   H     H_    0.708926 0.114850 0.130043 0.141194
N4    N     N_R   0.875210 0.185387 0.674043 0.206709
O12   O     O_R   0.869321 0.213945 0.545226 -0.442152
O13   O     O_R   0.886868 0.068666 0.711106 -0.375051
N5    N     N_R   0.250167 0.898317 0.129637 0.218560
O14   O     O_R   0.341623 0.931736 0.051260 -0.407601
O15   O     O_R   0.212120 0.975749 0.218846 -0.436147
O16   O     O_3   0.054609 0.408089 0.126432 -0.620641
C38   C     C_3   0.107560 0.318991 0.217189 -0.230826
H23   H     H_    0.046593 0.304222 0.306013 0.216381
H24   H     H_    0.203237 0.342598 0.251377 0.153325
H25   H     H_    0.111896 0.228916 0.165344 0.213534

loop_
_geom_bond_atom_site_label_1
_geom_bond_atom_site_label_2
_geom_bond_distance
_ccdc_geom_bond_type
C23   C28   1.373102 A    
N1    C32   1.368210 A    
C14   C15   1.395655 A    
C24   C25   1.404700 A    
C8    C9    1.398574 A    
C21   N4    1.443515 S    
Zn1   O7    2.013807 S    
C13   C14   1.374356 A    
C15   C16   1.410020 A    
C38   H23   1.109368 S    
C20   H7    1.079320 S    
N4    O13   1.301905 A    
C37   H22   1.111195 S    
O4    C2    1.283385 A    
O7    C4    1.282629 A    
C13   C22   1.482059 S    
C31   C36   1.487683 S    
C33   N2    1.368363 A    
C5    C6    1.404690 A    
C32   H14   1.081690 S    
C7    C8    1.417130 A    
O5    C3    1.285704 A    
C35   H16   1.111570 S    
C27   C28   1.390174 A    
C29   H11   1.111243 S    
C5    N5    1.438466 S    
C28   C29   1.487526 S    
C32   C33   1.422345 A    
N3    O9    1.301424 A    
C11   H3    1.085305 S    
C17   C18   1.391129 A    
C7    C16   1.480831 S    
C8    O16   1.389030 S    
C29   H10   1.110964 S    
C36   H18   1.106890 S    
C19   O11   1.395308 S    
C25   C26   1.377817 A    
O3    Zn1   2.003969 S    
Zn2   N1    2.015809 S    
C26   C27   1.394291 A    
C5    C10   1.414168 A    
C36   H19   1.108833 S    
C11   C16   1.373603 A    
N4    O12   1.300921 A    
O3    C2    1.289975 A    
N5    O15   1.301500 A    
C6    H1    1.083814 S    
C12   C13   1.410967 A    
N2    C34   1.359860 A    
O1    C1    1.293625 A    
C19   C20   1.417076 A    
C35   C36   1.505348 S    
C17   H5    1.083745 S    
Zn2   O8    2.003970 S    
C30   H12   1.109678 S    
C2    C15   1.426949 S    
C18   H6    1.082024 S    
C6    C7    1.402667 A    
C10   N3    1.437158 S    
C37   H21   1.113010 S    
C23   C24   1.394709 A    
C38   H24   1.109010 S    
O8    C4    1.290670 A    
C25   H8    1.075874 S    
Zn1   N2    2.015030 S    
C26   H9    1.081101 S    
Zn1   O5    1.992409 S    
C31   N1    1.362385 A    
C29   C30   1.505538 S    
C35   H17   1.101702 S    
O1    Zn1   2.014157 S    
O2    Zn2   1.992407 S    
C9    C10   1.403627 A    
C37   H20   1.108999 S    
O6    C3    1.283831 A    
O4    Zn2   2.013807 S    
C31   C34   1.409900 A    
C20   C21   1.410176 A    
O2    C1    1.284088 A    
C33   H15   1.080314 S    
O11   C37   1.410224 S    
C21   C22   1.417945 A    
C30   H13   1.106900 S    
C18   C19   1.395784 A    
C17   C22   1.400162 A    
C11   C12   1.395080 A    
C4    C12   1.426614 S    
C34   C35   1.473113 S    
C1    C24   1.431928 S    
N5    O14   1.301709 A    
C38   H25   1.108956 S    
C9    H2    1.082443 S    
Zn2   O6    2.014157 S    
O16   C38   1.410860 S    
C14   H4    1.085269 S    
N3    O10   1.300149 A    
C3    C27   1.417497 S    
C23   C30   1.492384 S    
