data_mof_unit_66099.cif
_audit_creation_date              2012-12-11T15:58:30-0500
_audit_creation_method            fapswitch 2.2
_symmetry_space_group_name_H-M    P1
_symmetry_Int_Tables_number       1
_space_group_crystal_system       triclinic
_cell_length_a                    8.268884
_cell_length_b                    18.880973
_cell_length_c                    19.128929
_cell_angle_alpha                 99.197849
_cell_angle_beta                  94.847016
_cell_angle_gamma                 91.728449
_cell_volume                      2934.6571212

loop_
_atom_site_label
_atom_site_type_symbol
_atom_type_description
_atom_site_fract_x
_atom_site_fract_y
_atom_site_fract_z
_atom_type_partial_charge
Ba1   Ba    Ba6+2 0.152460 0.535140 0.468980 1.909137
Ba2   Ba    Ba6+2 0.657710 0.464850 0.530960 1.953898
C1    C     C_3   0.341762 0.739318 0.220119 1.670677
C2    C     C_R   0.098907 0.904497 0.565126 -0.033030
C3    C     C_R   0.256890 0.927408 0.594129 0.008169
C4    C     C_3   0.895589 0.732889 0.329959 0.360210
C5    C     C_R   0.319687 0.995159 0.588175 -0.030000
C6    C     C_R   0.223922 0.042998 0.555545 -0.001107
C7    C     C_R   0.064491 0.021345 0.526815 0.044590
C8    C     C_R   0.285591 0.112273 0.552803 0.585510
C9    C     C_R   0.185457 0.163753 0.526733 -0.045139
C10   C     C_R   0.026850 0.141107 0.494255 -0.063420
C11   C     C_R   0.967949 0.069300 0.493862 0.083327
C12   C     C_3   0.418516 0.737460 0.294960 0.840811
C13   C     C_R   0.236484 0.237170 0.532938 0.108260
C14   C     C_R   0.129411 0.286079 0.508651 -0.150343
C15   C     C_R   0.979332 0.264366 0.470607 0.090457
C16   C     C_3   0.909520 0.808823 0.312980 0.741567
C17   C     C_R   0.928420 0.189452 0.461074 -0.099352
C18   C     C_R   0.846650 0.927649 0.499593 0.031188
C19   C     C_R   0.789462 0.855692 0.499838 -0.069092
C20   C     C_R   0.889152 0.807007 0.531932 -0.113026
C21   C     C_R   0.037709 0.835409 0.570056 0.662774
C22   C     C_R   0.784720 0.160444 0.419155 0.675231
C23   C     C_3   0.496998 0.685151 0.649639 0.743990
C24   C     C_R   0.722108 0.089817 0.420998 -0.118360
C25   C     C_R   0.812137 0.045332 0.461238 -0.038287
C26   C     C_R   0.750234 0.975137 0.465615 0.024200
C27   C     C_R   0.571666 0.061841 0.383673 0.439431
C28   C     C_3   0.782479 0.377669 0.310116 0.273036
C29   C     C_R   0.501853 0.996497 0.395784 0.333790
C30   C     C_R   0.592139 0.952183 0.435663 -0.062149
C31   C     C_R   0.631474 0.833039 0.468578 0.035612
C32   C     C_R   0.531274 0.883358 0.442039 0.031967
C33   C     C_R   0.580066 0.759968 0.462010 0.035595
C34   C     C_3   0.551059 0.762985 0.679383 1.552122
C35   C     C_R   0.686090 0.710678 0.485871 -0.234934
C36   C     C_R   0.836301 0.732462 0.523574 0.120852
C37   C     C_R   0.605945 0.534003 0.302699 -0.498091
C38   C     C_R   0.458433 0.496849 0.278027 -0.015784
C39   C     C_R   0.403164 0.489734 0.205489 0.645043
C40   C     C_3   0.742900 0.353386 0.229403 0.797366
C41   C     C_R   0.497084 0.518463 0.157577 -0.047827
C42   C     C_R   0.647821 0.554288 0.183257 0.622377
C43   C     C_R   0.703294 0.560586 0.255468 -0.077277
C44   C     C_R   0.418634 0.568088 0.045924 0.631833
C45   C     C_3   0.965556 0.266598 0.712910 1.177261
C46   C     C_R   0.364459 0.559426 0.973753 0.665110
C47   C     C_R   0.338269 0.490570 0.933053 -0.164772
C48   C     C_R   0.358655 0.430585 0.967587 -0.067108
C49   C     C_R   0.409482 0.439205 0.040404 0.675952
C50   C     C_R   0.441217 0.508334 0.080336 -0.168400
C51   C     C_R   0.141727 0.445384 0.825416 0.352736
C52   C     C_3   0.057556 0.662541 0.702821 0.695362
C53   C     C_R   0.099398 0.435769 0.751390 0.064594
C54   C     C_R   0.345493 0.503431 0.735606 -0.089866
C55   C     C_R   0.392866 0.510712 0.809097 0.377410
C56   C     C_3   0.900924 0.189198 0.708296 0.890677
C57   C     C_R   0.291266 0.481304 0.854710 0.046094
C58   C     C_R   0.204700 0.462614 0.707298 -0.355685
C59   C     C_3   0.098682 0.719683 0.769394 1.405959
C60   C     C_3   0.259210 0.308861 0.336668 0.890074
C61   C     C_3   0.158212 0.257288 0.278538 1.220239
C62   C     C_3   0.448967 0.308800 0.711307 0.243329
C63   C     C_3   0.485936 0.287437 0.784196 0.541057
C64   C     C_R   0.003385 0.951021 0.530120 -0.020272
Cl1   Cl    Cl    0.857203 0.404530 0.178469 -0.446908
Cl2   Cl    Cl    0.967007 0.586441 0.729506 -0.624940
Cl3   Cl    Cl    0.265532 0.695746 0.824255 -0.346251
Cl4   Cl    Cl    0.381947 0.258415 0.388019 -0.602142
Cl5   Cl    Cl    0.063417 0.129169 0.706283 -0.554554
Cl6   Cl    Cl    0.473585 0.101934 0.315171 -0.299687
Cl7   Cl    Cl    0.303023 0.969000 0.356481 -0.543353
Cl8   Cl    Cl    0.579776 0.556265 0.843468 -0.372033
Cl9   Cl    Cl    0.002164 0.417394 0.881745 -0.460732
F1    F     F_    0.579870 0.358345 0.209955 -0.636208
F2    F     F_    0.616060 0.653975 0.610613 -0.750875
F3    F     F_    0.692505 0.765289 0.723770 -0.549861
F4    F     F_    0.578219 0.800006 0.624520 -0.764938
F5    F     F_    0.432708 0.796366 0.717596 -0.596554
F6    F     F_    0.242753 0.797052 0.220075 -0.578656
F7    F     F_    0.038859 0.272172 0.651536 -0.795026
F8    F     F_    0.078108 0.282949 0.771556 -0.735255
F9    F     F_    0.796152 0.169726 0.647439 -0.644849
F10   F     F_    0.497961 0.347910 0.835705 -0.703088
F11   F     F_    0.444200 0.127636 0.575650 -0.658684
F12   F     F_    0.136939 0.785040 0.749934 -0.542117
F13   F     F_    0.125211 0.797906 0.613318 -0.649056
F14   F     F_    0.708099 0.200068 0.374967 -0.610683
F15   F     F_    0.336607 0.618721 0.943823 -0.515384
F16   F     F_    0.448321 0.635311 0.082260 -0.507092
F17   F     F_    0.261079 0.452541 0.181053 -0.559299
F18   F     F_    0.431686 0.379942 0.071327 -0.519490
F19   F     F_    0.744110 0.579196 0.137591 -0.559173
F20   F     F_    0.831747 0.811516 0.246599 -0.498244
F21   F     F_    0.966232 0.728319 0.809191 -0.516654
F22   F     F_    0.160560 0.347510 0.380640 -0.807076
F23   F     F_    0.250649 0.676394 0.194929 -0.665958
F24   F     F_    0.076823 0.295632 0.232137 -0.644414
F25   F     F_    0.257518 0.210893 0.240362 -0.536837
F26   F     F_    0.532781 0.793755 0.311787 -0.716476
F27   F     F_    0.462944 0.746919 0.176023 -0.510143
H1    H     H_    0.478798 0.685522 0.295125 -0.262601
H2    H     H_    0.602959 0.260379 0.786845 0.083892
H3    H     H_    0.969917 0.731563 0.380880 -0.107726
H4    H     H_    0.388454 0.249996 0.794967 0.128431
H5    H     H_    0.334027 0.892521 0.620465 0.213274
H6    H     H_    0.442897 0.010367 0.610607 0.182805
H7    H     H_    0.167685 0.342305 0.516483 0.071133
H8    H     H_    0.408048 0.867168 0.421693 0.143944
H9    H     H_    0.766506 0.719800 0.336395 -0.055050
H10   H     H_    0.646322 0.654694 0.478950 0.082894
H11   H     H_    0.335453 0.376860 0.938175 0.234840
H12   H     H_    0.771533 0.296231 0.213846 0.165758
H13   H     H_    0.168920 0.457482 0.650902 0.083039
H14   H     H_    0.039076 0.826163 0.313901 0.083136
H15   H     H_    0.650428 0.537710 0.358054 0.094715
H16   H     H_    0.672619 0.397266 0.334612 -0.029713
H17   H     H_    0.877836 0.421642 0.320660 0.024114
H18   H     H_    0.167485 0.648135 0.675764 -0.389221
H19   H     H_    0.069084 0.225317 0.302398 -0.088326
H20   H     H_    0.384385 0.684714 0.614138 -0.031605
H21   H     H_    0.852929 0.846587 0.353331 -0.079912
H22   H     H_    0.834473 0.184081 0.755430 0.003536
H23   H     H_    0.318597 0.320514 0.704209 0.026337
H24   H     H_    0.523677 0.357928 0.708954 0.065607
O1    O     O_2   0.118870 0.674530 0.547560 -0.444931
O2    O     O_2   0.763553 0.446403 0.744021 -0.374453
O3    O     O_3   0.834951 0.312471 0.720504 -0.635446
O4    O     O_3   0.870460 0.585330 0.542110 -0.459129
O5    O     O_3   0.436130 0.464210 0.414140 -0.488862
O6    O     O_2   0.629420 0.533310 0.672080 -0.336818
O7    O     O_3   0.469363 0.648359 0.706145 -0.583990
O8    O     O_2   0.577320 0.244400 0.531614 -0.354308
O9    O     O_3   0.487798 0.252481 0.659169 -0.532388
O10   O     O_3   0.354280 0.631750 0.418430 -0.491252
O11   O     O_2   0.248855 0.755722 0.475555 -0.490750
O12   O     O_3   0.359936 0.352542 0.304777 -0.530133
O13   O     O_3   0.940377 0.690335 0.659455 -0.511238
O14   O     O_3   0.297627 0.745970 0.342678 -0.655721
O15   O     O_2   0.180880 0.466650 0.327890 -0.404564
O16   O     O_3   0.939000 0.596010 0.380670 -0.553809
O17   O     O_2   0.041505 0.551706 0.254103 -0.343273
O18   O     O_3   0.952759 0.684422 0.274820 -0.489704
O19   O     O_2   0.691430 0.325420 0.452420 -0.386543
O20   O     O_3   0.939830 0.414660 0.457830 -0.484849
O21   O     O_3   0.456020 0.368240 0.581510 -0.535045
O22   O     O_3   0.836809 0.318393 0.339279 -0.573353
O23   O     O_3   0.374170 0.535780 0.585810 -0.479670
O24   O     O_3   0.871300 0.403980 0.619270 -0.477991
P1    P     P_3+3 0.947550 0.663200 0.567530 1.209733
P2    P     P_3+3 0.354660 0.445020 0.336980 1.224344
P3    P     P_3+3 0.909100 0.597056 0.289646 1.161615
P4    P     P_3+3 0.862750 0.336790 0.432410 1.168489
P5    P     P_3+3 0.895671 0.399688 0.710192 1.188462
P6    P     P_3+3 0.373425 0.724655 0.424705 0.983807
P7    P     P_3+3 0.448547 0.555473 0.676095 1.161984
P8    P     P_3+3 0.438482 0.275232 0.574979 1.163617

loop_
_geom_bond_atom_site_label_1
_geom_bond_atom_site_label_2
_ccdc_geom_bond_type
Ba2   O24   S    
C38   C39   A    
C52   H18   S    
C4    H9    S    
C63   H4    S    
C22   F14   S    
C51   C57   A    
C59   F21   S    
C5    C6    A    
Ba2   O19   S    
C53   P5    S    
C10   C11   A    
C38   P2    S    
C24   C25   A    
C35   C36   A    
C45   O3    S    
C23   F2    S    
C18   C64   A    
C33   C35   A    
C22   C24   A    
O10   P6    S    
C41   C50   S    
O17   P3    D    
C52   Cl2   S    
C28   H17   S    
C13   C14   A    
C20   C36   A    
C44   C50   A    
C54   C55   A    
C60   Cl4   S    
Ba1   P2    S    
Ba1   Ba2   S    
C45   F7    S    
O18   P3    S    
C7    C11   A    
C7    C64   A    
C35   H10   S    
C61   F24   S    
Ba1   O16   S    
C59   F12   S    
O2    P5    D    
O1    P1    D    
C9    C13   A    
C40   H12   S    
C29   C30   A    
C14   C15   A    
C1    F6    S    
Ba2   O6    S    
Ba1   O23   S    
C19   C31   A    
C45   F8    S    
Ba1   O10   S    
C23   O7    S    
C23   H20   S    
C16   H21   S    
C37   C43   A    
C27   Cl6   S    
Ba2   O23   S    
C62   O9    S    
Ba2   P4    S    
O9    P8    S    
C46   F15   S    
C53   C58   A    
C16   F20   S    
C39   C41   A    
O5    P2    S    
C51   Cl9   S    
O22   P4    S    
C15   P4    S    
C61   H19   S    
C14   H7    S    
C48   C49   A    
C51   C53   A    
C4    C16   S    
C44   C46   A    
C49   C50   A    
C26   C30   A    
C42   F19   S    
C33   P6    S    
C13   P8    S    
Ba1   O4    S    
C34   F5    S    
C16   H14   S    
C37   C38   A    
O3    P5    S    
C2    C21   A    
C6    C7    A    
C12   F26   S    
C44   F16   S    
C18   C26   A    
O12   P2    S    
Ba2   O21   S    
C37   H15   S    
C54   C58   A    
O11   P6    D    
C30   C32   A    
C55   Cl8   S    
C41   C42   A    
C61   F25   S    
C56   F9    S    
C60   F22   S    
C52   O13   S    
O20   P4    S    
C60   C61   S    
Ba2   O5    S    
C54   P7    S    
C60   O12   S    
C63   F10   S    
C1    C12   S    
C49   F18   S    
O19   P4    D    
C1    F27   S    
C46   C47   A    
O8    P8    D    
C29   Cl7   S    
O14   P6    S    
C47   C48   A    
C62   H24   S    
O24   P5    S    
C40   Cl1   S    
C32   H8    S    
C55   C57   A    
C43   P3    S    
C4    O18   S    
C36   P1    S    
Ba2   O4    S    
C42   C43   A    
C3    C5    A    
C3    H5    S    
C59   Cl3   S    
C8    F11   S    
C5    H6    S    
C40   F1    S    
C28   C40   S    
Ba1   O1    S    
C12   O14   S    
C2    C3    A    
Ba1   O5    S    
C34   F4    S    
C9    C10   A    
C28   O22   S    
C52   C59   S    
Ba2   O20   S    
C28   H16   S    
C56   H22   S    
O6    P7    D    
C47   C57   S    
C21   F13   S    
C48   H11   S    
C62   C63   S    
C17   C22   A    
C27   C29   A    
C34   F3    S    
C45   C56   S    
C2    C64   A    
C1    F23   S    
C12   H1    S    
C10   C17   A    
O13   P1    S    
C31   C33   A    
C4    H3    S    
C31   C32   A    
Ba1   P1    S    
O7    P7    S    
O16   P3    S    
C56   Cl5   S    
Ba1   O15   S    
C8    C9    A    
C23   C34   S    
C15   C17   A    
C39   F17   S    
Ba1   O20   S    
C18   C19   A    
C24   C27   A    
C6    C8    A    
C62   H23   S    
O4    P1    S    
C20   C21   A    
C11   C25   A    
C58   H13   S    
C63   H2    S    
C19   C20   A    
O21   P8    S    
O23   P7    S    
O15   P2    D    
C25   C26   A    
