data_mof_unit_27013.cif
_audit_creation_date              2012-12-10T18:03:58-0500
_audit_creation_method            fapswitch 2.2
_symmetry_space_group_name_H-M    P1
_symmetry_Int_Tables_number       1
_space_group_crystal_system       triclinic
_cell_length_a                    10.841277
_cell_length_b                    9.655273
_cell_length_c                    10.795302
_cell_angle_alpha                 89.467968
_cell_angle_beta                  91.691016
_cell_angle_gamma                 90.032217
_cell_volume                      1129.46265743

loop_
_atom_site_label
_atom_site_type_symbol
_atom_type_description
_atom_site_fract_x
_atom_site_fract_y
_atom_site_fract_z
_atom_type_partial_charge
C1    C     C_R   0.262697 0.500170 0.503130 0.819457
C2    C     C_R   0.737529 0.500582 0.501002 0.821533
C3    C     C_R   0.444296 0.070187 0.403255 0.172032
C4    C     C_R   0.558181 0.068040 0.594734 0.172034
C5    C     C_R   0.437312 0.923541 0.411317 -0.039769
C6    C     C_R   0.562105 0.921523 0.588892 -0.045305
C7    C     C_R   0.500279 0.500695 0.263016 0.779743
C8    C     C_R   0.502069 0.499912 0.737419 0.774886
C9    C     C_R   0.431397 0.599006 0.061253 0.114478
C10   C     C_R   0.432419 0.598810 0.933183 0.105217
C11   C     C_R   0.499182 0.500638 0.129908 -0.071214
C12   C     C_R   0.500823 0.499846 0.871193 -0.077263
C13   C     C_R   0.563203 0.397252 0.068539 -0.225477
C14   C     C_R   0.565205 0.398054 0.940143 -0.239764
C15   C     C_3   0.441110 0.753335 0.926611 -0.454713
C16   C     C_3   0.438526 0.753256 0.066841 -0.486076
C17   C     C_R   0.062899 0.381695 0.476862 -0.260630
C18   C     C_R   0.935541 0.382510 0.474658 -0.269543
C19   C     C_R   0.871737 0.503155 0.503916 -0.188142
C20   C     C_R   0.128843 0.501439 0.508314 -0.188002
C21   C     C_R   0.937088 0.625232 0.535372 0.398059
C22   C     C_R   0.065837 0.621914 0.543585 0.398941
Cu1   Cu    Cu3+1 0.500000 0.640660 0.500000 0.963138
Cu2   Cu    Cu3+1 0.500000 0.359340 0.500000 0.924651
H1    H     H_    0.617740 0.320844 0.119750 0.144916
H2    H     H_    0.624143 0.325009 0.896621 0.156562
H3    H     H_    0.530300 0.790188 0.889987 0.199002
H4    H     H_    0.352854 0.799259 0.102798 0.184220
H5    H     H_    0.357888 0.801410 0.882251 0.184490
H6    H     H_    0.525799 0.791088 0.111523 0.203744
H7    H     H_    0.109488 0.287253 0.452689 0.177168
H8    H     H_    0.887110 0.288907 0.447753 0.172229
H9    H     H_    0.388276 0.864221 0.340909 0.134215
H10   H     H_    0.612126 0.860768 0.658592 0.155264
N1    N     N_R   0.500000 0.852070 0.500000 -0.185769
N2    N     N_R   0.500000 0.147940 0.500000 -0.171010
O1    O     O_R   0.319640 0.618740 0.499990 -0.525798
O2    O     O_R   0.680360 0.618740 0.500010 -0.535349
O3    O     O_R   0.319620 0.381170 0.499990 -0.598567
O4    O     O_R   0.680380 0.381170 0.500010 -0.607864
O5    O     O_R   0.499990 0.618810 0.319660 -0.592687
O6    O     O_R   0.500010 0.618810 0.680340 -0.580616
O7    O     O_R   0.499960 0.381240 0.319650 -0.596317
O8    O     O_R   0.500040 0.381240 0.680350 -0.592555
O9    O     O_3   0.875875 0.744178 0.569721 -0.569233
C23   C     C_3   0.876503 0.840240 0.470297 -0.251505
H11   H     H_    0.819650 0.930857 0.494805 0.168045
H12   H     H_    0.835196 0.795464 0.383876 0.145328
H13   H     H_    0.971117 0.878896 0.453233 0.182303
O10   O     O_3   0.129116 0.739302 0.581470 -0.561431
C24   C     C_3   0.141445 0.736339 0.711785 -0.259947
H14   H     H_    0.186410 0.833945 0.742085 0.174638
H15   H     H_    0.200894 0.648477 0.744154 0.140409
H16   H     H_    0.050216 0.731110 0.756321 0.168710
C25   C     C_3   0.405428 0.123251 0.273995 -0.355597
C26   C     C_3   0.278564 0.193543 0.264846 -0.304515
C27   C     C_3   0.230671 0.204388 0.130518 -0.898710
H17   H     H_    0.296859 0.263454 0.073741 0.268980
H18   H     H_    0.217043 0.099643 0.090621 0.252989
H19   H     H_    0.140654 0.259344 0.126999 0.244440
H20   H     H_    0.211416 0.132759 0.319018 0.200355
H21   H     H_    0.283644 0.299793 0.300211 0.252810
H22   H     H_    0.480002 0.179368 0.228760 0.207990
H23   H     H_    0.398528 0.034246 0.209359 0.149081
C28   C     C_3   0.616047 0.121973 0.714437 -0.380885
C29   C     C_3   0.742189 0.192583 0.698779 -0.271336
C30   C     C_3   0.838860 0.143949 0.795580 -0.910007
H24   H     H_    0.807053 0.164364 0.890556 0.247416
H25   H     H_    0.856598 0.031322 0.785539 0.271903
H26   H     H_    0.926630 0.200743 0.782021 0.255404
H27   H     H_    0.778455 0.169541 0.606111 0.223019
H28   H     H_    0.732241 0.306025 0.708866 0.227521
H29   H     H_    0.547999 0.179776 0.765784 0.200792
H30   H     H_    0.630476 0.035025 0.781791 0.157482

loop_
_geom_bond_atom_site_label_1
_geom_bond_atom_site_label_2
_ccdc_geom_bond_type
C16   H4    S    
C8    O8    A    
C25   C26   S    
C4    N2    A    
C13   C14   A    
Cu1   O2    S    
C11   C13   A    
C9    C10   A    
C2    O2    A    
C21   O9    S    
C29   H27   S    
Cu1   O5    S    
C8    O6    A    
C22   O10   S    
C5    H9    S    
C8    C12   S    
C24   H16   S    
C6    H10   S    
C25   H23   S    
C30   H26   S    
O10   C24   S    
C3    C5    A    
Cu1   O1    S    
O9    C23   S    
C14   H2    S    
C7    C11   S    
C29   H28   S    
C9    C11   A    
C23   H13   S    
C13   H1    S    
C27   H17   S    
Cu2   N2    S    
Cu1   O6    S    
C10   C12   A    
C3    N2    A    
C30   H24   S    
Cu2   O8    S    
C5    N1    A    
C15   H3    S    
C4    C6    A    
C19   C21   A    
C9    C16   S    
C20   C22   A    
C21   C22   A    
C15   H5    S    
Cu1   N1    S    
C10   C15   S    
C7    O5    A    
C4    C28   S    
C17   H7    S    
C26   H21   S    
C27   H18   S    
C18   H8    S    
C1    O3    A    
Cu1   Cu2   S    
C16   H6    S    
C24   H14   S    
C23   H12   S    
C2    O4    A    
C27   H19   S    
C17   C20   A    
C28   H29   S    
C26   C27   S    
Cu2   O4    S    
C17   C18   A    
C28   C29   S    
C29   C30   S    
Cu2   O7    S    
C26   H20   S    
C18   C19   A    
C1    C20   S    
C30   H25   S    
C2    C19   S    
C23   H11   S    
C3    C25   S    
Cu2   O3    S    
C6    N1    A    
C28   H30   S    
C15   C16   S    
C12   C14   A    
C1    O1    A    
C24   H15   S    
C7    O7    A    
C25   H22   S    
