data_mof_unit_49390.cif
_audit_creation_date              2013-03-05T15:53:16-0500
_audit_creation_method            fapswitch 2.2
_symmetry_space_group_name_H-M    P1
_symmetry_Int_Tables_number       1
_space_group_crystal_system       triclinic
_cell_length_a                    11.480632
_cell_length_b                    10.681356
_cell_length_c                    9.986169
_cell_angle_alpha                 90.836766
_cell_angle_beta                  89.900571
_cell_angle_gamma                 90.444234
_cell_volume                      1224.42209028

loop_
_atom_site_label
_atom_site_type_symbol
_atom_site_description
_atom_site_fract_x
_atom_site_fract_y
_atom_site_fract_z
_atom_type_partial_charge
O1    O     O_R   0.500000 0.316780 0.614690 -0.608922
O2    O     O_R   0.499990 0.316750 0.385360 -0.640563
C1    C     C_R   0.508323 0.260703 0.498863 0.958885
O3    O     O_R   0.334450 0.500030 0.614670 -0.573043
O4    O     O_R   0.334440 0.500000 0.385330 -0.581712
C2    C     C_R   0.282224 0.501652 0.500119 0.940221
Zn1   Zn    Zn3+2 0.500010 0.500020 0.653130 0.995060
Zn2   Zn    Zn3+2 0.499990 0.499980 0.346870 1.044685
O5    O     O_R   0.500010 0.683250 0.614640 -0.645018
O6    O     O_R   0.500000 0.683220 0.385310 -0.574263
O7    O     O_R   0.665560 0.500000 0.614670 -0.631828
O8    O     O_R   0.665550 0.499970 0.385330 -0.563602
C3    C     C_R   0.502448 0.739133 0.501307 0.840844
C4    C     C_R   0.717166 0.510435 0.500043 0.901094
C5    C     C_1   0.161658 0.509617 0.500382 -0.031421
C6    C     C_1   0.059361 0.516699 0.500307 0.082936
C7    C     C_1   0.940477 0.521622 0.500056 0.027450
C8    C     C_1   0.837909 0.520122 0.500000 -0.164240
H1    H     H_    0.359487 0.110605 0.382976 0.206136
C9    C     C_R   0.718034 0.123924 0.597606 0.027640
C10   C     C_R   0.797715 0.061079 0.680731 0.290797
C11   C     C_R   0.779833 0.933951 0.707762 0.151002
C12   C     C_R   0.686437 0.870259 0.648075 -0.310625
H2    H     H_    0.682988 0.770247 0.660897 0.175760
C13   C     C_R   0.602176 0.934092 0.572489 0.051683
C14   C     C_R   0.612500 0.064058 0.557651 0.020338
C15   C     C_R   0.519481 0.127399 0.494715 -0.075294
C16   C     C_R   0.429232 0.062379 0.431660 -0.157736
H3    H     H_    0.356267 0.884993 0.382082 0.161412
C17   C     C_R   0.426411 0.934649 0.433181 -0.162810
C18   C     C_R   0.510326 0.871325 0.504865 -0.023177
C19   C     C_R   0.386113 0.305462 0.135036 0.354477
C20   C     C_R   0.387437 0.187213 0.073110 -0.256880
H4    H     H_    0.352490 0.106566 0.124443 0.202917
C21   C     C_R   0.395114 0.180993 0.934172 -0.249771
H5    H     H_    0.366897 0.095170 0.884552 0.211815
C22   C     C_R   0.398942 0.293317 0.863250 0.348247
C23   C     C_R   0.450342 0.400014 0.927384 0.030557
C24   C     C_R   0.448291 0.402189 0.070927 -0.020137
N1    N     N_R   0.498930 0.498800 0.142780 -0.165823
C25   C     C_R   0.548879 0.595185 0.071519 0.364680
H6    H     H_    0.586444 0.672328 0.875952 0.163415
C26   C     C_R   0.546967 0.595217 0.929039 -0.144254
N2    N     N_R   0.498900 0.498720 0.857170 -0.130794
N3    N     N_R   0.305978 0.308589 0.769838 0.247410
O9    O     O_R   0.284385 0.220582 0.681557 -0.378296
O10   O     O_R   0.221768 0.383904 0.803199 -0.325560
N4    N     N_2   0.753310 0.236110 0.534665 -0.326489
H7    H     H_    0.807139 0.291872 0.592614 0.267148
C27   C     C_3   0.797690 0.215164 0.400065 -0.631033
H8    H     H_    0.821810 0.305215 0.353624 0.244648
H9    H     H_    0.730320 0.169445 0.335861 0.243951
H10   H     H_    0.876361 0.155244 0.402331 0.271866
N5    N     N_R   0.898982 0.124313 0.733325 0.204162
O11   O     O_R   0.978854 0.166514 0.652723 -0.357100
O12   O     O_R   0.919495 0.123608 0.861403 -0.313907
N6    N     N_2   0.860330 0.867167 0.787569 -0.253103
H11   H     H_    0.822479 0.795094 0.840378 0.245399
C28   C     C_3   0.963850 0.826997 0.716697 -0.649024
H12   H     H_    0.022549 0.778008 0.786628 0.249765
H13   H     H_    0.011814 0.908503 0.675597 0.277733
H14   H     H_    0.940018 0.761678 0.633506 0.209976
N7    N     N_R   0.604129 0.698202 0.139357 0.216961
O13   O     O_R   0.699470 0.680000 0.206004 -0.365976
O14   O     O_R   0.575914 0.812039 0.108885 -0.404088
N8    N     N_R   0.280822 0.336776 0.205133 0.236206
O15   O     O_R   0.220923 0.432656 0.166034 -0.342182
O16   O     O_R   0.229290 0.254878 0.280483 -0.408602

loop_
_geom_bond_atom_site_label_1
_geom_bond_atom_site_label_2
_geom_bond_distance
_ccdc_geom_bond_type
C7    C8    1.177537 T    
C13   C18   1.412713 A    
O4    Zn2   1.938384 S    
N8    O16   1.300423 A    
C12   H2    1.078177 S    
N7    O14   1.301268 A    
C23   N2    1.387488 A    
H3    C17   1.084940 S    
C4    C8    1.389256 S    
C27   H9    1.111089 S    
C21   H5    1.083295 S    
C17   C18   1.387347 A    
Zn2   O8    1.939801 S    
C19   C20   1.398367 A    
C19   C24   1.411795 A    
C11   N6    1.423887 S    
C16   C17   1.364766 A    
O2    C1    1.293589 A    
C14   C15   1.420962 A    
C28   H12   1.110592 S    
C2    C5    1.387440 S    
O1    Zn1   1.989030 S    
Zn1   N2    2.037845 S    
Zn1   O7    1.938382 S    
H1    C16   1.076071 S    
C25   C26   1.423049 A    
N5    O11   1.301356 A    
N6    H11   1.032217 S    
C9    N4    1.417248 S    
C9    C14   1.420662 A    
O3    Zn1   1.939804 S    
O4    C2    1.292628 A    
N4    C27   1.451539 S    
N1    C25   1.380576 A    
C21   C22   1.402455 A    
C22   C23   1.423657 A    
O8    C4    1.293642 A    
N8    O15   1.302969 A    
C1    C15   1.430591 S    
C12   C13   1.413589 A    
C26   N2    1.361226 A    
C10   N5    1.436410 S    
C20   C21   1.390762 A    
O7    C4    1.293870 A    
N5    O12   1.301047 A    
C20   H4    1.082872 S    
C28   H13   1.109872 S    
C27   H10   1.111461 S    
N6    C28   1.446923 S    
H6    C26   1.082118 S    
C25   N7    1.428619 S    
C22   N3    1.430548 S    
C5    C6    1.177455 T    
N3    O9    1.302024 A    
C24   N1    1.374143 A    
C23   C24   1.433445 A    
C9    C10   1.415960 A    
C19   N8    1.435119 S    
O3    C2    1.292859 A    
N3    O10   1.302290 A    
C15   C16   1.389497 A    
Zn1   O5    2.000032 S    
O5    C3    1.287373 A    
C11   C12   1.395299 A    
N4    H7    1.028115 S    
C28   H14   1.110271 S    
Zn2   N1    2.037989 S    
C27   H8    1.106978 S    
C13   C14   1.402330 A    
C10   C11   1.401824 A    
C3    C18   1.414114 S    
Zn2   O6    1.989030 S    
O2    Zn2   2.000032 S    
N7    O13   1.299398 A    
C6    C7    1.366287 S    
O1    C1    1.298480 A    
O6    C3    1.295736 A    
