data_mof_unit_18760.cif
_audit_creation_date              2013-03-05T16:12:15-0500
_audit_creation_method            fapswitch 2.2
_symmetry_space_group_name_H-M    P1
_symmetry_Int_Tables_number       1
_space_group_crystal_system       triclinic
_cell_length_a                    10.690792
_cell_length_b                    9.781054
_cell_length_c                    19.291224
_cell_angle_alpha                 89.872907
_cell_angle_beta                  90.05966
_cell_angle_gamma                 90.036991
_cell_volume                      2017.22307179

loop_
_atom_site_label
_atom_site_type_symbol
_atom_site_description
_atom_site_fract_x
_atom_site_fract_y
_atom_site_fract_z
_atom_type_partial_charge
O1    O     O_R   0.316770 0.614620 0.500000 -0.634457
O2    O     O_R   0.683230 0.385380 0.500000 -0.605205
O3    O     O_R   0.683230 0.614620 0.500000 -0.636643
O4    O     O_R   0.316770 0.385380 0.500000 -0.616377
C1    C     C_R   0.259206 0.500470 0.493084 0.905949
C2    C     C_R   0.738410 0.500595 0.488944 0.905280
O5    O     O_R   0.499990 0.614700 0.398140 -0.597456
O6    O     O_R   0.500010 0.385300 0.601860 -0.585042
O7    O     O_R   0.500010 0.614700 0.601860 -0.589132
O8    O     O_R   0.499990 0.385300 0.398140 -0.612406
C3    C     C_R   0.499012 0.500058 0.364765 0.857311
C4    C     C_R   0.499724 0.499919 0.634212 1.028079
Zn1   Zn    Zn3+2 0.500000 0.653120 0.500000 1.026087
Zn2   Zn    Zn3+2 0.500000 0.346880 0.500000 1.039445
C5    C     C_R   0.062795 0.378855 0.459788 -0.026459
C6    C     C_R   0.932753 0.629340 0.462425 -0.073025
C7    C     C_R   0.932382 0.379939 0.454528 -0.052405
C8    C     C_R   0.062648 0.629469 0.467274 -0.029096
C9    C     C_R   0.869026 0.503313 0.467686 -0.233153
C10   C     C_R   0.126340 0.502734 0.475039 -0.201875
C11   C     C_R   0.572598 0.072027 0.545899 0.010678
C12   C     C_R   0.428506 0.928082 0.453803 0.012255
C13   C     C_R   0.428809 0.072147 0.453637 0.068137
C14   C     C_R   0.572528 0.927673 0.545951 0.008937
C15   C     C_R   0.480362 0.624814 0.250796 0.290512
C16   C     C_R   0.581858 0.417948 0.746486 0.278151
C17   C     C_R   0.408765 0.582822 0.743656 0.277678
C18   C     C_R   0.504364 0.374990 0.250616 0.280290
C19   C     C_R   0.473691 0.624546 0.178068 -0.106723
C20   C     C_R   0.580173 0.419554 0.819217 -0.104793
C21   C     C_R   0.404670 0.583308 0.816332 -0.105061
C22   C     C_R   0.501878 0.375282 0.177868 -0.113744
C23   C     C_R   0.484177 0.499689 0.142539 -0.153637
C24   C     C_R   0.491005 0.501890 0.853442 -0.142588
H1    H     H_    0.630792 0.127030 0.582237 0.201044
H2    H     H_    0.371553 0.873269 0.417090 0.205077
H3    H     H_    0.372641 0.126977 0.416443 0.167948
H4    H     H_    0.630425 0.872453 0.582511 0.172579
N1    N     N_R   0.500000 0.857200 0.500000 -0.128879
N2    N     N_R   0.500000 0.142800 0.500000 -0.126619
C25   C     C_R   0.495998 0.500077 0.287811 -0.346984
C26   C     C_R   0.496850 0.500109 0.709383 -0.333108
N3    N     N_R   0.586435 0.549505 0.033295 -0.133222
N4    N     N_R   0.386864 0.454874 0.962839 -0.141858
N5    N     N_R   0.587930 0.550599 0.964569 -0.139446
N6    N     N_R   0.385230 0.454119 0.031589 -0.154767
C27   C     C_R   0.488333 0.502911 0.928580 0.233021
C28   C     C_R   0.485334 0.500687 0.067494 0.232852
C29   C     C_2   0.132316 0.252865 0.441901 0.547248
H5    H     H_    0.187729 0.250349 0.394869 0.033934
O9    O     O_2   0.131603 0.154244 0.480819 -0.474034
C30   C     C_2   0.864267 0.760172 0.450365 0.555997
H6    H     H_    0.790368 0.764618 0.411769 0.093246
O10   O     O_2   0.886302 0.861310 0.485285 -0.483959
C31   C     C_2   0.861728 0.259179 0.428121 0.488598
H7    H     H_    0.780779 0.275535 0.395369 0.104116
O11   O     O_2   0.889707 0.142412 0.443965 -0.443962
C32   C     C_2   0.128855 0.762462 0.460677 0.545905
H8    H     H_    0.174006 0.808264 0.505379 0.124918
O12   O     O_2   0.129792 0.822961 0.405252 -0.523075
N7    N     N_R   0.462919 0.751368 0.286761 0.244603
O13   O     O_R   0.352300 0.806587 0.288797 -0.330699
O14   O     O_R   0.559846 0.822167 0.306238 -0.309690
N8    N     N_R   0.669037 0.332483 0.710077 0.242248
O15   O     O_R   0.749774 0.386160 0.667528 -0.340157
O16   O     O_R   0.665575 0.200417 0.718124 -0.344492
N9    N     N_R   0.323997 0.666499 0.704309 0.249437
O17   O     O_R   0.243111 0.610361 0.662714 -0.349543
O18   O     O_R   0.331750 0.799092 0.707564 -0.323160
N10   N     N_R   0.508287 0.246068 0.286098 0.247292
O19   O     O_R   0.614246 0.199610 0.309419 -0.338559
O20   O     O_R   0.412290 0.164505 0.282822 -0.338344
C33   C     C_2   0.454378 0.754213 0.138151 0.547691
H9    H     H_    0.413076 0.751551 0.086771 0.047091
O21   O     O_2   0.487000 0.864868 0.161026 -0.432388
C34   C     C_2   0.670636 0.335494 0.860030 0.557821
H10   H     H_    0.645316 0.297291 0.910971 0.054599
O22   O     O_2   0.775555 0.311455 0.838313 -0.458844
C35   C     C_2   0.311670 0.669199 0.854076 0.551508
H11   H     H_    0.332081 0.706074 0.905872 0.053454
O23   O     O_2   0.210033 0.696750 0.828752 -0.459831
C36   C     C_2   0.521404 0.245986 0.138077 0.557338
H12   H     H_    0.482923 0.234134 0.086452 0.059513
O24   O     O_2   0.584501 0.152680 0.161456 -0.432975

loop_
_geom_bond_atom_site_label_1
_geom_bond_atom_site_label_2
_geom_bond_distance
_ccdc_geom_bond_type
C31   H7    1.082742 S    
C33   H9    1.085029 S    
O3    C2    1.280436 A    
C1    C10   1.462297 S    
O5    C3    1.294286 A    
C2    C9    1.455972 S    
O1    C1    1.281685 A    
C34   O22   1.220943 D    
C19   C33   1.496606 S    
C32   O12   1.220936 D    
C13   N2    1.362864 A    
C19   C23   1.406340 A    
C18   C25   1.422651 A    
C14   N1    1.364821 A    
N7    O14   1.301500 A    
C16   N8    1.437274 S    
O7    Zn1   1.999795 S    
C8    C32   1.485785 S    
N4    N6    1.326403 A    
C29   O9    1.221062 D    
C14   H4    1.081714 S    
N10   O19   1.300302 A    
N3    C28   1.353110 A    
C7    C31   1.491949 S    
O3    Zn1   1.994979 S    
N4    C27   1.354170 A    
C33   O21   1.220281 D    
O2    C2    1.289108 A    
C30   O10   1.220748 D    
N5    C27   1.353722 A    
C15   C19   1.404757 A    
C5    C10   1.419980 A    
N6    C28   1.353433 A    
C20   C24   1.413470 A    
C4    C26   1.450494 S    
N9    O17   1.301169 A    
C18   C22   1.403619 A    
C34   H10   1.085082 S    
O8    Zn2   1.999795 S    
C15   C25   1.422153 A    
C35   O23   1.220906 D    
C32   H8    1.085328 S    
C13   H3    1.077432 S    
C17   C21   1.402766 A    
N9    O18   1.301139 A    
N8    O16   1.301204 A    
C20   C34   1.492584 S    
O6    C4    1.284327 A    
C21   C24   1.412669 A    
C15   N7    1.432746 S    
N3    N5    1.325933 A    
C29   H5    1.084432 S    
C36   O24   1.220513 D    
C31   O11   1.219014 D    
O1    Zn1   1.994502 S    
C12   H2    1.077094 S    
C30   H6    1.085867 S    
C16   C26   1.407503 A    
C5    C7    1.397836 A    
O6    Zn2   2.001433 S    
C18   N10   1.434082 S    
C6    C30   1.492416 S    
O4    C1    1.289870 A    
C21   C35   1.493237 S    
C11   H1    1.080843 S    
C22   C36   1.495697 S    
N8    O15   1.301297 A    
C22   C23   1.406175 A    
C17   C26   1.408231 A    
C11   N2    1.364603 A    
C6    C9    1.411548 A    
C12   N1    1.362208 A    
C7    C9    1.407901 A    
C3    C25   1.484845 S    
C8    C10   1.422235 A    
C5    C29   1.481104 S    
O4    Zn2   1.994980 S    
N7    O13   1.301080 A    
O2    Zn2   1.994501 S    
O7    C4    1.283288 A    
Zn1   N1    1.996118 S    
C17   N9    1.436671 S    
O8    C3    1.292809 A    
Zn2   N2    1.996118 S    
C35   H11   1.084982 S    
O5    Zn1   2.001433 S    
C6    C8    1.391733 A    
C36   H12   1.083571 S    
C11   C14   1.411932 A    
C23   C28   1.447798 S    
C12   C13   1.409099 A    
N10   O20   1.301042 A    
C24   C27   1.449864 S    
C16   C20   1.403321 A    
