data_mof_unit_26920.cif
_audit_creation_date              2012-12-10T20:58:04-0500
_audit_creation_method            fapswitch 2.2
_symmetry_space_group_name_H-M    P1
_symmetry_Int_Tables_number       1
_space_group_crystal_system       triclinic
_cell_length_a                    18.213082
_cell_length_b                    18.229187
_cell_length_c                    18.372597
_cell_angle_alpha                 120.018455
_cell_angle_beta                  89.954064
_cell_angle_gamma                 119.902965
_cell_volume                      4320.09986804

loop_
_atom_site_label
_atom_site_type_symbol
_atom_type_description
_atom_site_fract_x
_atom_site_fract_y
_atom_site_fract_z
_atom_type_partial_charge
C1    C     C_R   0.360828 0.220068 0.361083 0.499253
C2    C     C_3   0.768707 0.942344 0.659150 -0.243921
C3    C     C_3   0.698036 0.897448 0.698894 0.059063
C4    C     C_R   0.640778 0.780991 0.639590 0.490366
C5    C     C_3   0.798863 0.102418 0.803908 0.085615
C6    C     C_3   0.809504 0.057729 0.854065 -0.104802
C7    C     C_3   0.826975 0.062279 0.719984 -0.249384
C8    C     C_3   0.680884 0.393556 0.243144 -0.250173
C9    C     C_3   0.740454 0.393099 0.183272 -0.243306
C10   C     C_3   0.676931 0.528148 0.239171 -0.103956
C11   C     C_3   0.799384 0.581600 0.360022 -0.227391
C12   C     C_3   0.277258 0.578902 0.360253 -0.230278
C13   C     C_3   0.698413 0.501996 0.302160 0.089228
C14   C     C_3   0.799885 0.501191 0.200608 0.062821
C15   C     C_3   0.738487 0.529157 0.180522 -0.213817
C16   C     C_R   0.359460 0.500766 0.640961 0.501264
C17   C     C_3   0.858592 0.582668 0.300700 -0.233900
C18   C     C_R   0.471911 0.180775 0.551882 -0.106025
C19   C     C_R   0.429808 0.139145 0.464254 -0.065129
C20   C     C_R   0.338480 0.097956 0.435192 0.063814
C21   C     C_R   0.289808 0.098652 0.494568 -0.081120
C22   C     C_R   0.332339 0.141081 0.582326 -0.111626
C23   C     C_3   0.299938 0.500539 0.302317 0.070540
C24   C     C_R   0.423245 0.181869 0.610900 -0.107330
C25   C     C_R   0.235786 0.943544 0.286181 -0.159611
C26   C     C_R   0.192660 0.892361 0.196095 0.016630
C27   C     C_R   0.206069 0.949600 0.160532 -0.035557
C28   C     C_R   0.640697 0.500198 0.359511 0.497922
C29   C     C_R   0.262876 0.056528 0.216080 -0.159490
C30   C     C_R   0.305846 0.107719 0.306181 0.016674
C31   C     C_R   0.292799 0.050524 0.341728 -0.035495
C32   C     C_R   0.209673 0.899697 0.007517 -0.081200
C33   C     C_R   0.167614 0.857088 0.919560 -0.112545
C34   C     C_3   0.197754 0.500079 0.200626 0.070283
C35   C     C_R   0.077191 0.817966 0.890911 -0.103795
C36   C     C_R   0.028557 0.820986 0.950083 -0.104842
C37   C     C_R   0.070171 0.862828 0.037894 -0.066827
C38   C     C_R   0.160969 0.902261 0.066986 0.063867
C39   C     C_R   0.928390 0.688899 0.613055 -0.092584
C40   C     C_R   0.641830 0.501217 0.641135 0.503959
C41   C     C_R   0.873638 0.614899 0.628902 -0.122644
C42   C     C_R   0.844412 0.642314 0.702669 0.039636
C43   C     C_R   0.870005 0.744344 0.760343 -0.089993
C44   C     C_R   0.926648 0.820160 0.746252 0.027200
C45   C     C_3   0.150331 0.391187 0.181582 -0.234871
C46   C     C_R   0.955950 0.792020 0.671260 0.190909
C47   C     C_R   0.841983 0.560837 0.775574 -0.164807
C48   C     C_R   0.799380 0.497380 0.804723 0.018043
C49   C     C_R   0.704788 0.435873 0.780312 -0.039875
C50   C     C_R   0.655638 0.440724 0.728065 -0.167946
C51   C     C_R   0.698283 0.503888 0.698600 0.020434
C52   C     C_R   0.357986 0.500244 0.359484 0.494969
C53   C     C_R   0.792923 0.566595 0.724119 -0.031793
C54   C     C_R   0.632123 0.263964 0.756258 -0.072704
C55   C     C_R   0.584650 0.197314 0.781534 -0.107589
C56   C     C_3   0.218018 0.579089 0.300911 -0.228426
C57   C     C_R   0.558993 0.231219 0.857053 -0.100167
C58   C     C_R   0.580322 0.331648 0.907161 -0.111493
C59   C     C_R   0.627634 0.398501 0.882029 -0.082052
C60   C     C_R   0.654152 0.365092 0.806674 0.060657
C61   C     C_R   0.413912 0.832494 0.763532 -0.119779
C62   C     C_R   0.385328 0.755967 0.778579 -0.086669
C63   C     C_R   0.310706 0.654367 0.715067 0.063781
C64   C     C_3   0.348580 0.531334 0.242865 -0.235023
C65   C     C_R   0.264350 0.630405 0.636920 -0.059355
C66   C     C_R   0.293543 0.707050 0.621878 -0.099734
C67   C     C_3   0.639714 0.939711 0.710387 -0.231190
C68   C     C_R   0.368364 0.807958 0.685050 -0.101323
C69   C     C_R   0.226335 0.570811 0.785070 -0.159832
C70   C     C_R   0.195403 0.498517 0.805645 0.013170
C71   C     C_R   0.219585 0.427707 0.772450 -0.032290
C72   C     C_R   0.272625 0.430244 0.718438 -0.161114
C73   C     C_R   0.303220 0.502256 0.697507 0.014312
C74   C     C_R   0.279937 0.573877 0.731646 -0.036638
C75   C     C_R   0.239196 0.374908 0.870756 0.059505
C76   C     C_3   0.288267 0.530447 0.182697 -0.234824
C77   C     C_R   0.209369 0.298084 0.886226 -0.077789
C78   C     C_3   0.698434 0.058978 0.770520 -0.226342
C79   C     C_R   0.134091 0.197335 0.823913 -0.114017
C80   C     C_R   0.087906 0.172004 0.745472 -0.125718
C81   C     C_R   0.116145 0.247663 0.729483 -0.097970
C82   C     C_R   0.191299 0.349459 0.791812 0.078219
C83   C     C_R   0.857183 0.500236 0.142892 0.493035
C84   C     C_R   0.138499 0.499443 0.861493 0.497753
C85   C     C_R   0.856815 0.219052 0.861881 0.495102
C86   C     C_R   0.137129 0.779968 0.141164 0.498950
C87   C     C_R   0.855897 0.499199 0.861438 0.502842
C88   C     C_3   0.210527 0.391361 0.241166 -0.232690
C89   C     C_3   0.747400 0.937037 0.792500 -0.215589
C90   C     C_R   0.139740 0.499889 0.142900 0.495102
C91   C     C_3   0.792871 0.099415 0.944037 -0.426049
C92   C     C_3   0.683455 0.629943 0.288546 -0.427125
C93   C     C_3   0.979784 0.850698 0.574886 -0.320024
C94   C     C_3   0.956159 0.930023 0.812168 -0.422302
C95   C     C_3   0.321146 0.482705 0.938200 -0.399456
H1    H     H_    0.365782 0.476476 0.200348 0.125808
H2    H     H_    0.812848 0.915186 0.651786 0.127180
H3    H     H_    0.412620 0.609923 0.285385 0.102078
H4    H     H_    0.734451 0.914175 0.591567 0.105001
H5    H     H_    0.819983 0.091798 0.681948 0.105843
H6    H     H_    0.898750 0.091759 0.740112 0.129950
H7    H     H_    0.788151 0.906209 0.786549 0.118545
H8    H     H_    0.880267 0.082114 0.869343 0.137435
H9    H     H_    0.609057 0.333530 0.200505 0.124177
H10   H     H_    0.695287 0.372305 0.285829 0.105675
H11   H     H_    0.783522 0.371610 0.197061 0.105571
H12   H     H_    0.154224 0.559354 0.316065 0.124483
H13   H     H_    0.697030 0.333267 0.112109 0.128393
H14   H     H_    0.606159 0.465265 0.193880 0.138622
H15   H     H_    0.323519 0.608352 0.195654 0.104295
H16   H     H_    0.695894 0.472375 0.109058 0.118488
H17   H     H_    0.815253 0.660477 0.405654 0.124540
H18   H     H_    0.815496 0.561095 0.402614 0.122033
H19   H     H_    0.904715 0.565872 0.317139 0.126509
H20   H     H_    0.900731 0.661516 0.315398 0.124041
H21   H     H_    0.780950 0.606249 0.191842 0.112105
H22   H     H_    0.455865 0.214246 0.678748 0.116618
H23   H     H_    0.174284 0.367664 0.282404 0.103998
H24   H     H_    0.542233 0.212099 0.573975 0.098336
H25   H     H_    0.467982 0.138404 0.418967 0.088529
H26   H     H_    0.276039 0.474444 0.111581 0.124714
H27   H     H_    0.219180 0.066588 0.472875 0.097145
H28   H     H_    0.294743 0.141946 0.628062 0.106908
H29   H     H_    0.226862 0.900100 0.313570 0.140553
H30   H     H_    0.271781 0.099921 0.188638 0.140630
H31   H     H_    0.279924 0.930386 0.029281 0.097580
H32   H     H_    0.205174 0.854697 0.873702 0.107074
H33   H     H_    0.044943 0.785276 0.822861 0.117834
H34   H     H_    0.085256 0.367907 0.194422 0.102149
H35   H     H_    0.958608 0.790870 0.928035 0.098692
H36   H     H_    0.032008 0.864987 0.083267 0.088627
H37   H     H_    0.224370 0.333235 0.198187 0.129515
H38   H     H_    0.951466 0.666350 0.556423 0.104012
H39   H     H_    0.855074 0.536551 0.584426 0.100888
H40   H     H_    0.847683 0.765128 0.817756 0.094369
H41   H     H_    0.914411 0.607474 0.793507 0.147576
H42   H     H_    0.583239 0.394444 0.710512 0.146906
H43   H     H_    0.651950 0.237135 0.697802 0.088019
H44   H     H_    0.567628 0.119365 0.742564 0.087594
H45   H     H_    0.589525 0.910515 0.740590 0.134186
H46   H     H_    0.522404 0.179594 0.876611 0.096220
H47   H     H_    0.560147 0.357649 0.965442 0.089474
H48   H     H_    0.135255 0.332720 0.110284 0.127431
H49   H     H_    0.644042 0.476235 0.921360 0.092499
H50   H     H_    0.390842 0.867223 0.673375 0.096909
H51   H     H_    0.471385 0.910829 0.812710 0.086547
H52   H     H_    0.421187 0.775688 0.839495 0.093282
H53   H     H_    0.206259 0.552484 0.587680 0.091931
H54   H     H_    0.258033 0.688361 0.561426 0.089796
H55   H     H_    0.208959 0.626002 0.810845 0.143968
H56   H     H_    0.602048 0.911685 0.644227 0.121179
H57   H     H_    0.290269 0.375308 0.692962 0.142901
H58   H     H_    0.244466 0.315948 0.946480 0.089933
H59   H     H_    0.241330 0.557983 0.402965 0.120864
H60   H     H_    0.111783 0.138706 0.836335 0.092140
H61   H     H_    0.030112 0.093599 0.696999 0.093275
H62   H     H_    0.079401 0.227060 0.668513 0.094612
H63   H     H_    0.340051 0.658303 0.405147 0.125935
H64   H     H_    0.252915 0.658443 0.316989 0.128102
H65   H     H_    0.722544 0.075656 0.934953 0.131627
H66   H     H_    0.805784 0.068328 0.977440 0.117337
H67   H     H_    0.690689 0.087709 0.732014 0.114996
H68   H     H_    0.839032 0.185184 0.989006 0.135972
H69   H     H_    0.662190 0.639827 0.239306 0.117140
H70   H     H_    0.638357 0.628583 0.329255 0.136792
H71   H     H_    0.753190 0.697969 0.332300 0.129389
H72   H     H_    0.051826 0.943169 0.709530 0.246415
H73   H     H_    0.030638 0.914145 0.570224 0.132479
H74   H     H_    0.918662 0.850536 0.575297 0.138408
H75   H     H_    0.963588 0.776584 0.515579 0.144826
H76   H     H_    0.029755 0.980876 0.846607 0.121477
H77   H     H_    0.939079 0.957352 0.777178 0.125453
H78   H     H_    0.674127 0.086663 0.827339 0.129173
H79   H     H_    0.923189 0.937082 0.863882 0.113307
H80   H     H_    0.351459 0.488695 0.995027 0.102878
H81   H     H_    0.372411 0.504135 0.906289 0.125366
H82   H     H_    0.302828 0.538691 0.964842 0.140469
H83   H     H_    0.696753 0.905629 0.821511 0.113571
N1    N     N_2   0.015818 0.866798 0.655630 -0.523319
O1    O     O_3   0.500000 0.500000 0.500000 -0.433829
O2    O     O_R   0.113800 0.731630 0.056520 -0.531574
O3    O     O_R   0.819390 0.439310 0.886160 -0.532428
O4    O     O_R   0.383400 0.268380 0.323710 -0.555766
O5    O     O_R   0.115110 0.560720 0.179280 -0.553498
O6    O     O_R   0.941380 0.560750 0.885620 -0.550475
O7    O     O_R   0.115110 0.439270 0.057830 -0.548126
O8    O     O_R   0.942690 0.268390 0.886930 -0.548252
O9    O     O_R   0.114340 0.731630 0.178520 -0.555792
O10   O     O_R   0.820160 0.439310 0.057830 -0.546597
O11   O     O_R   0.113800 0.560730 0.885620 -0.550555
O12   O     O_R   0.383400 0.560740 0.616060 -0.533380
O13   O     O_R   0.555060 0.731630 0.615290 -0.547024
O14   O     O_R   0.383950 0.439280 0.616600 -0.550932
O15   O     O_R   0.677590 0.560710 0.444390 -0.551216
O16   O     O_R   0.556370 0.439260 0.616600 -0.550700
O17   O     O_R   0.382640 0.439290 0.322940 -0.551726
O18   O     O_R   0.678360 0.560700 0.616060 -0.534013
O19   O     O_R   0.382640 0.560750 0.444390 -0.551207
O20   O     O_R   0.555060 0.439270 0.322940 -0.555374
O21   O     O_R   0.383950 0.268380 0.445700 -0.531342
O22   O     O_R   0.677590 0.731610 0.615290 -0.546114
O23   O     O_3   0.997750 0.500010 0.002220 -0.434070
O24   O     O_R   0.942690 0.560750 0.179280 -0.554165
O25   O     O_R   0.114340 0.439270 0.886160 -0.534382
O26   O     O_R   0.820160 0.268410 0.886930 -0.547632
Zn1   Zn    Zn3+2 0.456040 0.586770 0.543190 0.922808
Zn2   Zn    Zn3+2 0.456820 0.413240 0.543960 0.930898
Zn3   Zn    Zn3+2 0.631110 0.586750 0.543190 0.920763
Zn4   Zn    Zn3+2 0.456040 0.413240 0.369660 0.905979
Zn5   Zn    Zn3+2 0.041710 0.413240 0.959030 0.923050
Zn6   Zn    Zn3+2 0.866640 0.413270 0.959030 0.923156
Zn7   Zn    Zn3+2 0.040930 0.586780 0.958260 0.930195
Zn8   Zn    Zn3+2 0.041710 0.586770 0.132560 0.905726

loop_
_geom_bond_atom_site_label_1
_geom_bond_atom_site_label_2
_ccdc_geom_bond_type
C85   O8    A    
C66   C68   A    
C63   C65   A    
C34   C56   S    
C8    C13   S    
O14   Zn2   S    
C29   H30   S    
C89   H7    S    
O19   Zn1   S    
C41   C42   A    
C4    O13   A    
H72   N1    S    
C35   C36   A    
C52   O17   A    
O23   Zn6   S    
C9    C14   S    
C8    H10   S    
C87   O3    A    
C81   C82   A    
C93   N1    S    
C50   H42   S    
C75   C95   S    
C22   H28   S    
C87   O6    A    
C54   C60   A    
C9    H13   S    
C86   O9    A    
C12   C23   S    
C93   H74   S    
C26   C27   A    
C37   C38   A    
C49   C60   S    
C4    O22   A    
O2    Zn7   S    
C18   C24   A    
C76   H26   S    
C36   C37   A    
C56   H64   S    
C10   C15   S    
C42   C53   S    
C24   H22   S    
C5    C6    S    
C47   H41   S    
C27   C29   A    
C40   O18   A    
O26   Zn6   S    
C27   C38   S    
C6    C91   S    
C33   H32   S    
C55   H44   S    
C10   H14   S    
C18   C19   A    
C73   C74   A    
C32   H31   S    
C21   H27   S    
C49   C50   A    
C95   H80   S    
C1    C30   S    
O11   Zn7   S    
C16   O14   A    
C94   H77   S    
C92   H70   S    
C95   H82   S    
C2    C7    S    
C2    H2    S    
C8    C9    S    
C72   H57   S    
C78   H78   S    
C28   O15   A    
C13   C28   S    
C84   O11   A    
C70   C71   A    
C32   C38   A    
O1    Zn2   S    
C70   C84   S    
C47   C53   A    
C71   C82   S    
C77   H58   S    
C84   O25   A    
C64   H3    S    
C10   C92   S    
C59   C60   A    
C21   C22   A    
C14   C17   S    
C91   H68   S    
C35   H33   S    
C67   C78   S    
C14   C83   S    
O23   Zn5   S    
O1    Zn1   S    
C41   H39   S    
C44   C46   A    
C17   H19   S    
C80   H61   S    
C57   C58   A    
C77   C79   A    
C1    O4    A    
C93   H75   S    
O6    Zn7   S    
C28   O20   A    
C81   H62   S    
C7    H5    S    
C67   H56   S    
C16   C73   S    
C15   H16   S    
C45   C88   S    
C93   H73   S    
C66   H54   S    
C39   C41   A    
O10   Zn6   S    
C12   H59   S    
C5    C7    S    
C72   C73   A    
C90   O7    A    
C9    H11   S    
C89   H83   S    
C79   H60   S    
C37   H36   S    
O20   Zn4   S    
O12   Zn1   S    
C54   H43   S    
C23   C52   S    
C95   H81   S    
C34   C90   S    
C56   H12   S    
C62   C63   A    
C16   O12   A    
C36   H35   S    
C94   H76   S    
C86   O2    A    
C8    H9    S    
C58   H47   S    
C47   C48   A    
O8    Zn5   S    
C26   C86   S    
C50   C51   A    
C64   C76   S    
C48   C87   S    
C69   C74   A    
C34   C45   S    
C6    H8    S    
C65   H53   S    
C43   H40   S    
C67   H45   S    
C75   C77   A    
C64   H1    S    
C91   H65   S    
C12   C56   S    
C94   H79   S    
C39   C46   A    
O17   Zn4   S    
C83   O24   A    
C48   C49   A    
C90   O5    A    
C59   H49   S    
C78   H67   S    
O21   Zn2   S    
C23   C88   S    
C55   C57   A    
C43   C44   A    
O24   Zn8   S    
C22   C24   A    
C58   C59   A    
C1    O21   A    
C52   O19   A    
C42   C43   A    
C69   H55   S    
C88   H23   S    
C3    C4    S    
C6    C89   S    
C17   H20   S    
C25   C31   A    
C39   H38   S    
C54   C55   A    
C11   C17   S    
C11   H17   S    
C15   H21   S    
O13   Zn1   S    
C46   N1    S    
C83   O10   A    
C62   H52   S    
C3    C67   S    
O23   Zn7   S    
C80   C81   A    
C10   C13   S    
C2    H4    S    
O9    Zn8   S    
C75   C82   A    
C63   C74   S    
C19   H25   S    
O4    Zn4   S    
C40   C51   S    
O15   Zn3   S    
C57   H46   S    
C3    C89   S    
C12   H63   S    
C32   C33   A    
C19   C20   A    
O7    Zn5   S    
C2    C3    S    
C25   C26   A    
C23   C64   S    
C5    C85   S    
C71   C72   A    
C11   C13   S    
C61   C68   A    
C92   H69   S    
O5    Zn8   S    
C30   C31   A    
C45   H34   S    
O3    Zn6   S    
C33   C35   A    
O22   Zn3   S    
C85   O26   A    
O23   Zn8   S    
C61   C62   A    
C11   H18   S    
C25   H29   S    
C69   C70   A    
C44   C94   S    
C29   C30   A    
C79   C80   A    
C92   H71   S    
O16   Zn2   S    
C20   C21   A    
C76   H15   S    
C65   C66   A    
C7    H6    S    
O25   Zn5   S    
O1    Zn4   S    
C45   H48   S    
C88   H37   S    
C14   C15   S    
C91   H66   S    
O18   Zn3   S    
C61   H51   S    
C51   C53   A    
C5    C78   S    
O1    Zn3   S    
C18   H24   S    
C20   C31   S    
C68   H50   S    
C34   C76   S    
C40   O16   A    
