data_mof_unit_59805.cif
_audit_creation_date              2012-12-11T15:08:58-0500
_audit_creation_method            fapswitch 2.2
_symmetry_space_group_name_H-M    P1
_symmetry_Int_Tables_number       1
_space_group_crystal_system       triclinic
_cell_length_a                    25.934843
_cell_length_b                    27.716381
_cell_length_c                    8.401175
_cell_angle_alpha                 89.599868
_cell_angle_beta                  96.044375
_cell_angle_gamma                 90.152633
_cell_volume                      6005.20219602

loop_
_atom_site_label
_atom_site_type_symbol
_atom_type_description
_atom_site_fract_x
_atom_site_fract_y
_atom_site_fract_z
_atom_type_partial_charge
Ba1   Ba    Ba6+2 0.999910 0.465960 0.844870 1.638925
Ba2   Ba    Ba6+2 0.999910 0.534040 0.344870 1.639146
Ba3   Ba    Ba6+2 0.499910 0.965960 0.844870 1.638925
Ba4   Ba    Ba6+2 0.499910 0.034040 0.344870 1.639146
C1    C     C_3   0.041130 0.241907 0.619172 -0.373190
C2    C     C_R   0.846846 0.641911 0.593892 -0.115854
C3    C     C_3   0.516782 0.208383 0.100464 0.354436
C4    C     C_R   0.912988 0.384224 0.299893 -0.289587
C5    C     C_R   0.913261 0.615287 0.799102 -0.282789
C6    C     C_R   0.412988 0.884224 0.299893 -0.289587
C7    C     C_R   0.413261 0.115287 0.799102 -0.282789
C8    C     C_3   0.305049 0.563239 0.096597 -0.278924
C9    C     C_3   0.326786 0.452453 0.765862 -0.256825
C10   C     C_3   0.805050 0.063238 0.096598 -0.278924
C11   C     C_3   0.826787 0.952455 0.765854 -0.256825
C12   C     C_3   0.754813 0.554421 0.957898 -0.217373
C13   C     C_R   0.344465 0.858775 0.099924 -0.103762
C14   C     C_3   0.746121 0.575396 0.789252 -0.428143
C15   C     C_3   0.751796 0.456068 0.475816 -0.158172
C16   C     C_3   0.736762 0.485062 0.322684 -0.405339
C17   C     C_3   0.254813 0.054421 0.957898 -0.217373
C18   C     C_3   0.246121 0.075396 0.789252 -0.428144
C19   C     C_3   0.251796 0.956068 0.475816 -0.158172
C20   C     C_3   0.236762 0.985062 0.322684 -0.405338
C21   C     C_3   0.699632 0.369646 0.146310 -0.255142
C22   C     C_3   0.731071 0.645009 0.322656 -0.266575
C23   C     C_3   0.199632 0.869647 0.146308 -0.255141
C24   C     C_R   0.346846 0.141911 0.593892 -0.115855
C25   C     C_3   0.231071 0.145009 0.322656 -0.266576
C26   C     C_3   0.240758 0.437071 0.166359 -0.244102
C27   C     C_3   0.213030 0.571833 0.604425 -0.138041
C28   C     C_3   0.740758 0.937071 0.166361 -0.244101
C29   C     C_3   0.713030 0.071834 0.604428 -0.138041
C30   C     C_R   0.831631 0.319874 0.198864 0.000777
C31   C     C_R   0.833266 0.680586 0.690384 -0.002236
C32   C     C_R   0.331631 0.819874 0.198864 0.000777
C33   C     C_R   0.333266 0.180586 0.690384 -0.002236
C34   C     C_R   0.859998 0.314850 0.351731 -0.149188
C35   C     C_R   0.860818 0.685143 0.844810 -0.148402
C36   C     C_R   0.359998 0.814850 0.351731 -0.149188
C37   C     C_3   0.041587 0.758136 0.112994 -0.376330
C38   C     C_R   0.360818 0.185143 0.844810 -0.148402
C39   C     C_R   0.900173 0.347262 0.402254 0.011805
C40   C     C_R   0.900631 0.652578 0.898450 0.006729
C41   C     C_R   0.400173 0.847262 0.402254 0.011805
C42   C     C_R   0.400631 0.152578 0.898450 0.006728
C43   C     C_R   0.795452 0.235124 0.179239 -0.122656
C44   C     C_R   0.795825 0.764881 0.676218 -0.120475
C45   C     C_R   0.295451 0.735124 0.179240 -0.122656
C46   C     C_R   0.295825 0.264881 0.676218 -0.120475
C47   C     C_R   0.256692 0.701325 0.129707 -0.089377
C48   C     C_3   0.541130 0.741907 0.619171 -0.373189
C49   C     C_R   0.256553 0.298642 0.631105 -0.085875
C50   C     C_R   0.756692 0.201324 0.129706 -0.089377
C51   C     C_R   0.756553 0.798642 0.631105 -0.085875
C52   C     C_R   0.210288 0.715750 0.040691 0.039260
C53   C     C_R   0.210205 0.284609 0.541464 0.037355
C54   C     C_R   0.710289 0.215749 0.040691 0.039260
C55   C     C_R   0.710205 0.784609 0.541464 0.037355
C56   C     C_R   0.203554 0.764997 0.004519 -0.106774
C57   C     C_R   0.204293 0.235872 0.499145 -0.101409
C58   C     C_R   0.703554 0.264997 0.004520 -0.106774
C59   C     C_3   0.541587 0.258136 0.112994 -0.376330
C60   C     C_R   0.704294 0.735872 0.499145 -0.101409
C61   C     C_R   0.741528 0.299465 0.057372 0.193759
C62   C     C_R   0.743801 0.701748 0.540061 0.190452
C63   C     C_R   0.241528 0.799465 0.057372 0.193759
C64   C     C_R   0.243801 0.201748 0.540061 0.190452
C65   C     C_3   0.983177 0.292305 0.089161 0.350145
C66   C     C_3   0.983809 0.707934 0.583293 0.348348
C67   C     C_3   0.483177 0.792305 0.089161 0.350145
C68   C     C_3   0.483809 0.207934 0.583294 0.348347
C69   C     C_R   0.788892 0.284731 0.144276 0.056662
C70   C     C_R   0.884265 0.391416 0.151938 0.048268
C71   C     C_R   0.790500 0.715786 0.633149 0.051706
C72   C     C_R   0.288892 0.784731 0.144276 0.056662
C73   C     C_R   0.290500 0.215786 0.633149 0.051706
C74   C     C_R   0.140982 0.684211 0.832280 -0.144238
C75   C     C_R   0.140775 0.316529 0.334005 -0.137128
C76   C     C_R   0.640982 0.184211 0.832280 -0.144238
C77   C     C_R   0.640775 0.816529 0.334005 -0.137128
C78   C     C_R   0.102083 0.650802 0.780842 0.019315
C79   C     C_R   0.101742 0.349663 0.282228 0.014398
C80   C     C_R   0.602083 0.150802 0.780842 0.019316
C81   C     C_R   0.885369 0.608597 0.649980 0.058122
C82   C     C_R   0.601743 0.849663 0.282228 0.014397
C83   C     C_R   0.117750 0.607648 0.033210 0.004308
C84   C     C_R   0.117170 0.392299 0.533825 0.006829
C85   C     C_R   0.617750 0.107648 0.033210 0.004308
C86   C     C_R   0.617170 0.892299 0.533825 0.006829
C87   C     C_R   0.156426 0.641287 0.086204 -0.128713
C88   C     C_R   0.155964 0.358673 0.587299 -0.154689
C89   C     C_R   0.656427 0.141287 0.086204 -0.128713
C90   C     C_R   0.655964 0.858673 0.587299 -0.154688
C91   C     C_R   0.168736 0.679965 0.986022 0.003145
C92   C     C_R   0.384265 0.891417 0.151938 0.048269
C93   C     C_R   0.168418 0.320365 0.487725 0.005513
C94   C     C_R   0.668737 0.179965 0.986022 0.003145
C95   C     C_R   0.668419 0.820365 0.487725 0.005512
C96   C     C_R   0.090600 0.613078 0.881863 -0.262210
C97   C     C_R   0.090018 0.387058 0.382527 -0.247456
C98   C     C_R   0.590600 0.113078 0.881863 -0.262210
C99   C     C_R   0.590018 0.887058 0.382527 -0.247456
C100  C     C_3   0.958646 0.242421 0.084514 -0.376561
C101  C     C_3   0.959560 0.757857 0.574998 -0.376072
C102  C     C_3   0.458646 0.742421 0.084514 -0.376561
C103  C     C_R   0.385369 0.108597 0.649980 0.058122
C104  C     C_3   0.459560 0.257857 0.574998 -0.376073
C105  C     C_3   0.176734 0.497747 0.047219 0.461815
C106  C     C_3   0.191845 0.483788 0.562722 0.496989
C107  C     C_3   0.676734 0.997747 0.047220 0.461813
C108  C     C_3   0.691845 0.983789 0.562722 0.496988
C109  C     C_3   0.219723 0.531853 0.998636 -0.012000
C110  C     C_3   0.237878 0.452203 0.637992 -0.089618
C111  C     C_3   0.719723 0.031853 0.998636 -0.011997
C112  C     C_3   0.737878 0.952204 0.637991 -0.089622
C113  C     C_3   0.851307 0.532593 0.984515 0.312299
C114  C     C_R   0.844465 0.358775 0.099924 -0.103762
C115  C     C_3   0.849465 0.471042 0.456643 0.338882
C116  C     C_3   0.351307 0.032593 0.984515 0.312299
C117  C     C_3   0.349465 0.971043 0.456643 0.338883
C118  C     C_3   0.809413 0.565745 0.038745 -0.186740
C119  C     C_3   0.806585 0.434407 0.483133 -0.198091
C120  C     C_3   0.309413 0.065745 0.038745 -0.186741
C121  C     C_3   0.306584 0.934407 0.483133 -0.198090
C122  C     C_3   0.016481 0.291637 0.604943 0.352241
C123  C     C_3   0.016782 0.708383 0.100464 0.354436
C124  C     C_3   0.516481 0.791637 0.604943 0.352241
H1    H     H_    0.040378 0.316299 0.686442 0.091367
H2    H     H_    0.227333 0.436236 0.751986 0.099283
H3    H     H_    0.481450 0.281995 0.663056 0.108964
H4    H     H_    0.145519 0.498854 0.947758 0.049980
H5    H     H_    0.174020 0.464408 0.455333 -0.017981
H6    H     H_    0.645519 0.998853 0.947758 0.049981
H7    H     H_    0.674020 0.964409 0.455333 -0.017978
H8    H     H_    0.237593 0.572685 0.202961 0.199883
H9    H     H_    0.328712 0.574752 0.207758 0.107513
H10   H     H_    0.301261 0.594090 0.010944 0.110714
H11   H     H_    0.325399 0.533020 0.043758 0.122978
H12   H     H_    0.300449 0.491299 0.564983 0.199358
H13   H     H_    0.701877 0.063967 0.936323 -0.009078
H14   H     H_    0.313186 0.441886 0.881898 0.112509
H15   H     H_    0.361274 0.476118 0.790487 0.105617
H16   H     H_    0.338193 0.419611 0.703035 0.107255
H17   H     H_    0.737593 0.072684 0.202960 0.199882
H18   H     H_    0.828713 0.074751 0.207759 0.107514
H19   H     H_    0.801262 0.094089 0.010945 0.110714
H20   H     H_    0.825399 0.033018 0.043759 0.122977
H21   H     H_    0.800448 0.991296 0.564964 0.199359
H22   H     H_    0.813189 0.941894 0.881896 0.112508
H23   H     H_    0.861276 0.976120 0.790464 0.105619
H24   H     H_    0.727334 0.936238 0.751991 0.099285
H25   H     H_    0.838191 0.919610 0.703040 0.107256
H26   H     H_    0.706154 0.566851 0.736121 0.117407
H27   H     H_    0.750880 0.615170 0.794325 0.144744
H28   H     H_    0.773892 0.560095 0.711635 0.157377
H29   H     H_    0.747499 0.514917 0.954079 0.149847
H30   H     H_    0.725804 0.570651 0.029724 0.101219
H31   H     H_    0.749846 0.466645 0.217253 0.138806
H32   H     H_    0.694034 0.489660 0.304476 0.103146
H33   H     H_    0.754704 0.521350 0.332835 0.144495
H34   H     H_    0.723613 0.426093 0.483242 0.084804
H35   H     H_    0.852868 0.536091 0.854033 0.002979
H36   H     H_    0.748764 0.479457 0.581317 0.135313
H37   H     H_    0.206154 0.066851 0.736121 0.117407
H38   H     H_    0.250879 0.115169 0.794325 0.144744
H39   H     H_    0.273892 0.060095 0.711635 0.157377
H40   H     H_    0.247499 0.014918 0.954079 0.149847
H41   H     H_    0.225804 0.070651 0.029724 0.101219
H42   H     H_    0.249846 0.966645 0.217253 0.138806
H43   H     H_    0.194034 0.989660 0.304476 0.103146
H44   H     H_    0.254704 0.021350 0.332835 0.144495
H45   H     H_    0.223613 0.926093 0.483242 0.084804
H46   H     H_    0.849846 0.477699 0.326868 0.009088
H47   H     H_    0.248764 0.979457 0.581317 0.135313
H48   H     H_    0.713969 0.356022 0.914004 0.186905
H49   H     H_    0.691210 0.407979 0.115605 0.107438
H50   H     H_    0.721261 0.367413 0.267363 0.124269
H51   H     H_    0.662040 0.350274 0.146582 0.104338
H52   H     H_    0.702756 0.638700 0.541441 0.191424
H53   H     H_    0.730258 0.605676 0.299750 0.102876
H54   H     H_    0.765073 0.660836 0.270890 0.125199
H55   H     H_    0.695007 0.661139 0.261819 0.105197
H56   H     H_    0.213969 0.856022 0.914003 0.186905
H57   H     H_    0.352868 0.036091 0.854033 0.002979
H58   H     H_    0.191210 0.907979 0.115603 0.107438
H59   H     H_    0.221261 0.867414 0.267362 0.124269
H60   H     H_    0.162040 0.850274 0.146581 0.104337
H61   H     H_    0.202756 0.138700 0.541441 0.191425
H62   H     H_    0.230258 0.105676 0.299750 0.102876
H63   H     H_    0.265073 0.160836 0.270890 0.125199
H64   H     H_    0.195007 0.161139 0.261819 0.105198
H65   H     H_    0.164338 0.424244 0.079701 0.205971
H66   H     H_    0.246426 0.397390 0.174599 0.092666
H67   H     H_    0.275170 0.452979 0.118375 0.122212
H68   H     H_    0.349846 0.977699 0.326868 0.009088
H69   H     H_    0.237948 0.451172 0.287594 0.116193
H70   H     H_    0.235826 0.527931 0.423239 0.179945
H71   H     H_    0.219295 0.604397 0.531106 0.076533
H72   H     H_    0.246898 0.567865 0.695569 0.087978
H73   H     H_    0.176901 0.577680 0.661465 0.118990
H74   H     H_    0.664338 0.924243 0.079704 0.205971
H75   H     H_    0.746425 0.897390 0.174606 0.092666
H76   H     H_    0.775170 0.952977 0.118373 0.122209
H77   H     H_    0.737949 0.951173 0.287595 0.116195
H78   H     H_    0.735825 0.027933 0.423239 0.179946
H79   H     H_    0.888822 0.544647 0.047632 0.047549
H80   H     H_    0.719295 0.104398 0.531111 0.076533
H81   H     H_    0.746898 0.067864 0.695571 0.087981
H82   H     H_    0.676902 0.077680 0.661469 0.118988
H83   H     H_    0.887083 0.455160 0.506508 0.018430
H84   H     H_    0.388822 0.044647 0.047632 0.047549
H85   H     H_    0.040448 0.683742 0.183502 0.089515
H86   H     H_    0.387083 0.955160 0.506508 0.018429
H87   H     H_    0.819286 0.603998 0.016750 0.067850
H88   H     H_    0.806543 0.405580 0.392258 0.048149
H89   H     H_    0.319286 0.103998 0.016750 0.067850
H90   H     H_    0.306543 0.905580 0.392258 0.048149
H91   H     H_    0.809339 0.561505 0.170145 0.100293
H92   H     H_    0.815670 0.417139 0.602594 0.099653
H93   H     H_    0.309339 0.061505 0.170145 0.100293
H94   H     H_    0.315670 0.917139 0.602594 0.099653
H95   H     H_    0.016790 0.304320 0.479205 -0.059416
H96   H     H_    0.540378 0.816299 0.686442 0.091367
H97   H     H_    0.017299 0.695701 0.975371 -0.058880
H98   H     H_    0.516790 0.804320 0.479205 -0.059415
H99   H     H_    0.517299 0.195701 0.975371 -0.058880
H100  H     H_    0.081446 0.243969 0.586202 0.071646
H101  H     H_    0.082017 0.756099 0.081217 0.071309
H102  H     H_    0.581446 0.743969 0.586202 0.071646
H103  H     H_    0.582017 0.256099 0.081217 0.071309
H104  H     H_    0.042040 0.228364 0.744189 0.140621
H105  H     H_    0.042216 0.771703 0.237285 0.140272
H106  H     H_    0.542040 0.728364 0.744189 0.140621
H107  H     H_    0.540448 0.183742 0.183502 0.089515
H108  H     H_    0.542216 0.271703 0.237285 0.140272
H109  H     H_    0.917841 0.245064 0.112399 0.071905
H110  H     H_    0.918751 0.755394 0.603215 0.073159
H111  H     H_    0.417841 0.745064 0.112400 0.071905
H112  H     H_    0.418751 0.255393 0.603216 0.073159
H113  H     H_    0.176853 0.637153 0.204585 0.074901
H114  H     H_    0.176483 0.362607 0.705455 0.078430
H115  H     H_    0.676853 0.137153 0.204585 0.074901
H116  H     H_    0.676484 0.862607 0.705454 0.078430
H117  H     H_    0.263522 0.663651 0.158894 0.065060
H118  H     H_    0.241558 0.512707 0.911939 0.116216
H119  H     H_    0.262953 0.335992 0.664563 0.063653
H120  H     H_    0.763522 0.163651 0.158893 0.065060
H121  H     H_    0.762953 0.835993 0.664563 0.063653
H122  H     H_    0.831087 0.222169 0.243988 0.071251
H123  H     H_    0.831039 0.777611 0.743685 0.070932
H124  H     H_    0.331087 0.722169 0.243989 0.071250
H125  H     H_    0.331038 0.277611 0.743685 0.070932
H126  H     H_    0.823615 0.364077 0.982735 0.105137
H127  H     H_    0.827893 0.637042 0.474938 0.115186
H128  H     H_    0.323615 0.864077 0.982735 0.105137
H129  H     H_    0.243489 0.421481 0.557199 0.021324
H130  H     H_    0.327893 0.137042 0.474938 0.115186
H131  H     H_    0.167576 0.777307 0.939969 0.062666
H132  H     H_    0.168315 0.223829 0.434299 0.064619
H133  H     H_    0.667577 0.277307 0.939970 0.062666
H134  H     H_    0.668315 0.723829 0.434299 0.064619
H135  H     H_    0.149905 0.712988 0.751741 0.073578
H136  H     H_    0.149870 0.288243 0.253317 0.073373
H137  H     H_    0.649905 0.212988 0.751740 0.073578
H138  H     H_    0.649870 0.788243 0.253317 0.073373
H139  H     H_    0.850224 0.286567 0.432903 0.077101
H140  H     H_    0.741558 0.012707 0.911940 0.116209
H141  H     H_    0.850777 0.713192 0.924977 0.076324
H142  H     H_    0.350224 0.786567 0.432903 0.077101
H143  H     H_    0.350777 0.213192 0.924977 0.076325
H144  H     H_    0.061172 0.586982 0.840501 0.076579
H145  H     H_    0.060494 0.413040 0.340698 0.075341
H146  H     H_    0.561172 0.086982 0.840502 0.076579
H147  H     H_    0.560494 0.913040 0.340698 0.075341
H148  H     H_    0.018562 0.216417 0.537392 0.108546
H149  H     H_    0.019311 0.783601 0.029528 0.108510
H150  H     H_    0.518563 0.716418 0.537392 0.108546
H151  H     H_    0.743487 0.921480 0.557203 0.021324
H152  H     H_    0.519311 0.283601 0.029528 0.108510
H153  H     H_    0.943571 0.409341 0.339879 0.068097
H154  H     H_    0.942964 0.589614 0.842114 0.065805
H155  H     H_    0.443571 0.909341 0.339879 0.068097
H156  H     H_    0.442964 0.089614 0.842114 0.065805
H157  H     H_    0.960088 0.315477 0.999757 0.092232
H158  H     H_    0.960583 0.684585 0.495568 0.092113
H159  H     H_    0.460088 0.815477 0.999757 0.092232
H160  H     H_    0.460583 0.184585 0.495567 0.092113
H161  H     H_    0.981642 0.307147 0.211089 -0.052142
H162  H     H_    0.201876 0.563968 0.936322 -0.009078
H163  H     H_    0.982185 0.693420 0.706315 -0.051962
H164  H     H_    0.481642 0.807147 0.211089 -0.052142
H165  H     H_    0.482185 0.193420 0.706315 -0.051961
H166  H     H_    0.959152 0.226640 0.963514 0.139539
H167  H     H_    0.960116 0.773296 0.452820 0.139538
H168  H     H_    0.459152 0.726640 0.963515 0.139539
H169  H     H_    0.460116 0.273296 0.452820 0.139538
H170  H     H_    0.980369 0.218482 0.174433 0.109322
H171  H     H_    0.981450 0.781995 0.663056 0.108964
H172  H     H_    0.480369 0.718482 0.174434 0.109322
N1    N     N_2   0.254463 0.547730 0.134538 -0.421612
N2    N     N_2   0.208132 0.530084 0.501567 -0.387273
N3    N     N_2   0.694081 0.947784 0.061965 -0.433384
N4    N     N_2   0.708131 0.030085 0.501568 -0.387271
N5    N     N_2   0.286638 0.478224 0.667533 -0.425912
N6    N     N_2   0.754464 0.047730 0.134539 -0.421612
N7    N     N_2   0.786638 0.978224 0.667520 -0.425912
N8    N     N_2   0.730097 0.349065 0.029417 -0.438486
N9    N     N_2   0.734525 0.653024 0.493706 -0.442454
N10   N     N_2   0.230097 0.849065 0.029416 -0.438486
N11   N     N_2   0.234525 0.153024 0.493706 -0.442455
N12   N     N_2   0.194081 0.447785 0.061963 -0.433383
O1    O     O_2   0.898940 0.431940 0.867860 -0.451911
O2    O     O_3   0.035227 0.711253 0.545325 -0.603947
O3    O     O_3   0.534573 0.788770 0.051462 -0.601996
O4    O     O_3   0.535227 0.211253 0.545325 -0.603947
O5    O     O_3   0.058810 0.523750 0.066650 -0.482430
O6    O     O_3   0.058810 0.476250 0.566650 -0.451903
O7    O     O_3   0.558810 0.023750 0.066650 -0.482430
O8    O     O_3   0.558810 0.976250 0.566650 -0.451902
O9    O     O_3   0.941140 0.476130 0.123050 -0.495179
O10   O     O_3   0.941140 0.523870 0.623050 -0.479595
O11   O     O_3   0.441140 0.976130 0.123050 -0.495180
O12   O     O_2   0.898940 0.568060 0.367860 -0.477043
O13   O     O_3   0.441140 0.023870 0.623050 -0.479595
O14   O     O_3   0.982430 0.389880 0.635700 -0.490089
O15   O     O_3   0.982430 0.610120 0.135700 -0.491718
O16   O     O_3   0.482430 0.889880 0.635700 -0.490089
O17   O     O_3   0.482430 0.110120 0.135700 -0.491718
O18   O     O_2   0.897633 0.349943 0.734814 -0.492048
O19   O     O_2   0.897461 0.650074 0.231143 -0.496376
O20   O     O_2   0.397633 0.849943 0.734815 -0.492048
O21   O     O_2   0.397461 0.150074 0.231143 -0.496376
O22   O     O_3   0.838891 0.484749 0.020342 -0.649988
O23   O     O_2   0.398940 0.931940 0.867860 -0.451911
O24   O     O_3   0.839640 0.514465 0.531281 -0.648776
O25   O     O_3   0.338890 0.984750 0.020342 -0.649988
O26   O     O_3   0.339640 0.014465 0.531281 -0.648776
O27   O     O_3   0.965680 0.288891 0.648858 -0.599294
O28   O     O_3   0.965863 0.711093 0.143203 -0.598036
O29   O     O_3   0.465680 0.788891 0.648858 -0.599294
O30   O     O_3   0.465863 0.211093 0.143202 -0.598036
O31   O     O_2   0.100770 0.431440 0.821660 -0.466092
O32   O     O_2   0.100770 0.568560 0.321660 -0.414658
O33   O     O_2   0.600770 0.931440 0.821660 -0.466091
O34   O     O_2   0.398940 0.068060 0.367860 -0.477043
O35   O     O_2   0.600770 0.068560 0.321660 -0.414657
O36   O     O_3   0.017130 0.389790 0.053700 -0.486632
O37   O     O_3   0.017130 0.610210 0.553700 -0.485511
O38   O     O_3   0.517130 0.889790 0.053700 -0.486632
O39   O     O_3   0.517130 0.110210 0.553700 -0.485511
O40   O     O_2   0.100574 0.349324 0.948380 -0.488985
O41   O     O_2   0.101067 0.650362 0.447294 -0.486115
O42   O     O_2   0.600574 0.849324 0.948380 -0.488985
O43   O     O_2   0.601067 0.150362 0.447294 -0.486114
O44   O     O_3   0.155361 0.490857 0.674153 -0.650675
O45   O     O_3   0.157150 0.511746 0.189720 -0.628162
O46   O     O_3   0.655361 0.990857 0.674153 -0.650676
O47   O     O_3   0.657150 0.011746 0.189720 -0.628163
O48   O     O_3   0.034573 0.288770 0.051461 -0.601996
P1    P     P_3+3 0.893960 0.447890 0.040050 0.979404
P2    P     P_3+3 0.064996 0.655038 0.581685 0.955712
P3    P     P_3+3 0.564686 0.845007 0.083625 0.947448
P4    P     P_3+3 0.564996 0.155038 0.581685 0.955713
P5    P     P_3+3 0.935412 0.655461 0.101814 0.933650
P6    P     P_3+3 0.935322 0.344462 0.605084 0.941191
P7    P     P_3+3 0.435412 0.155461 0.101814 0.933650
P8    P     P_3+3 0.435322 0.844462 0.605084 0.941191
P9    P     P_3+3 0.893960 0.552110 0.540050 0.975474
P10   P     P_3+3 0.393960 0.947890 0.040050 0.979404
P11   P     P_3+3 0.393960 0.052110 0.540050 0.975474
P12   P     P_3+3 0.105800 0.447360 0.649510 0.992607
P13   P     P_3+3 0.105800 0.552640 0.149510 1.000174
P14   P     P_3+3 0.605800 0.947360 0.649510 0.992607
P15   P     P_3+3 0.605800 0.052640 0.149510 1.000173
P16   P     P_3+3 0.064686 0.345007 0.083625 0.947447

loop_
_geom_bond_atom_site_label_1
_geom_bond_atom_site_label_2
_ccdc_geom_bond_type
H17   N6    S    
O1    P1    D    
C119  H92   S    
C111  H13   S    
C29   H80   S    
C84   P12   S    
C83   C87   A    
C15   C16   S    
O44   P12   S    
C124  O29   S    
C124  H96   S    
C11   H23   S    
C48   H106  S    
C121  H94   S    
C113  H35   S    
H70   N2    S    
Ba4   O17   S    
C2    C81   A    
H56   N10   S    
O10   P9    S    
O11   P10   S    
Ba1   O36   S    
C51   C55   A    
C59   H152  S    
C118  H87   S    
C33   C38   A    
O21   P7    D    
C20   H43   S    
C12   C118  S    
C43   H122  S    
C87   H113  S    
C45   C47   A    
Ba1   O5    S    
C1    C122  S    
C51   H121  S    
Ba3   O7    S    
C77   C82   A    
O4    P4    S    
O12   P9    D    
Ba3   O33   S    
C17   C18   S    
C70   P1    S    
C75   H136  S    
C110  H2    S    
C7    H156  S    
C27   H72   S    
C80   P4    S    
C62   N9    S    
O40   P16   D    
O17   P7    S    
C78   P2    S    
C46   C49   A    
C12   H30   S    
C29   N4    S    
H8    N1    S    
C77   C95   A    
C122  H1    S    
C105  O45   S    
C15   H34   S    
C60   C62   A    
C49   H119  S    
O6    P12   S    
C74   C78   A    
C82   P3    S    
C53   C93   S    
C105  H4    S    
C4    C70   A    
C8    H11   S    
C13   C92   A    
C23   H59   S    
C9    H14   S    
C98   H146  S    
Ba2   O32   S    
C86   P14   S    
Ba3   O13   S    
C83   P13   S    
C115  C119  S    
C102  H111  S    
Ba2   P9    S    
C111  N6    S    
C46   C73   A    
C14   H28   S    
C111  H140  S    
C112  N7    S    
C64   C73   A    
C75   C93   A    
C85   P15   S    
C66   C101  S    
Ba4   P15   S    
C53   C57   A    
Ba1   P12   S    
C36   H142  S    
O45   P13   S    
C28   H75   S    
C34   C39   A    
C46   H125  S    
C42   P7    S    
C66   H163  S    
C3    H99   S    
C17   C120  S    
O15   P5    S    
C108  N4    S    
C2    H127  S    
Ba4   O34   S    
C30   C69   S    
C18   H38   S    
H21   N7    S    
H52   N9    S    
C124  H98   S    
C16   H32   S    
O23   P10   D    
C7    C42   A    
O27   P6    S    
C57   H132  S    
O32   P13   D    
C117  O26   S    
C79   P16   S    
C30   C114  A    
C52   C91   S    
O16   P8    S    
Ba4   O39   S    
C80   C98   A    
C37   C123  S    
C54   C94   S    
C113  C118  S    
C92   P10   S    
Ba1   O10   S    
C104  H169  S    
C2    C31   A    
C15   C119  S    
C17   H40   S    
C37   H105  S    
O22   P1    S    
O33   P14   D    
C47   H117  S    
C115  H46   S    
C22   N9    S    
H48   N8    S    
O8    P14   S    
C65   O48   S    
C5    C81   A    
C59   H108  S    
C45   H124  S    
Ba2   O37   S    
C68   C104  S    
C56   C63   A    
C104  H3    S    
C19   C20   S    
C25   H63   S    
C64   N11   S    
C13   C32   A    
C20   H42   S    
Ba4   O8    S    
C117  H68   S    
O46   P14   S    
C121  H90   S    
C58   H133  S    
C88   C93   A    
Ba3   O38   S    
C70   C114  A    
O19   P5    D    
C118  H91   S    
C108  O46   S    
C122  H95   S    
C123  H85   S    
C10   H19   S    
Ba2   O6    S    
O2    P2    S    
H65   N12   S    
Ba1   O31   S    
C34   H139  S    
C117  C121  S    
C29   H82   S    
O20   P8    D    
Ba2   O9    S    
Ba3   O23   S    
C6    C41   A    
C120  H93   S    
C3    C59   S    
C100  H170  S    
C24   H130  S    
C8    H10   S    
C67   C102  S    
C67   H164  S    
Ba3   Ba4   S    
C108  C112  S    
C59   H103  S    
C83   C96   A    
C120  H89   S    
C79   C97   A    
O47   P15   S    
O18   P6    D    
C107  H6    S    
C35   C40   A    
C39   P6    S    
C107  O47   S    
C115  H83   S    
C99   H147  S    
H78   N4    S    
C24   C33   A    
C17   H41   S    
Ba2   P13   S    
C5    H154  S    
C85   C89   A    
C20   H44   S    
C110  H129  S    
C11   H25   S    
C37   H149  S    
C87   C91   A    
C119  H88   S    
C35   H141  S    
C54   C58   A    
C44   C51   A    
C65   H157  S    
C13   H128  S    
C116  H84   S    
Ba3   P14   S    
C4    C39   A    
C76   C80   A    
C116  H57   S    
C27   H71   S    
C48   C124  S    
O43   P4    D    
C103  P11   S    
C9    N5    S    
O26   P11   S    
C60   H134  S    
C19   H47   S    
C100  H166  S    
Ba2   O15   S    
C55   C95   S    
C38   C42   A    
C8    N1    S    
O25   P10   S    
Ba4   O11   S    
C50   H120  S    
C68   H165  S    
Ba1   O14   S    
C22   H55   S    
Ba3   O16   S    
H74   N3    S    
C100  H109  S    
O9    P1    S    
C86   C90   A    
C36   C41   A    
C3    H107  S    
C1    H100  S    
C43   C69   A    
C89   H115  S    
C49   C53   A    
C68   O4    S    
C109  H162  S    
O5    P13   S    
C52   C56   A    
Ba1   P1    S    
C6    H155  S    
C28   H76   S    
C31   C35   A    
C61   N8    S    
O7    P15   S    
C74   C91   A    
Ba1   O6    S    
C1    H104  S    
Ba3   O8    S    
C43   C50   A    
C18   H39   S    
Ba2   O12   S    
O35   P15   D    
C66   O2    S    
C123  O28   S    
C48   H150  S    
C113  O22   S    
C96   H144  S    
C115  O24   S    
C76   C94   A    
C12   H29   S    
C21   H50   S    
C101  H167  S    
C113  H79   S    
C102  H168  S    
C21   H51   S    
C19   H45   S    
C63   N10   S    
C11   N7    S    
C110  N5    S    
C117  H86   S    
C44   H123  S    
C75   C79   A    
C48   H102  S    
C26   H66   S    
C33   C73   S    
C62   C71   A    
C105  N12   S    
C25   H64   S    
C23   H60   S    
C9    H15   S    
C86   C99   A    
O39   P4    S    
C22   H53   S    
O24   P9    S    
C109  N1    S    
C123  H97   S    
C25   H62   S    
C25   N11   S    
C28   H77   S    
C26   N12   S    
C11   H22   S    
C14   H27   S    
Ba1   O1    S    
C85   C98   A    
C67   H159  S    
C74   H135  S    
C68   H160  S    
O29   P8    S    
C84   C97   A    
C106  O44   S    
C31   C71   S    
C55   C60   A    
C56   H131  S    
C47   C52   A    
C28   N3    S    
C9    H16   S    
C24   C103  A    
C109  H118  S    
C10   H20   S    
C61   C69   A    
Ba1   Ba2   S    
C38   H143  S    
C90   H116  S    
O14   P6    S    
C18   H37   S    
C88   H114  S    
C84   C88   A    
C66   H158  S    
C16   H31   S    
C101  H110  S    
C32   C72   S    
C105  C109  S    
C19   C121  S    
C81   P9    S    
H12   N5    S    
C21   N8    S    
C44   C71   A    
C97   H145  S    
C10   N6    S    
C29   H81   S    
C82   C99   A    
C122  O27   S    
O38   P3    S    
C23   N10   S    
H61   N11   S    
C76   H137  S    
C104  H112  S    
C32   C36   A    
C116  O25   S    
Ba3   P10   S    
O3    P3    S    
O42   P3    D    
C23   H58   S    
O37   P2    S    
Ba4   P11   S    
C6    C92   A    
C45   C72   A    
C1    H148  S    
O34   P11   D    
Ba4   O7    S    
O31   P12   D    
O41   P2    D    
C37   H101  S    
C106  N2    S    
C7    C103  A    
C77   H138  S    
C41   P8    S    
C3    O30   S    
C108  H7    S    
C22   H54   S    
C112  H24   S    
C50   C54   A    
C65   C100  S    
C106  C110  S    
O13   P11   S    
C5    C40   A    
C58   C61   A    
C30   C34   A    
C78   C96   A    
C112  H151  S    
C114  H126  S    
C27   N2    S    
C14   H26   S    
C10   H18   S    
O28   P5    S    
Ba2   O5    S    
Ba4   O35   S    
C40   P5    S    
O30   P7    S    
O36   P16   S    
C26   H67   S    
C4    H153  S    
C57   C64   A    
C90   C95   A    
C107  N3    S    
C16   H33   S    
C65   H161  S    
C15   H36   S    
C27   H73   S    
C26   H69   S    
C12   C14   S    
C8    H9    S    
C106  H5    S    
C107  C111  S    
C63   C72   A    
C101  H171  S    
C21   H49   S    
C102  H172  S    
C89   C94   A    
C116  C120  S    
C67   O3    S    
O48   P16   S    
