data_mof_unit_52021.cif
_audit_creation_date              2012-10-26T18:27:30-0400
_audit_creation_method            fapswitch 2.2
_symmetry_space_group_name_H-M    P1
_symmetry_Int_Tables_number       1
_space_group_crystal_system       triclinic
_cell_length_a                    10.858194
_cell_length_b                    11.035138
_cell_length_c                    9.86359
_cell_angle_alpha                 111.950431
_cell_angle_beta                  97.918555
_cell_angle_gamma                 91.298891
_cell_volume                      1082.19875584

loop_
_atom_site_label
_atom_site_type_symbol
_atom_type_description
_atom_site_fract_x
_atom_site_fract_y
_atom_site_fract_z
_atom_type_partial_charge
C1    C     C_R   0.491866 0.253705 0.439518 0.565518
C2    C     C_2   0.513249 0.932181 0.486474 -0.111903
C3    C     C_2   0.511996 0.510154 0.081669 0.070984
C4    C     C_R   0.263565 0.508910 0.504418 0.548327
C5    C     C_2   0.489166 0.490170 0.919184 -0.042478
C6    C     C_R   0.512495 0.746816 0.560551 0.562663
C7    C     C_R   0.737237 0.504752 0.500238 0.561675
C8    C     C_R   0.144257 0.756718 0.630105 -0.015344
C9    C     C_R   0.084344 0.867337 0.626096 0.011518
C10   C     C_R   0.955887 0.865505 0.622512 -0.117331
C11   C     C_R   0.891114 0.752959 0.617394 -0.010075
C12   C     C_R   0.074675 0.632139 0.566708 -0.003595
C13   C     C_R   0.943968 0.630602 0.561269 -0.011731
C14   C     C_3   0.120636 0.262564 0.400737 -0.367509
C15   C     C_1   0.612024 0.604902 0.176792 0.277791
C16   C     C_3   0.252021 0.783260 0.753718 -0.365822
C17   C     C_1   0.154607 0.990374 0.658552 0.188569
C18   C     C_1   0.811960 0.776658 0.728795 0.216215
C19   C     C_1   0.849707 0.266599 0.389899 0.206891
C20   C     C_3   0.544745 0.982508 0.758888 -0.397274
C21   C     C_R   0.130222 0.511182 0.511209 0.013799
C22   C     C_R   0.057262 0.389979 0.454004 -0.037074
C23   C     C_R   0.927218 0.389510 0.448903 -0.020467
C24   C     C_R   0.871408 0.508786 0.502070 -0.012784
C25   C     C_2   0.489336 0.113390 0.404573 -0.105118
C26   C     C_2   0.522034 0.071349 0.513556 -0.133640
C27   C     C_2   0.523466 0.888791 0.597733 -0.019243
Cu1   Cu    Cu3+1 0.521920 0.521810 0.644910 0.956921
Cu2   Cu    Cu3+1 0.478080 0.478190 0.355090 0.977082
H1    H     H_    0.459713 0.045011 0.291239 0.104979
H2    H     H_    0.192897 0.260230 0.490948 0.153698
H3    H     H_    0.236670 0.869010 0.852566 0.120603
H4    H     H_    0.261458 0.701708 0.792935 0.165344
H5    H     H_    0.337177 0.808160 0.719364 0.156829
H6    H     H_    0.544747 0.931253 0.836434 0.173009
H7    H     H_    0.636343 0.039840 0.785754 0.142851
H8    H     H_    0.469162 0.050161 0.779970 0.143184
H9    H     H_    0.414633 0.418876 0.846510 0.153068
H10   H     H_    0.626254 0.621381 0.931195 0.236583
H11   H     H_    0.374768 0.378941 0.065336 0.203069
H12   H     H_    0.911864 0.957270 0.651885 0.125309
H13   H     H_    0.495258 0.863661 0.371797 0.155558
H14   H     H_    0.553357 0.141592 0.625255 0.164694
H15   H     H_    0.056433 0.173308 0.366779 0.151003
H16   H     H_    0.165704 0.255554 0.303959 0.147715
N1    N     N_2   0.445130 0.445430 0.137370 -0.363773
N2    N     N_2   0.554930 0.554500 0.862630 -0.354063
N3    N     N_1   0.692511 0.681160 0.251568 -0.305677
N4    N     N_1   0.210841 0.088876 0.684345 -0.338586
N5    N     N_1   0.753903 0.798080 0.823913 -0.283007
N6    N     N_1   0.787895 0.168690 0.342873 -0.293909
O1    O     O_R   0.511700 0.332330 0.577400 -0.497717
O2    O     O_R   0.474680 0.295500 0.332650 -0.489339
O3    O     O_R   0.338160 0.518420 0.622400 -0.516755
O4    O     O_R   0.301140 0.481590 0.377650 -0.493136
O5    O     O_R   0.525320 0.704500 0.667350 -0.490309
O6    O     O_R   0.488300 0.667670 0.422600 -0.498223
O7    O     O_R   0.698860 0.518410 0.622350 -0.481081
O8    O     O_R   0.661840 0.481580 0.377600 -0.478488

loop_
_geom_bond_atom_site_label_1
_geom_bond_atom_site_label_2
_ccdc_geom_bond_type
C19   C23   S    
C23   C24   A    
C11   C18   S    
C2    C27   D    
C20   H8    S    
C20   C27   S    
Cu1   O7    S    
C16   H4    S    
C16   H3    S    
C11   C13   A    
C9    C10   A    
C14   H2    S    
C3    N1    D    
Cu2   O4    S    
C6    C27   S    
Cu2   N1    S    
C8    C12   A    
C16   H5    S    
C14   C22   S    
Cu1   O5    S    
C2    C26   S    
C21   C22   A    
C10   H12   S    
C1    C25   S    
C4    C21   S    
Cu1   O1    S    
C6    O6    A    
Cu2   O2    S    
C15   N3    T    
C2    H13   S    
Cu1   N2    S    
C9    C17   S    
Cu1   Cu2   S    
C5    N2    D    
Cu2   O6    S    
C26   H14   S    
C14   H16   S    
C4    O4    A    
C1    O1    A    
C10   C11   A    
H11   N1    S    
C17   N4    T    
C7    C24   S    
C20   H7    S    
C19   N6    T    
C3    C15   S    
C12   C13   A    
C18   N5    T    
C14   H15   S    
C8    C16   S    
C7    O8    A    
C25   H1    S    
C1    O2    A    
C22   C23   A    
Cu1   O3    S    
C7    O7    A    
C4    O3    A    
C25   C26   D    
C5    H9    S    
H10   N2    S    
C12   C21   A    
C20   H6    S    
Cu2   O8    S    
C13   C24   A    
C6    O5    A    
C8    C9    A    
C3    C5    S    
