data_mof_unit_17410.cif
_audit_creation_date              2012-12-11T14:15:50-0500
_audit_creation_method            fapswitch 2.2
_symmetry_space_group_name_H-M    P1
_symmetry_Int_Tables_number       1
_space_group_crystal_system       triclinic
_cell_length_a                    11.167284
_cell_length_b                    12.700406
_cell_length_c                    23.562468
_cell_angle_alpha                 90.461512
_cell_angle_beta                  96.496911
_cell_angle_gamma                 68.431907
_cell_volume                      3085.85728167

loop_
_atom_site_label
_atom_site_type_symbol
_atom_type_description
_atom_site_fract_x
_atom_site_fract_y
_atom_site_fract_z
_atom_type_partial_charge
C1    C     C_R   0.149769 0.616808 0.428919 0.545793
C2    C     C_2   0.155251 0.242874 0.222030 0.098620
C3    C     C_2   0.165690 0.165027 0.263548 0.231642
C4    C     C_R   0.746528 0.606305 0.404253 0.551542
C5    C     C_1   0.137350 0.198466 0.321305 0.019374
C6    C     C_1   0.198045 0.203412 0.167081 0.053753
C7    C     C_1   0.118157 0.231349 0.368873 0.044692
C8    C     C_1   0.167341 0.750722 0.123858 0.025178
C9    C     C_2   0.137511 0.693045 0.228227 0.294382
C10   C     C_2   0.233980 0.676311 0.271077 -0.024552
C11   C     C_1   0.217453 0.652671 0.329114 0.041250
C12   C     C_R   0.638188 0.574172 0.311167 0.197549
C13   C     C_1   0.153730 0.722952 0.170911 -0.014493
C14   C     C_1   0.194201 0.634973 0.376199 0.036576
C15   C     C_1   0.630787 0.754040 0.865519 0.017359
C16   C     C_R   0.101627 0.281974 0.423563 0.550686
C17   C     C_2   0.704164 0.695684 0.763107 -0.115611
C18   C     C_2   0.613899 0.709854 0.718139 -0.086942
C19   C     C_1   0.651908 0.672232 0.662633 -0.007917
C20   C     C_1   0.667366 0.729580 0.819186 -0.043554
C21   C     C_1   0.690514 0.640393 0.617331 0.018998
C22   C     C_R   0.195292 0.173683 0.853597 0.042771
C23   C     C_R   0.691296 0.744631 0.319367 0.015595
C24   C     C_R   0.105338 0.235213 0.641574 0.036402
C25   C     C_R   0.111614 0.091961 0.709116 -0.067397
C26   C     C_R   0.095836 0.129764 0.652653 0.190531
C27   C     C_R   0.122889 0.304303 0.686186 0.232868
C28   C     C_R   0.148477 0.616220 0.590532 0.565544
C29   C     C_R   0.135812 0.267018 0.743163 0.041509
C30   C     C_R   0.134769 0.157905 0.753818 -0.095872
C31   C     C_R   0.160718 0.113882 0.809139 -0.182755
C32   C     C_R   0.191702 0.283556 0.845055 0.226756
C33   C     C_R   0.150882 0.334741 0.789631 0.246496
C34   C     C_R   0.683509 0.752904 0.258607 -0.050709
C35   C     C_R   0.141942 0.748486 0.850562 0.033766
C36   C     C_R   0.181331 0.632982 0.649365 0.017244
C37   C     C_R   0.329299 0.583396 0.735892 0.032359
C38   C     C_R   0.305818 0.577281 0.676928 -0.158095
C39   C     C_R   0.077901 0.690368 0.679997 -0.063614
C40   C     C_R   0.749981 0.602277 0.566149 0.550766
C41   C     C_R   0.099167 0.701603 0.737574 0.013605
C42   C     C_R   0.226953 0.655457 0.765499 0.031306
C43   C     C_R   0.248840 0.690416 0.820558 0.241955
C44   C     C_R   0.015081 0.781786 0.824055 -0.181783
C45   C     C_R   0.676252 0.659487 0.227097 -0.021498
C46   C     C_R   0.994039 0.762075 0.766846 -0.148554
C47   C     C_R   0.265316 0.110157 0.069317 0.556952
C48   C     C_R   0.603051 0.773839 0.080753 0.547887
C49   C     C_R   0.189616 0.787922 0.069866 0.556647
C50   C     C_R   0.240774 0.114778 0.908117 0.602445
C51   C     C_R   0.574491 0.776057 0.918324 0.558421
C52   C     C_R   0.100107 0.278019 0.584490 0.561460
C53   C     C_R   0.167168 0.787811 0.906436 0.565056
C54   C     C_R   0.678354 0.752846 0.138380 -0.066545
C55   C     C_R   0.680830 0.647953 0.345719 -0.038982
C56   C     C_R   0.689974 0.654080 0.168924 0.213055
C57   C     C_R   0.647225 0.574729 0.253202 -0.012374
C58   C     C_2   0.718414 0.935425 0.137983 0.646980
C59   C     C_2   0.455931 0.505367 0.764948 0.582069
C60   C     C_2   0.720790 0.830078 0.355633 0.624346
C61   C     C_2   0.098718 0.367872 0.229039 0.567151
C62   C     C_R   0.695048 0.843908 0.168623 0.026935
C63   C     C_R   0.689805 0.847219 0.228134 0.237851
C64   C     C_1   0.231283 0.165583 0.121781 0.050077
Cr1   Cr    Cr6+3 0.189770 0.415650 0.511620 1.070156
Cr2   Cr    Cr6+3 0.930400 0.667320 0.496770 1.089921
Cr3   Cr    Cr6+3 0.879870 0.417010 0.491650 1.082039
Cr4   Cr    Cr6+3 0.149500 0.973980 0.985330 1.056278
Cr5   Cr    Cr6+3 0.457000 0.976510 0.994660 1.093089
Cr6   Cr    Cr6+3 0.411170 0.724270 0.995270 1.114678
H1    H     H_    0.511359 0.749465 0.722798 0.126453
H2    H     H_    0.324923 0.682880 0.262990 0.082869
H3    H     H_    0.750210 0.552359 0.107686 0.350442
H4    H     H_    0.964417 0.698279 0.202866 0.336963
H5    H     H_    0.258615 0.395587 0.876630 0.356319
H6    H     H_    0.095348 0.489315 0.815837 0.333432
H7    H     H_    0.067982 0.095363 0.572314 0.327034
H8    H     H_    0.216401 0.403962 0.693217 0.356544
H9    H     H_    0.414383 0.700037 0.810793 0.304173
H10   H     H_    0.801763 0.976960 0.074437 0.344048
H11   H     H_    0.646607 0.419833 0.760451 0.350982
H12   H     H_    0.806352 0.653561 0.758480 0.156111
H13   H     H_    0.602236 0.970720 0.273613 0.338816
H14   H     H_    0.555196 0.526034 0.367747 0.333573
H15   H     H_    0.844997 0.908819 0.379147 0.345693
H16   H     H_    0.216160 0.006657 0.286491 0.332751
H17   H     H_    0.983403 0.499681 0.270503 0.372387
H18   H     H_    0.163039 0.029026 0.817327 0.130517
H19   H     H_    0.108860 0.009242 0.718014 0.152188
H20   H     H_    0.933486 0.829277 0.846522 0.145900
H21   H     H_    0.896157 0.796439 0.745105 0.124249
H22   H     H_    0.381786 0.524433 0.652865 0.163031
H23   H     H_    0.979089 0.725892 0.659023 0.143818
H24   H     H_    0.627065 0.509794 0.228254 0.218392
O1    O     O_R   0.196340 0.303200 0.448500 -0.504169
O2    O     O_R   0.555390 0.700940 0.062700 -0.485875
O3    O     O_R   0.295020 0.731920 0.049950 -0.492370
O4    O     O_R   0.199310 0.519670 0.454880 -0.500138
O5    O     O_R   0.094290 0.884230 0.921550 -0.529125
O6    O     O_R   0.168980 0.069410 0.926940 -0.511877
O7    O     O_R   0.358400 0.089990 0.927950 -0.475166
O8    O     O_R   0.544850 0.873850 0.939920 -0.503381
O9    O     O_R   0.536020 0.701900 0.936430 -0.448103
O10   O     O_R   0.277070 0.732810 0.932890 -0.432258
O11   O     O_3   0.339220 0.891590 0.991750 -0.284551
O12   O     O_R   0.811960 0.658090 0.547150 -0.495777
O13   O     O_R   0.045660 0.691380 0.441680 -0.481574
O14   O     O_R   0.811930 0.659460 0.430950 -0.472152
O15   O     O_R   0.757900 0.507620 0.421760 -0.481481
O16   O     O_R   0.988630 0.322990 0.439840 -0.483427
O17   O     O_R   0.196380 0.301720 0.573850 -0.483520
O18   O     O_R   0.199350 0.518300 0.571080 -0.481919
O19   O     O_R   0.045700 0.689900 0.567030 -0.516857
O20   O     O_3   0.706209 0.553292 0.142087 -0.662447
O21   O     O_3   0.022024 0.685575 0.239451 -0.654022
O22   O     O_3   0.228702 0.337528 0.891038 -0.685298
O23   O     O_R   0.757930 0.506140 0.547110 -0.498509
O24   O     O_3   0.121433 0.449303 0.780364 -0.691858
O25   O     O_3   0.076607 0.059508 0.610426 -0.692385
O26   O     O_3   0.133289 0.405638 0.672551 -0.641248
O27   O     O_3   0.371320 0.684290 0.842468 -0.637797
O28   O     O_2   0.674871 0.033468 0.152838 -0.428016
O29   O     O_R   0.791766 0.908375 0.091886 -0.700277
O30   O     O_2   0.462815 0.465618 0.812858 -0.457137
O31   O     O_R   0.566556 0.473597 0.736467 -0.709307
O32   O     O_3   0.682017 0.946396 0.254285 -0.597406
O33   O     O_3   0.596139 0.495127 0.332940 -0.658542
O34   O     O_R   0.988670 0.321620 0.556040 -0.496496
O35   O     O_2   0.646698 0.880950 0.389709 -0.525692
O36   O     O_R   0.835048 0.849611 0.351895 -0.602063
O37   O     O_3   0.213040 0.051146 0.251553 -0.700714
O38   O     O_2   0.120272 0.431223 0.196254 -0.493510
O39   O     O_R   0.017452 0.413870 0.271219 -0.691128
O40   O     O_3   0.000020 0.499990 0.500010 -0.263091
O41   O     O_R   0.113660 0.883270 0.047820 -0.493731
O42   O     O_R   0.186930 0.068530 0.043990 -0.496221
O43   O     O_R   0.377770 0.089040 0.054220 -0.477168
O44   O     O_R   0.562800 0.872960 0.056970 -0.478015

loop_
_geom_bond_atom_site_label_1
_geom_bond_atom_site_label_2
_ccdc_geom_bond_type
C24   C52   S    
C4    O15   A    
C58   C62   S    
C8    C13   T    
Cr2   O19   S    
C29   C33   A    
C47   O42   A    
C35   C53   S    
C41   C42   A    
H17   O39   S    
Cr6   O2    S    
C24   C27   A    
Cr2   O13   S    
C52   O34   A    
C16   O16   A    
C39   C41   A    
C12   O33   S    
Cr5   O8    S    
C28   O18   A    
C51   O8    A    
C48   C54   S    
C4    O14   A    
C45   C57   A    
C58   O29   S    
C37   C38   A    
C22   C32   A    
C3    O37   S    
C19   C21   T    
C24   C26   A    
Cr1   O4    S    
C18   C19   S    
C30   C31   A    
C11   C14   T    
Cr6   O10   S    
H16   O37   S    
C27   C29   A    
C53   O10   A    
C51   O9    A    
C38   H22   S    
C18   H1    S    
C17   C20   S    
C17   H12   S    
C6    C64   T    
C37   C42   A    
C9    C13   S    
Cr1   O17   S    
C61   O38   D    
Cr2   O40   S    
Cr3   O15   S    
C39   H23   S    
C45   C56   A    
C41   C46   A    
C15   C51   S    
C29   C30   A    
C35   C43   A    
C9    C10   D    
C43   O27   S    
Cr1   O40   S    
Cr6   O3    S    
C22   C50   S    
H14   O33   S    
C40   O23   A    
C49   O41   A    
C33   O24   S    
C2    C6    S    
Cr2   O12   S    
C44   C46   A    
C36   C39   A    
Cr5   O43   S    
C23   C60   S    
C54   C56   A    
C58   O28   D    
C22   C31   A    
C61   O39   S    
C9    O21   S    
Cr4   O42   S    
Cr3   O40   S    
C26   O25   S    
C10   C11   S    
C60   O36   S    
C47   C64   S    
C5    C7    T    
Cr5   O11   S    
Cr6   O9    S    
C25   C30   A    
C46   H21   S    
C54   C62   A    
C52   O17   A    
C3    C5    S    
C25   C26   A    
C27   O26   S    
H6    O24   S    
H3    O20   S    
C15   C20   T    
C60   O35   D    
H8    O26   S    
Cr4   O6    S    
Cr1   O18   S    
C62   C63   A    
H15   O36   S    
H9    O27   S    
Cr3   O16   S    
C23   C34   A    
C47   O43   A    
C17   C18   D    
C34   C45   A    
C32   O22   S    
C35   C44   A    
Cr3   O23   S    
C37   C59   S    
C1    O13   A    
C12   C57   A    
C7    C16   S    
C57   H24   S    
C4    C55   S    
C59   O30   D    
C53   O5    A    
C42   C43   A    
H13   O32   S    
C44   H20   S    
C40   O12   A    
Cr5   O44   S    
C16   O1    A    
C31   H18   S    
C48   O2    A    
H11   O31   S    
C50   O6    A    
Cr4   O41   S    
Cr2   O14   S    
H7    O25   S    
Cr6   O11   S    
C1    O4    A    
C2    C61   S    
C23   C55   A    
H5    O22   S    
Cr5   O7    S    
C59   O31   S    
C25   H19   S    
C48   O44   A    
C32   C33   A    
C36   C38   A    
C2    C3    D    
Cr4   O5    S    
Cr3   O34   S    
C21   C40   S    
H4    O21   S    
C34   C63   A    
C12   C55   A    
C28   O19   A    
C49   O3    A    
C63   O32   S    
Cr1   O1    S    
C28   C36   S    
C50   O7    A    
Cr4   O11   S    
C56   O20   S    
C1    C14   S    
C8    C49   S    
H10   O29   S    
C10   H2    S    
