data_mof_unit_50691.cif
_audit_creation_date              2012-12-10T17:51:21-0500
_audit_creation_method            fapswitch 2.2
_symmetry_space_group_name_H-M    P1
_symmetry_Int_Tables_number       1
_space_group_crystal_system       triclinic
_cell_length_a                    14.685165
_cell_length_b                    14.754978
_cell_length_c                    17.356295
_cell_angle_alpha                 105.803696
_cell_angle_beta                  73.209251
_cell_angle_gamma                 114.886576
_cell_volume                      3216.49122723

loop_
_atom_site_label
_atom_site_type_symbol
_atom_type_description
_atom_site_fract_x
_atom_site_fract_y
_atom_site_fract_z
_atom_type_partial_charge
C1    C     C_R   0.118678 0.687961 0.514431 0.803597
C2    C     C_R   0.881255 0.312094 0.486757 0.802186
C3    C     C_R   0.185297 0.795638 0.525483 -0.052383
C4    C     C_R   0.813930 0.205034 0.485005 -0.052992
C5    C     C_R   0.211067 0.973581 0.554174 -0.193626
C6    C     C_R   0.785094 0.030849 0.483737 -0.193100
C7    C     C_R   0.145512 0.872134 0.545427 -0.195585
C8    C     C_R   0.852233 0.130401 0.478575 -0.196795
C9    C     C_R   0.290560 0.821564 0.516283 -0.254239
C10   C     C_R   0.708546 0.178935 0.495200 -0.248428
C11   C     C_R   0.357885 0.923227 0.527557 0.089453
C12   C     C_R   0.638879 0.080346 0.504533 0.090085
C13   C     C_R   0.316812 0.999624 0.544397 0.164400
C14   C     C_R   0.678972 0.005346 0.496878 0.162265
C15   C     C_R   0.464985 0.950747 0.519982 0.065189
C16   C     C_R   0.530939 0.054218 0.520301 0.064863
C17   C     C_R   0.486663 0.128252 0.538213 -0.222169
C18   C     C_R   0.508019 0.878601 0.513674 -0.222447
C19   C     C_R   0.381570 0.101179 0.550820 -0.224096
C20   C     C_R   0.612920 0.905832 0.502882 -0.222545
C21   C     C_R   0.290220 0.322150 0.366501 0.154452
C22   C     C_R   0.710258 0.678416 0.633004 0.152123
C23   C     C_R   0.988880 0.501938 0.652383 0.794690
C24   C     C_R   0.011086 0.498003 0.347610 0.794833
C25   C     C_R   0.208762 0.356292 0.386918 0.026948
C26   C     C_R   0.791698 0.644267 0.612573 0.027092
C27   C     C_R   0.287120 0.491395 0.486317 -0.018247
C28   C     C_R   0.712448 0.508140 0.514193 -0.019690
C29   C     C_R   0.373270 0.463182 0.468772 -0.059718
C30   C     C_R   0.626167 0.536216 0.531964 -0.059069
C31   C     C_R   0.372470 0.375572 0.408757 0.082400
C32   C     C_R   0.627303 0.624201 0.591604 0.084503
C33   C     C_R   0.458608 0.517501 0.509586 0.103065
C34   C     C_R   0.540531 0.481572 0.491520 0.099373
C35   C     C_R   0.533693 0.391713 0.434082 -0.244938
C36   C     C_R   0.465192 0.607072 0.567341 -0.246518
C37   C     C_R   0.452426 0.340805 0.393498 -0.192115
C38   C     C_R   0.546906 0.658480 0.607399 -0.201833
C39   C     C_R   0.980811 0.498261 0.737376 -0.029961
C40   C     C_R   0.019016 0.501423 0.262580 -0.030887
C41   C     C_R   0.046820 0.465494 0.757041 -0.205541
C42   C     C_R   0.952859 0.533940 0.242850 -0.205437
C43   C     C_R   0.038903 0.460628 0.837469 -0.148282
C44   C     C_R   0.960599 0.538483 0.162375 -0.147930
C45   C     C_R   0.965675 0.489821 0.899514 0.192226
C46   C     C_R   0.033801 0.509219 0.100351 0.192015
C47   C     C_R   0.897961 0.520024 0.879828 -0.169755
C48   C     C_R   0.101643 0.479241 0.120095 -0.169930
C49   C     C_R   0.905686 0.524727 0.799151 -0.193163
C50   C     C_R   0.094092 0.474856 0.200816 -0.193651
C51   C     C_2   0.958365 0.489511 0.985287 -0.230137
C52   C     C_2   0.041050 0.509357 0.014553 -0.230076
Cu1   Cu    Cu3+1 0.916740 0.524770 0.521640 0.934897
Cu2   Cu    Cu3+1 0.083260 0.475230 0.478360 0.934602
H1    H     H_    0.104190 0.442870 0.710313 0.155947
H2    H     H_    0.895507 0.556612 0.289561 0.156503
H3    H     H_    0.530702 0.208580 0.545475 0.145933
H4    H     H_    0.462483 0.800551 0.519415 0.141217
H5    H     H_    0.452394 0.272152 0.350481 0.160783
H6    H     H_    0.546910 0.727115 0.650443 0.161657
H7    H     H_    0.720255 0.445499 0.467303 0.133557
H8    H     H_    0.279056 0.553786 0.533396 0.133809
H9    H     H_    0.856395 0.683155 0.642525 0.141597
H10   H     H_    0.144417 0.317899 0.356555 0.141892
H11   H     H_    0.589924 0.357549 0.419194 0.130780
H12   H     H_    0.408424 0.640656 0.582878 0.127637
H13   H     H_    0.146599 0.450337 0.214702 0.152222
H14   H     H_    0.853277 0.549412 0.785307 0.152323
H15   H     H_    0.115863 0.523501 0.974482 0.145785
H16   H     H_    0.883552 0.475376 0.025355 0.145740
H17   H     H_    0.840403 0.541726 0.927100 0.124424
H18   H     H_    0.159187 0.457495 0.072840 0.124306
H19   H     H_    0.910002 0.565953 0.149192 0.125362
H20   H     H_    0.089401 0.432994 0.850605 0.124909
H21   H     H_    0.350928 0.160324 0.564561 0.149388
H22   H     H_    0.642548 0.848222 0.498678 0.155594
H23   H     H_    0.682873 0.237126 0.494776 0.144397
H24   H     H_    0.318695 0.760782 0.497861 0.150574
H25   H     H_    0.933681 0.149109 0.470589 0.152568
H26   H     H_    0.064147 0.853656 0.553127 0.150318
H27   H     H_    0.179182 0.031765 0.568039 0.134188
H28   H     H_    0.816038 0.973954 0.478480 0.136531
N1    N     N_R   0.208390 0.438070 0.445820 -0.200589
N2    N     N_R   0.791610 0.561930 0.554180 -0.200165
O1    O     O_R   0.020090 0.662480 0.528530 -0.590657
O2    O     O_R   0.979910 0.337520 0.471470 -0.590732
O3    O     O_R   0.160710 0.620650 0.491980 -0.588249
O4    O     O_R   0.839290 0.379350 0.508020 -0.587648
O5    O     O_R   0.921540 0.523360 0.633990 -0.587996
O6    O     O_R   0.078460 0.476640 0.366010 -0.587940
O7    O     O_R   0.062170 0.481520 0.597440 -0.587657
O8    O     O_R   0.937830 0.518480 0.402560 -0.586940
N3    N     N_2   0.291639 0.236017 0.303911 -0.438188
H29   H     H_    0.355699 0.249989 0.257605 0.249495
C53   C     C_3   0.197806 0.165190 0.277337 -0.708856
H30   H     H_    0.210524 0.096440 0.238499 0.235989
H31   H     H_    0.174690 0.199865 0.240552 0.215301
H32   H     H_    0.135775 0.141479 0.330858 0.232624
N4    N     N_2   0.709632 0.765430 0.694751 -0.439303
H33   H     H_    0.646916 0.751913 0.742234 0.250295
C54   C     C_3   0.804493 0.837998 0.718682 -0.712194
H34   H     H_    0.792068 0.907316 0.756504 0.236601
H35   H     H_    0.864780 0.860146 0.663860 0.230702
H36   H     H_    0.829879 0.805681 0.755695 0.216185

loop_
_geom_bond_atom_site_label_1
_geom_bond_atom_site_label_2
_ccdc_geom_bond_type
C1    O3    A    
C15   C18   A    
N3    H29   S    
C6    H28   S    
C49   H14   S    
C29   C33   A    
C28   N2    A    
C53   H30   S    
C4    C8    A    
C53   H32   S    
C39   C41   A    
Cu1   Cu2   S    
C21   C31   A    
C54   H34   S    
C22   C32   A    
Cu1   N2    S    
C35   C37   A    
Cu2   O6    S    
C3    C7    A    
Cu2   O3    S    
C36   H12   S    
C27   C29   A    
C35   H11   S    
C15   C16   A    
C46   C52   S    
C33   C36   A    
C20   H22   S    
C34   C35   A    
C41   H1    S    
C52   H15   S    
C42   H2    S    
C11   C15   A    
C18   H4    S    
C12   C16   A    
C16   C17   A    
C8    H25   S    
C23   O5    A    
C2    O4    A    
C51   H16   S    
C32   C38   A    
C50   H13   S    
C5    C13   A    
C28   H7    S    
C43   H20   S    
C40   C42   A    
N3    C53   S    
C41   C43   A    
C42   C44   A    
C48   H18   S    
C24   O8    A    
Cu2   N1    S    
C10   H23   S    
C44   C46   A    
C45   C47   A    
C1    O1    A    
C46   C48   A    
C30   C34   A    
C51   C52   D    
C14   C20   A    
C47   C49   A    
Cu2   O2    S    
C13   C19   A    
C6    C8    A    
C31   C37   A    
C1    C3    S    
C25   H10   S    
C2    C4    S    
C26   H9    S    
C3    C9    A    
C27   H8    S    
C6    C14   A    
C5    H27   S    
N4    H33   S    
Cu1   O8    S    
C33   C34   A    
C9    C11   A    
C47   H17   S    
C37   H5    S    
C10   C12   A    
C38   H6    S    
C39   C49   A    
C12   C14   A    
C54   H36   S    
Cu1   O5    S    
C23   O7    A    
C4    C10   A    
C36   C38   A    
C5    C7    A    
C54   H35   S    
C21   C25   A    
C24   C40   S    
C26   N2    A    
C22   N4    S    
N4    C54   S    
C24   O6    A    
C53   H31   S    
C19   H21   S    
C28   C30   A    
C43   C45   A    
C30   C32   A    
C11   C13   A    
C21   N3    S    
C40   C50   A    
C48   C50   A    
C17   C19   A    
C2    O2    A    
Cu1   O4    S    
C18   C20   A    
C9    H24   S    
C44   H19   S    
C27   N1    A    
Cu2   O7    S    
C29   C31   A    
C22   C26   A    
C25   N1    A    
C45   C51   S    
Cu1   O1    S    
C23   C39   S    
C17   H3    S    
C7    H26   S    
