data_mof_unit_21326.cif
_audit_creation_date              2012-12-10T17:24:17-0500
_audit_creation_method            fapswitch 2.2
_symmetry_space_group_name_H-M    P1
_symmetry_Int_Tables_number       1
_space_group_crystal_system       triclinic
_cell_length_a                    10.072979
_cell_length_b                    10.891887
_cell_length_c                    16.847208
_cell_angle_alpha                 90.415001
_cell_angle_beta                  78.983112
_cell_angle_gamma                 95.341008
_cell_volume                      1806.32427421

loop_
_atom_site_label
_atom_site_type_symbol
_atom_type_description
_atom_site_fract_x
_atom_site_fract_y
_atom_site_fract_z
_atom_type_partial_charge
C1    C     C_R   0.556698 0.732166 0.496832 0.939361
C2    C     C_R   0.513502 0.493410 0.345631 0.911471
C3    C     C_R   0.492169 0.523128 0.738952 -0.217593
C4    C     C_R   0.506165 0.462277 0.261895 -0.207524
C5    C     C_R   0.616949 0.562453 0.762510 0.423238
C6    C     C_R   0.390103 0.484396 0.230217 0.458593
C7    C     C_R   0.626615 0.555522 0.843786 0.429706
C8    C     C_R   0.377789 0.439924 0.153417 0.460367
C9    C     C_R   0.509859 0.519822 0.901052 -0.102720
C10   C     C_R   0.487347 0.384693 0.106339 -0.081146
C11   C     C_R   0.384184 0.491053 0.878257 -0.212740
C12   C     C_R   0.443109 0.268068 0.503125 0.932203
C13   C     C_R   0.600054 0.360953 0.138644 -0.247997
C14   C     C_R   0.375350 0.492219 0.797234 -0.270875
C15   C     C_R   0.608165 0.397323 0.216607 -0.273714
C16   C     C_2   0.519921 0.505767 0.985740 0.506756
C17   C     C_2   0.502240 0.391005 0.017989 0.414111
C18   C     C_3   0.739888 0.726688 0.694142 -0.287167
C19   C     C_3   0.169614 0.505650 0.293250 -0.214030
C20   C     C_3   0.478832 0.175555 0.009437 -0.348382
C21   C     C_3   0.502609 0.714091 0.011868 -0.234242
C22   C     C_3   0.186192 0.368246 0.107649 -0.433664
C23   C     C_2   0.589070 0.863610 0.491033 -0.480465
C24   C     C_3   0.824285 0.484122 0.860195 -0.240799
C25   C     C_3   0.602339 0.103148 0.350259 -0.309848
C26   C     C_3   0.381275 0.898440 0.645111 -0.316882
C27   C     C_2   0.409366 0.137155 0.508798 -0.472692
C28   C     C_2   0.490195 0.937885 0.515263 0.456164
C29   C     C_2   0.505887 0.061966 0.481836 0.456927
C30   C     C_2   0.925275 0.506438 0.509306 -0.115233
C31   C     C_2   0.069648 0.481307 0.500467 -0.154469
C32   C     C_R   0.487145 0.508061 0.653867 0.906197
H1    H     H_    0.294175 0.463927 0.923212 0.180829
H2    H     H_    0.115157 0.557914 0.343894 0.183678
H3    H     H_    0.696466 0.377706 0.240557 0.185323
H4    H     H_    0.278887 0.464103 0.779975 0.185068
H5    H     H_    0.461526 0.100011 0.967028 0.195752
H6    H     H_    0.393642 0.164567 0.062378 0.164104
H7    H     H_    0.577574 0.164785 0.027517 0.166377
H8    H     H_    0.391916 0.697313 0.011639 0.170151
H9    H     H_    0.558673 0.752860 0.952796 0.162482
H10   H     H_    0.515196 0.784304 0.058531 0.184377
H11   H     H_    0.162109 0.306298 0.161892 0.148719
H12   H     H_    0.685837 0.322024 0.101661 0.157681
H13   H     H_    0.230239 0.316784 0.053463 0.206745
H14   H     H_    0.088738 0.398241 0.097003 0.205291
H15   H     H_    0.849781 0.454334 0.796205 0.186048
H16   H     H_    0.769319 0.406123 0.899064 0.149339
H17   H     H_    0.921334 0.509516 0.880794 0.180175
H18   H     H_    0.567540 0.008845 0.332173 0.160620
H19   H     H_    0.699096 0.133179 0.308690 0.185663
H20   H     H_    0.527615 0.169136 0.342615 0.156614
H21   H     H_    0.279968 0.875261 0.683808 0.197059
H22   H     H_    0.420181 0.991897 0.662511 0.148808
H23   H     H_    0.311169 0.103474 0.544313 0.173491
H24   H     H_    0.448226 0.828443 0.657575 0.151372
H25   H     H_    0.106531 0.404271 0.464350 0.159582
H26   H     H_    0.885218 0.575711 0.551434 0.201501
H27   H     H_    0.116181 0.625364 0.565717 0.188749
H28   H     H_    0.887239 0.383099 0.427490 0.166973
H29   H     H_    0.688516 0.898483 0.457690 0.174849
H30   H     H_    0.739751 0.777604 0.751724 0.174978
H31   H     H_    0.655644 0.751635 0.665282 0.128682
H32   H     H_    0.836565 0.756540 0.652454 0.182168
H33   H     H_    0.169917 0.409021 0.314541 0.099216
H34   H     H_    0.110617 0.508584 0.244263 0.202175
N1    N     N_2   0.846390 0.448330 0.467170 -0.195892
N2    N     N_2   0.153610 0.551670 0.532830 -0.178971
O1    O     O_R   0.430310 0.692580 0.506610 -0.535199
O2    O     O_3   0.301415 0.565776 0.269093 -0.572847
O3    O     O_3   0.482385 0.289098 0.969001 -0.639530
O4    O     O_3   0.556787 0.606041 0.031854 -0.601070
O5    O     O_3   0.272399 0.474218 0.118771 -0.601163
O6    O     O_3   0.749155 0.587981 0.867571 -0.588437
O7    O     O_3   0.626272 0.103489 0.430066 -0.602586
O8    O     O_3   0.366652 0.895229 0.563529 -0.597900
O9    O     O_R   0.569690 0.307420 0.493390 -0.542618
O10   O     O_R   0.652740 0.659410 0.485540 -0.625183
O11   O     O_R   0.347260 0.340590 0.514460 -0.632526
O12   O     O_R   0.375640 0.518570 0.627580 -0.621812
O13   O     O_R   0.624360 0.481430 0.372420 -0.623567
O14   O     O_R   0.598070 0.485390 0.606510 -0.567085
O15   O     O_R   0.401930 0.514610 0.393490 -0.576222
O16   O     O_3   0.732797 0.598175 0.706096 -0.593991
Zn1   Zn    Zn3+2 0.351480 0.522150 0.514070 0.980172
Zn2   Zn    Zn3+2 0.648520 0.477850 0.485930 0.978882

loop_
_geom_bond_atom_site_label_1
_geom_bond_atom_site_label_2
_ccdc_geom_bond_type
C1    O10   A    
C27   C29   D    
C5    O16   S    
C16   O4    S    
C18   H32   S    
C28   C29   S    
C9    C16   S    
C14   H4    S    
C30   C31   S    
C11   C14   A    
C27   H23   S    
C18   H31   S    
C10   C17   S    
C12   O11   A    
C19   H34   S    
C6    O2    S    
C25   H18   S    
H28   N1    S    
C16   C17   D    
C18   O16   S    
C20   O3    S    
O13   Zn2   S    
O10   Zn2   S    
N2    Zn1   S    
C2    O15   A    
C26   H22   S    
C15   H3    S    
C2    O13   A    
C7    O6    S    
C31   N2    D    
C21   O4    S    
C24   H16   S    
C11   H1    S    
C4    C6    A    
C5    C7    A    
C20   H7    S    
C18   H30   S    
C6    C8    A    
C12   C27   S    
O14   Zn2   S    
C19   H2    S    
C1    O1    A    
C25   O7    S    
C2    C4    S    
C25   H19   S    
O12   Zn1   S    
H27   N2    S    
C32   O12   A    
C20   H6    S    
C26   O8    S    
C22   H11   S    
C12   O9    A    
C23   C28   D    
C9    C11   A    
C3    C14   A    
C21   H9    S    
O15   Zn1   S    
O9    Zn2   S    
C17   O3    S    
C13   C15   A    
C28   O8    S    
C26   H21   S    
O11   Zn1   S    
O1    Zn1   S    
C24   H17   S    
C7    C9    A    
N1    Zn2   S    
C22   H14   S    
C24   H15   S    
C30   N1    D    
C3    C5    A    
C10   C13   A    
C26   H24   S    
C1    C23   S    
C29   O7    S    
C32   O14   A    
C31   H25   S    
C4    C15   A    
C25   H20   S    
C20   H5    S    
C24   O6    S    
C21   H8    S    
C30   H26   S    
C8    O5    S    
C19   H33   S    
C3    C32   S    
C21   H10   S    
C23   H29   S    
C22   H13   S    
C8    C10   A    
C19   O2    S    
C22   O5    S    
C13   H12   S    
