data_mof_unit_8741.cif
_audit_creation_date              2012-12-10T17:43:17-0500
_audit_creation_method            fapswitch 2.2
_symmetry_space_group_name_H-M    P1
_symmetry_Int_Tables_number       1
_space_group_crystal_system       triclinic
_cell_length_a                    14.989847
_cell_length_b                    13.710587
_cell_length_c                    10.636005
_cell_angle_alpha                 90.449984
_cell_angle_beta                  90.028983
_cell_angle_gamma                 89.956557
_cell_volume                      2185.839193

loop_
_atom_site_label
_atom_site_type_symbol
_atom_type_description
_atom_site_fract_x
_atom_site_fract_y
_atom_site_fract_z
_atom_type_partial_charge
C1    C     C_R   0.328825 0.500065 0.499082 0.800008
C2    C     C_R   0.671119 0.499968 0.500410 0.800600
C3    C     C_R   0.953024 0.502100 0.500223 -0.008738
C4    C     C_R   0.046635 0.502216 0.500478 -0.010992
C5    C     C_R   0.905999 0.525505 0.388938 0.040860
C6    C     C_R   0.093650 0.478033 0.611258 0.030756
C7    C     C_R   0.953270 0.456126 0.721345 -0.309771
C8    C     C_R   0.046437 0.549093 0.280168 -0.314755
C9    C     C_R   0.046575 0.457572 0.722500 0.434973
C10   C     C_R   0.952995 0.549489 0.278785 0.428795
C11   C     C_R   0.445807 0.793911 0.581408 0.010112
C12   C     C_R   0.554196 0.206086 0.418590 0.012664
C13   C     C_R   0.554266 0.792839 0.418677 0.015848
C14   C     C_R   0.445761 0.207151 0.581346 0.020012
C15   C     C_R   0.555521 0.895859 0.416689 -0.006625
C16   C     C_R   0.444520 0.104129 0.583339 -0.007774
C17   C     C_R   0.444548 0.896962 0.583382 -0.006441
C18   C     C_R   0.555478 0.103029 0.416632 -0.006031
C19   C     C_R   0.500024 0.948190 0.500020 0.088255
C20   C     C_R   0.500010 0.051799 0.500000 0.087518
C21   C     C_R   0.610711 0.947595 0.333713 -0.202228
C22   C     C_R   0.389344 0.052389 0.666329 -0.196755
C23   C     C_R   0.389362 0.949804 0.666356 -0.202156
C24   C     C_R   0.610679 0.050183 0.333674 -0.198964
C25   C     C_R   0.500568 0.499627 0.259101 0.779217
C26   C     C_R   0.500260 0.500356 0.740939 0.777261
C27   C     C_3   0.425961 0.542272 0.042789 -0.174233
C28   C     C_3   0.576082 0.457619 0.957305 -0.162549
C29   C     C_3   0.497133 0.592799 0.960862 -0.135954
C30   C     C_3   0.504916 0.407099 0.039311 -0.127889
C31   C     C_3   0.429663 0.450450 0.957556 -0.175647
C32   C     C_3   0.572384 0.549388 0.042679 -0.166803
C33   C     C_3   0.500784 0.500940 0.877809 0.019409
C34   C     C_3   0.501148 0.498956 0.122301 0.024920
C35   C     C_R   0.812753 0.524900 0.390642 -0.225627
C36   C     C_R   0.186925 0.476032 0.608731 -0.220954
C37   C     C_R   0.767345 0.499985 0.500268 -0.063987
C38   C     C_R   0.232484 0.500404 0.499094 -0.065631
C39   C     C_R   0.813369 0.476058 0.609871 -0.203774
C40   C     C_R   0.186421 0.526172 0.390221 -0.207640
C41   C     C_R   0.906369 0.477756 0.611073 0.071000
C42   C     C_R   0.093332 0.526267 0.389774 0.083863
Cu1   Cu    Cu3+1 0.500000 0.597420 0.500000 0.936689
Cu2   Cu    Cu3+1 0.500000 0.402580 0.500000 0.942599
H1    H     H_    0.371766 0.409334 0.919457 0.134177
H2    H     H_    0.630683 0.589673 0.081048 0.124141
H3    H     H_    0.364945 0.577063 0.081649 0.132065
H4    H     H_    0.637526 0.423204 0.919104 0.130766
H5    H     H_    0.493882 0.668863 0.926101 0.137199
H6    H     H_    0.508139 0.331045 0.074117 0.137960
H7    H     H_    0.774918 0.543319 0.307162 0.162638
H8    H     H_    0.224719 0.456655 0.691787 0.164311
H9    H     H_    0.776570 0.457437 0.694169 0.124641
H10   H     H_    0.223201 0.544810 0.305903 0.122791
H11   H     H_    0.917728 0.438802 0.807053 0.170082
H12   H     H_    0.082277 0.565598 0.194974 0.152108
H13   H     H_    0.403489 0.753500 0.644895 0.126605
H14   H     H_    0.596502 0.246496 0.355091 0.129134
H15   H     H_    0.596658 0.751607 0.355258 0.125914
H16   H     H_    0.403380 0.248378 0.644780 0.129963
H17   H     H_    0.653910 0.908739 0.268818 0.135675
H18   H     H_    0.346162 0.091240 0.731243 0.141836
H19   H     H_    0.346193 0.911815 0.731287 0.136858
H20   H     H_    0.653850 0.088169 0.268744 0.139108
N1    N     N_R   0.500000 0.743810 0.500000 -0.182822
N2    N     N_R   0.500000 0.256190 0.500000 -0.184265
O1    O     O_R   0.370260 0.582280 0.500030 -0.580802
O2    O     O_R   0.629740 0.417720 0.499970 -0.577238
O3    O     O_R   0.629740 0.582280 0.499970 -0.581649
O4    O     O_R   0.370260 0.417720 0.500030 -0.576502
O5    O     O_R   0.499980 0.582260 0.316850 -0.587641
O6    O     O_R   0.500020 0.417740 0.683150 -0.586591
O7    O     O_R   0.500020 0.582260 0.683150 -0.589550
O8    O     O_R   0.499980 0.417740 0.316850 -0.588940
O9    O     O_3   0.091956 0.438044 0.832561 -0.576213
C43   C     C_3   0.098174 0.524893 0.904739 0.064920
H21   H     H_    0.041049 0.528655 0.971097 0.189243
H22   H     H_    0.098403 0.592742 0.847040 0.125269
C44   C     C_3   0.184868 0.523682 0.978934 -0.836486
H23   H     H_    0.242167 0.519571 0.913161 0.239560
H24   H     H_    0.191111 0.591740 0.035467 0.189619
H25   H     H_    0.186551 0.459916 0.042666 0.261499
O10   O     O_3   0.907695 0.563457 0.166915 -0.587595
C45   C     C_3   0.911281 0.663045 0.134844 0.032987
H26   H     H_    0.981148 0.686795 0.117219 0.138028
H27   H     H_    0.881484 0.709215 0.210687 0.144975
C46   C     C_3   0.858057 0.678576 0.014836 -0.799944
H28   H     H_    0.787521 0.656725 0.029418 0.242398
H29   H     H_    0.860109 0.756739 0.988450 0.203715
H30   H     H_    0.886862 0.634201 0.936965 0.242615

loop_
_geom_bond_atom_site_label_1
_geom_bond_atom_site_label_2
_ccdc_geom_bond_type
Cu1   O7    S    
C46   H28   S    
C27   C29   S    
C26   O6    A    
Cu2   N2    S    
C19   C20   A    
C45   C46   S    
C7    H11   S    
Cu1   Cu2   S    
C8    H12   S    
C6    C9    A    
C39   C41   A    
C29   H5    S    
C15   C19   A    
C17   C23   A    
C18   C24   A    
C35   C37   A    
C45   H27   S    
C29   C32   S    
C2    O2    A    
C30   C31   S    
C29   C33   S    
C10   O10   S    
C26   O7    A    
C25   O8    A    
C17   C19   A    
C46   H30   S    
C11   C17   A    
Cu1   O5    S    
C43   C44   S    
Cu2   O4    S    
C25   O5    A    
C2    O3    A    
C21   H17   S    
C36   H8    S    
C16   C20   A    
C25   C34   S    
C12   H14   S    
C23   H19   S    
C30   H6    S    
C24   H20   S    
C28   H4    S    
C27   C34   S    
C30   C34   S    
C27   C31   S    
C28   C32   S    
C43   H21   S    
C4    C6    A    
C44   H24   S    
C13   N1    A    
C12   N2    A    
C32   C34   S    
O9    C43   S    
Cu1   O1    S    
C22   H18   S    
C26   C33   S    
O10   C45   S    
Cu1   N1    S    
C31   C33   S    
C14   N2    A    
C45   H26   S    
Cu2   O8    S    
C1    C38   S    
C8    C10   A    
C28   C33   S    
C40   H10   S    
C13   C15   A    
C35   H7    S    
C14   C16   A    
Cu2   O2    S    
C8    C42   A    
C3    C4    A    
C27   H3    S    
C7    C9    A    
C3    C41   A    
C16   C22   A    
C32   H2    S    
C43   H22   S    
C3    C5    A    
C44   H25   S    
C13   H15   S    
C14   H16   S    
C1    O4    A    
C28   C30   S    
C5    C10   A    
C37   C39   A    
C36   C38   A    
C38   C40   A    
C2    C37   S    
C39   H9    S    
C4    C42   A    
C5    C35   A    
C40   C42   A    
C1    O1    A    
C6    C36   A    
Cu2   O6    S    
C18   C20   A    
C7    C41   A    
C44   H23   S    
C15   C21   A    
Cu1   O3    S    
C31   H1    S    
C21   C24   A    
C12   C18   A    
C46   H29   S    
C22   C23   A    
C9    O9    S    
C11   H13   S    
C11   N1    A    
