data_mof_unit_40091.cif
_audit_creation_date              2013-03-05T15:58:57-0500
_audit_creation_method            fapswitch 2.2
_symmetry_space_group_name_H-M    P1
_symmetry_Int_Tables_number       1
_space_group_crystal_system       triclinic
_cell_length_a                    10.689596
_cell_length_b                    12.590724
_cell_length_c                    13.228727
_cell_angle_alpha                 81.903386
_cell_angle_beta                  90.381652
_cell_angle_gamma                 102.78045
_cell_volume                      1718.47902179

loop_
_atom_site_label
_atom_site_type_symbol
_atom_site_description
_atom_site_fract_x
_atom_site_fract_y
_atom_site_fract_z
_atom_type_partial_charge
O1    O     O_R   0.468120 0.366740 0.627160 -0.574630
O2    O     O_R   0.510770 0.544830 0.662520 -0.635145
C1    C     C_R   0.485734 0.438121 0.691082 0.917353
O3    O     O_R   0.663880 0.410950 0.482330 -0.584486
O4    O     O_R   0.706530 0.589040 0.517700 -0.621173
C2    C     C_R   0.741302 0.498235 0.505823 0.892457
Zn1   Zn    Zn3+2 0.471520 0.381090 0.476390 1.026194
Zn2   Zn    Zn3+2 0.528480 0.618910 0.523610 0.941001
O5    O     O_R   0.489230 0.455170 0.337480 -0.563789
O6    O     O_R   0.531880 0.633260 0.372840 -0.653235
O7    O     O_R   0.293470 0.410960 0.482300 -0.590872
O8    O     O_R   0.336120 0.589050 0.517670 -0.658439
C3    C     C_R   0.520744 0.561985 0.308457 0.910448
C4    C     C_R   0.258238 0.498230 0.503974 0.887630
C5    C     C_3   0.901667 0.383869 0.569594 -0.010118
H1    H     H_    0.876680 0.383453 0.650417 0.217335
C6    C     C_3   0.045687 0.382357 0.562276 0.110578
H2    H     H_    0.058188 0.321195 0.512722 0.150444
H3    H     H_    0.882279 0.450839 0.354440 0.257780
H4    H     H_    0.096200 0.455585 0.353262 0.197056
C7    C     C_3   0.931815 0.514670 0.398763 -0.418066
C8    C     C_3   0.955505 0.595926 0.561001 0.123463
C9    C     C_3   0.877829 0.496108 0.510189 -0.050886
H5    H     H_    0.951488 0.672592 0.508307 0.135305
C10   C     C_3   0.121811 0.496778 0.509337 -0.032211
C11   C     C_3   0.076100 0.517850 0.398519 -0.499007
C12   C     C_3   0.097149 0.590569 0.566870 -0.408329
H6    H     H_    0.128610 0.579994 0.646987 0.239132
H7    H     H_    0.154861 0.671860 0.530889 0.177878
H8    H     H_    0.915800 0.593735 0.357346 0.182443
H9    H     H_    0.129428 0.599663 0.360052 0.193597
C13   C     C_R   0.454857 0.705740 0.056338 -0.210386
H10   H     H_    0.329726 0.677906 0.885020 0.158185
H11   H     H_    0.412445 0.773326 0.024964 0.159157
C14   C     C_R   0.536908 0.600971 0.197801 -0.256139
C15   C     C_R   0.574471 0.321093 0.825418 0.085150
C16   C     C_R   0.653964 0.330733 0.910259 0.310559
C17   C     C_R   0.646080 0.410043 0.972283 -0.153159
C18   C     C_R   0.548982 0.470575 0.960005 0.040737
C19   C     C_R   0.477793 0.467624 0.870073 0.031629
C20   C     C_R   0.526564 0.540358 0.030214 0.001256
C21   C     C_R   0.457147 0.622380 0.997740 0.070610
C22   C     C_R   0.388899 0.619376 0.907840 -0.185404
C23   C     C_R   0.391803 0.537774 0.848694 -0.091881
C24   C     C_R   0.561075 0.526628 0.133582 0.221121
C25   C     C_R   0.505307 0.700917 0.154512 0.173915
C26   C     C_R   0.499917 0.400140 0.799145 -0.152886
H12   H     H_    0.719441 0.425010 0.028142 0.217964
H13   H     H_    0.331042 0.533563 0.782856 0.174197
C27   C     C_R   0.322620 0.086042 0.348690 -0.295334
H14   H     H_    0.291921 0.879514 0.319653 0.164347
H15   H     H_    0.256966 0.061831 0.289123 0.156078
N1    N     N_R   0.433240 0.222190 0.444680 -0.114660
C28   C     C_R   0.644723 0.797489 0.633976 0.055881
C29   C     C_R   0.674208 0.901482 0.663494 -0.206497
C30   C     C_R   0.620410 0.984111 0.612253 -0.229608
C31   C     C_R   0.535353 0.962331 0.531727 0.034581
C32   C     C_R   0.509058 0.854821 0.504575 0.217870
C33   C     C_R   0.473822 0.041644 0.478341 -0.011565
C34   C     C_R   0.385496 0.010569 0.401509 0.137629
C35   C     C_R   0.359673 0.903993 0.378009 -0.262730
C36   C     C_R   0.422071 0.827853 0.427922 -0.195803
C37   C     C_R   0.495922 0.150975 0.497588 -0.100063
C38   C     C_R   0.344729 0.192371 0.373362 0.420807
N2    N     N_R   0.566070 0.776970 0.554790 -0.148184
H16   H     H_    0.562088 0.182248 0.553563 0.168910
H17   H     H_    0.682117 0.731788 0.675564 0.199970
H18   H     H_    0.644747 0.062829 0.638758 0.143403
H19   H     H_    0.737173 0.917629 0.726641 0.184423
H20   H     H_    0.400105 0.748259 0.404747 0.224148
N3    N     N_2   0.820308 0.281479 0.544087 -0.313446
H21   H     H_    0.817750 0.216168 0.601266 0.233044
C39   C     C_3   0.820233 0.249252 0.442698 -0.693907
H22   H     H_    0.794409 0.158083 0.448586 0.225908
H23   H     H_    0.914382 0.278206 0.402780 0.221514
H24   H     H_    0.746714 0.280472 0.395359 0.297801
N4    N     N_2   0.521733 0.792497 0.210478 -0.301431
H25   H     H_    0.599744 0.798984 0.257279 0.256066
C40   C     C_3   0.511127 0.899013 0.157541 -0.738825
H26   H     H_    0.537708 0.962195 0.209312 0.261242
H27   H     H_    0.410646 0.897070 0.134623 0.234753
H28   H     H_    0.577411 0.923627 0.089754 0.258783
N5    N     N_R   0.606629 0.431427 0.177316 0.203630
O9    O     O_R   0.713118 0.443641 0.226748 -0.444731
O10   O     O_R   0.538981 0.332744 0.172595 -0.411739
N6    N     N_2   0.570447 0.235158 0.764996 -0.302882
H29   H     H_    0.652504 0.205654 0.762245 0.252622
C41   C     C_3   0.456194 0.147810 0.783365 -0.691205
H30   H     H_    0.454961 0.087811 0.729323 0.223601
H31   H     H_    0.368524 0.181335 0.771611 0.288622
H32   H     H_    0.454742 0.104191 0.862652 0.236228
N7    N     N_R   0.745849 0.263692 0.933014 0.204728
O11   O     O_R   0.833048 0.263473 0.864958 -0.350327
O12   O     O_R   0.759239 0.221866 0.027096 -0.354667
N8    N     N_2   0.278100 0.270280 0.323568 -0.267514
H33   H     H_    0.321628 0.311427 0.255695 0.269947
C42   C     C_3   0.140946 0.232023 0.314599 -0.812775
H34   H     H_    0.119180 0.172403 0.259157 0.249285
H35   H     H_    0.098299 0.302391 0.285003 0.245123
H36   H     H_    0.096209 0.193459 0.390298 0.251295
N9    N     N_R   0.096080 0.347931 0.662545 0.192890
O13   O     O_R   0.147181 0.262435 0.675062 -0.389582
O14   O     O_R   0.085074 0.397549 0.740799 -0.352336
N10   N     N_R   0.905648 0.608718 0.661007 0.211109
O15   O     O_R   0.904670 0.707395 0.679136 -0.417389
O16   O     O_R   0.890789 0.530201 0.738026 -0.373373

loop_
_geom_bond_atom_site_label_1
_geom_bond_atom_site_label_2
_geom_bond_distance
_ccdc_geom_bond_type
C23   H13   1.083257 S    
C32   C36   1.397462 A    
C19   C26   1.405238 A    
C29   C30   1.390478 A    
N9    O13   1.301272 A    
C12   H7    1.114471 S    
C27   C38   1.391659 A    
C20   C21   1.418271 A    
N8    H33   1.029060 S    
H14   C35   1.084565 S    
C7    C11   1.533997 S    
N10   O16   1.299839 A    
C42   H34   1.109528 S    
C18   C20   1.420569 A    
C28   N2    1.356225 A    
N4    H25   1.030827 S    
Zn1   O7    2.024102 S    
C15   C16   1.405879 A    
H3    C7    1.100185 S    
C3    C14   1.475486 S    
C17   C18   1.413306 A    
O7    C4    1.305626 A    
N6    C41   1.447273 S    
C31   C33   1.419283 A    
C5    H1    1.102780 S    
C8    N10   1.472275 S    
C30   C31   1.412694 A    
C36   H20   1.065317 S    
C15   C26   1.412894 A    
Zn1   O5    1.930363 S    
C39   H22   1.111218 S    
C6    N9    1.472858 S    
O5    C3    1.313552 A    
C27   H15   1.082615 S    
C17   H12   1.078260 S    
C5    C9    1.588515 S    
C37   H16   1.074955 S    
C33   C34   1.418933 A    
N9    O14   1.300798 A    
C39   H23   1.102344 S    
C24   N5    1.437970 S    
C13   C25   1.401470 A    
O3    Zn1   2.009932 S    
N10   O15   1.300349 A    
C42   H35   1.106660 S    
N4    C40   1.450341 S    
H10   C22   1.084133 S    
O3    C2    1.296017 A    
C18   C19   1.408441 A    
C40   H27   1.110103 S    
N6    H29   1.028166 S    
C28   H17   1.077935 S    
C15   N6    1.426168 S    
C10   C11   1.548063 S    
C30   H18   1.074949 S    
C34   C35   1.387788 A    
O1    C1    1.302040 A    
C13   H11   1.081958 S    
C22   C23   1.381904 A    
C16   C17   1.395139 A    
O4    Zn2   2.024103 S    
C32   N2    1.359767 A    
Zn2   N2    2.041390 S    
N5    O9    1.299224 A    
C41   H32   1.111823 S    
Zn2   O8    2.009932 S    
N7    O12   1.301216 A    
C6    H2    1.108823 S    
C29   H19   1.082575 S    
N5    O10   1.301672 A    
C41   H31   1.111401 S    
C8    C12   1.531431 S    
C7    C9    1.554028 S    
C39   H24   1.106840 S    
C8    H5    1.117108 S    
C21   C22   1.391730 A    
Zn1   N1    2.053773 S    
C14   C24   1.413681 A    
C42   H36   1.110831 S    
N3    C39   1.454896 S    
C5    C6    1.547679 S    
C28   C29   1.387803 A    
C13   C21   1.394238 A    
C16   N7    1.434974 S    
O1    Zn1   1.977001 S    
C11   H9    1.114184 S    
O2    Zn2   1.930363 S    
C38   N8    1.422757 S    
O8    C4    1.291770 A    
O6    C3    1.308282 A    
C40   H28   1.111426 S    
N8    C42   1.448089 S    
C10   C12   1.561037 S    
C25   N4    1.434468 S    
C5    N3    1.467907 S    
C7    H8    1.114006 S    
C33   C37   1.403426 A    
C6    C10   1.559741 S    
O2    C1    1.311018 A    
C27   C34   1.390048 A    
N3    H21   1.031612 S    
N1    C37   1.351143 A    
C31   C32   1.416905 A    
O4    C2    1.307436 A    
H4    C11   1.107994 S    
C2    C9    1.466178 S    
C1    C26   1.460095 S    
N7    O11   1.300917 A    
N1    C38   1.362711 A    
C4    C10   1.456491 S    
C35   C36   1.377907 A    
C40   H26   1.110622 S    
C19   C23   1.410808 A    
C41   H30   1.108841 S    
Zn2   O6    1.976999 S    
C12   H6    1.108785 S    
C20   C24   1.410927 A    
C8    C9    1.577839 S    
C14   C25   1.417069 A    
