data_mof_unit_20353.cif
_audit_creation_date              2012-12-10T17:40:27-0500
_audit_creation_method            fapswitch 2.2
_symmetry_space_group_name_H-M    P1
_symmetry_Int_Tables_number       1
_space_group_crystal_system       triclinic
_cell_length_a                    13.915112
_cell_length_b                    15.015844
_cell_length_c                    15.775859
_cell_angle_alpha                 86.500921
_cell_angle_beta                  69.870328
_cell_angle_gamma                 89.749653
_cell_volume                      3088.7124511

loop_
_atom_site_label
_atom_site_type_symbol
_atom_type_description
_atom_site_fract_x
_atom_site_fract_y
_atom_site_fract_z
_atom_type_partial_charge
C1    C     C_R   0.499590 0.670590 0.501148 0.808890
C2    C     C_R   0.500580 0.329487 0.498617 0.812804
C3    C     C_R   0.376538 0.495275 0.097072 0.082137
C4    C     C_R   0.624097 0.484153 0.902530 0.083072
C5    C     C_R   0.309291 0.525854 0.052545 -0.054465
C6    C     C_R   0.692524 0.458764 0.947732 -0.058859
C7    C     C_R   0.503672 0.183563 0.571615 -0.193980
C8    C     C_R   0.492714 0.816416 0.428982 -0.204292
C9    C     C_R   0.501327 0.233384 0.495787 -0.077279
C10   C     C_R   0.499126 0.766804 0.503572 -0.106245
C11   C     C_R   0.497080 0.192508 0.419454 0.115685
C12   C     C_R   0.507789 0.808268 0.578068 0.108872
C13   C     C_R   0.498862 0.097868 0.418566 0.042984
C14   C     C_R   0.500898 0.902508 0.580422 0.039586
C15   C     C_R   0.499713 0.047161 0.498098 -0.022734
C16   C     C_R   0.498287 0.953106 0.501523 -0.025629
C17   C     C_R   0.502196 0.090715 0.574461 0.121787
C18   C     C_R   0.494675 0.909351 0.425705 0.120807
C19   C     C_R   0.498322 0.052053 0.342155 -0.032253
C20   C     C_R   0.498249 0.947918 0.657856 -0.030814
C21   C     C_R   0.494345 0.958208 0.346955 0.051540
C22   C     C_R   0.501129 0.041718 0.653625 0.052032
C23   C     C_R   0.437348 0.503911 0.671936 0.795203
C24   C     C_R   0.563003 0.496412 0.327825 0.817575
C25   C     C_R   0.226383 0.562134 0.446142 0.112966
C26   C     C_R   0.777192 0.432252 0.545961 0.120969
C27   C     C_R   0.184302 0.439035 0.555712 0.113877
C28   C     C_R   0.814109 0.564359 0.448084 0.083745
C29   C     C_R   0.085047 0.430251 0.547737 -0.111898
C30   C     C_R   0.920530 0.560717 0.439217 -0.122669
C31   C     C_R   0.054292 0.495006 0.493842 0.085204
C32   C     C_R   0.951299 0.495910 0.493235 0.095402
C33   C     C_R   0.125720 0.560264 0.442105 -0.079790
C34   C     C_R   0.879466 0.431487 0.546432 -0.078724
C35   C     C_R   0.013669 0.360689 0.594310 -0.005552
C36   C     C_R   0.997931 0.619964 0.379473 -0.011962
C37   C     C_R   0.912320 0.364870 0.596715 -0.169785
C38   C     C_R   0.096312 0.621121 0.384600 -0.150169
C39   C     C_R   0.400714 0.514840 0.770186 -0.135263
C40   C     C_R   0.601065 0.483773 0.229490 -0.123676
C41   C     C_R   0.281271 0.566270 0.909470 -0.046565
C42   C     C_R   0.726116 0.436265 0.090630 -0.067560
C43   C     C_R   0.311147 0.561426 0.815872 0.144624
C44   C     C_R   0.697623 0.447416 0.183187 0.143872
C45   C     C_R   0.463590 0.484805 0.818115 -0.168929
C46   C     C_R   0.534511 0.502533 0.181981 -0.169753
C47   C     C_R   0.443243 0.503741 0.908484 0.083680
C48   C     C_R   0.557498 0.481577 0.091662 0.086083
C49   C     C_R   0.344085 0.533053 0.957424 -0.029014
C50   C     C_R   0.659035 0.457366 0.042908 -0.026777
C51   C     C_R   0.517215 0.490983 0.951921 0.028550
C52   C     C_R   0.483509 0.489822 0.047881 0.029386
Cu1   Cu    Cu3+1 0.402580 0.500010 0.499990 1.000138
Cu2   Cu    Cu3+1 0.597420 0.499990 0.500010 1.000532
H1    H     H_    0.859910 0.312529 0.636315 0.193646
H2    H     H_    0.152051 0.667891 0.338804 0.190970
H3    H     H_    0.465641 0.537220 0.215652 0.227730
H4    H     H_    0.527683 0.444418 0.784586 0.229545
H5    H     H_    0.209638 0.598121 0.943868 0.186813
H6    H     H_    0.801606 0.410801 0.056655 0.189013
H7    H     H_    0.504468 0.218685 0.629427 0.189216
H8    H     H_    0.489864 0.781132 0.371934 0.196152
N1    N     N_R   0.256170 0.500070 0.500040 -0.268227
N2    N     N_R   0.743830 0.499930 0.499960 -0.262384
O1    O     O_R   0.417730 0.629750 0.499970 -0.570341
O2    O     O_R   0.582270 0.370250 0.500030 -0.579437
O3    O     O_R   0.582270 0.629730 0.499980 -0.580693
O4    O     O_R   0.417730 0.370270 0.500020 -0.540002
O5    O     O_R   0.371590 0.500020 0.629830 -0.594605
O6    O     O_R   0.628410 0.499980 0.370170 -0.565702
O7    O     O_R   0.536130 0.499990 0.629840 -0.547763
O8    O     O_R   0.463870 0.500010 0.370160 -0.561031
C53   C     C_2   0.200381 0.541000 0.106016 0.835454
O9    O     O_2   0.178708 0.592336 0.166730 -0.594492
O10   O     O_R   0.122944 0.496381 0.086910 -0.737071
H9    H     H_    0.051957 0.511880 0.128158 0.371111
C54   C     C_2   0.801639 0.443906 0.893790 0.829100
O11   O     O_2   0.823882 0.386245 0.839095 -0.549900
O12   O     O_R   0.878513 0.496615 0.904918 -0.737053
H10   H     H_    0.949495 0.480359 0.864206 0.372805
C55   C     C_2   0.292000 0.640757 0.402869 0.884370
O13   O     O_2   0.362233 0.635921 0.331243 -0.622530
O14   O     O_R   0.265792 0.723209 0.440477 -0.740702
H11   H     H_    0.308521 0.774403 0.400760 0.339182
C56   C     C_2   0.710600 0.354405 0.590015 0.879553
O15   O     O_2   0.639588 0.360687 0.660811 -0.622855
O16   O     O_R   0.735095 0.271380 0.553204 -0.755512
H12   H     H_    0.690789 0.221033 0.593033 0.337465
C57   C     C_2   0.197991 0.399476 0.639255 0.893089
O17   O     O_2   0.142698 0.423775 0.712386 -0.626879
O18   O     O_R   0.264970 0.329485 0.636640 -0.701512
H13   H     H_    0.264389 0.307766 0.698948 0.330754
C58   C     C_2   0.777695 0.643674 0.409285 0.903223
O19   O     O_2   0.750013 0.638336 0.344189 -0.557157
O20   O     O_R   0.778389 0.726046 0.445924 -0.757239
H14   H     H_    0.752253 0.775940 0.413822 0.341100
C59   C     C_2   0.043000 0.276606 0.632546 0.873097
O21   O     O_2   0.119200 0.237262 0.588338 -0.557503
O22   O     O_R   0.980624 0.240167 0.717238 -0.701703
H15   H     H_    0.007934 0.182176 0.735523 0.350297
C60   C     C_2   0.985555 0.675899 0.303445 0.907589
O23   O     O_2   0.956730 0.641919 0.247670 -0.570669
O24   O     O_R   0.012761 0.766468 0.292749 -0.717897
H16   H     H_    0.002653 0.797329 0.237533 0.352359
N3    N     N_3   0.768783 0.421223 0.227196 -0.553409
H17   H     H_    0.732722 0.375515 0.281542 0.234891
H18   H     H_    0.792688 0.477677 0.250650 0.283233
N4    N     N_3   0.250954 0.606903 0.769702 -0.541558
H19   H     H_    0.298662 0.649941 0.717925 0.227632
H20   H     H_    0.218015 0.560314 0.741338 0.282331
N5    N     N_3   0.334699 0.458462 0.188998 -0.580250
H21   H     H_    0.282661 0.407227 0.192240 0.246742
H22   H     H_    0.295566 0.507887 0.230818 0.255930
N6    N     N_3   0.665273 0.514973 0.808662 -0.578331
H23   H     H_    0.703972 0.463039 0.770494 0.262749
H24   H     H_    0.717356 0.567350 0.801354 0.244850
N7    N     N_3   0.489882 0.247468 0.344127 -0.555646
H25   H     H_    0.552010 0.292377 0.321441 0.207760
H26   H     H_    0.421937 0.283130 0.365028 0.255832
N8    N     N_3   0.527804 0.755005 0.648804 -0.550643
H27   H     H_    0.598640 0.724601 0.621933 0.265719
H28   H     H_    0.470813 0.705645 0.674775 0.210238
C61   C     C_2   0.507212 0.099251 0.254466 0.898802
O25   O     O_2   0.433183 0.103024 0.229529 -0.569102
O26   O     O_R   0.600745 0.138779 0.200450 -0.735237
H29   H     H_    0.597414 0.169464 0.142495 0.344546
C62   C     C_2   0.484181 0.900162 0.746482 0.897259
O27   O     O_2   0.403516 0.860411 0.787789 -0.565242
O28   O     O_R   0.562732 0.901297 0.782703 -0.745022
H30   H     H_    0.543915 0.866398 0.843414 0.346772
N9    N     N_3   0.492783 0.911290 0.270535 -0.586149
H31   H     H_    0.427246 0.928888 0.255777 0.263811
H32   H     H_    0.557658 0.929891 0.214731 0.246427
N10   N     N_3   0.500028 0.088467 0.730927 -0.589844
H33   H     H_    0.565048 0.071629 0.746824 0.269653
H34   H     H_    0.434570 0.069172 0.785868 0.245117

loop_
_geom_bond_atom_site_label_1
_geom_bond_atom_site_label_2
_ccdc_geom_bond_type
O16   H12   S    
C58   O19   D    
C27   C29   A    
C34   C37   A    
C41   C43   A    
C53   O9    D    
C23   O5    A    
O20   H14   S    
Cu1   O5    S    
C59   O21   D    
C24   O6    A    
C61   O25   D    
C47   C49   A    
Cu1   Cu2   S    
C40   C46   A    
N3    H18   S    
C19   C61   S    
C60   O23   D    
C22   N10   S    
C4    N6    S    
C35   C37   A    
C2    O4    A    
N7    H26   S    
C56   O15   D    
C61   O26   S    
C15   C16   A    
C18   C21   A    
C11   C13   A    
N4    H19   S    
C15   C17   A    
C25   N1    A    
Cu1   O4    S    
C26   N2    A    
C21   N9    S    
C59   O22   S    
C12   N8    S    
C26   C34   A    
C7    H7    S    
Cu2   O7    S    
O22   H15   S    
C3    N5    S    
C7    C17   A    
C1    O1    A    
C31   C33   A    
C57   O18   S    
Cu1   O1    S    
C54   O11   D    
C39   C45   A    
C48   C50   A    
C60   O24   S    
C25   C55   S    
C53   O10   S    
C5    C49   A    
C42   C44   A    
C41   C49   A    
C55   O14   S    
N8    H28   S    
N6    H23   S    
C45   C47   A    
C46   C48   A    
C45   H4    S    
C13   C19   A    
C56   O16   S    
C51   C52   A    
C23   O7    A    
C41   H5    S    
C20   C62   S    
C4    C6    A    
C42   H6    S    
O18   H13   S    
C6    C54   S    
C39   C43   A    
Cu2   O3    S    
C4    C51   A    
C3    C5    A    
C44   N3    S    
C55   O13   D    
C1    O3    A    
C36   C60   S    
C32   C34   A    
C2    C9    S    
O10   H9    S    
C62   O28   S    
N10   H34   S    
C14   C20   A    
C27   N1    A    
N6    H24   S    
O14   H11   S    
Cu2   O6    S    
C48   C52   A    
C54   O12   S    
N5    H22   S    
C6    C50   A    
C9    C11   A    
C10   C12   A    
C42   C50   A    
C28   N2    A    
C8    C10   A    
C12   C14   A    
C13   C15   A    
C46   H3    S    
O26   H29   S    
C14   C16   A    
N9    H31   S    
C11   N7    S    
N8    H27   S    
C24   O8    A    
O28   H30   S    
C7    C9    A    
N5    H21   S    
C19   C21   A    
C31   C32   A    
C1    C10   S    
C33   C38   A    
C20   C22   A    
N9    H32   S    
C47   C51   A    
C3    C52   A    
C2    O2    A    
N10   H33   S    
Cu2   O2    S    
N3    H17   S    
C29   C35   A    
C17   C22   A    
C30   C36   A    
C28   C30   A    
C29   C31   A    
N7    H25   S    
C30   C32   A    
Cu1   N1    S    
C58   O20   S    
Cu2   N2    S    
C26   C56   S    
C23   C39   S    
C36   C38   A    
C24   C40   S    
N4    H20   S    
C27   C57   S    
C43   N4    S    
C5    C53   S    
C8    C18   A    
O12   H10   S    
C37   H1    S    
C40   C44   A    
C38   H2    S    
C16   C18   A    
C25   C33   A    
O24   H16   S    
C28   C58   S    
C57   O17   D    
C35   C59   S    
Cu1   O8    S    
C62   O27   D    
C8    H8    S    
