data_mof_unit_66256.cif
_audit_creation_date              2012-12-10T16:52:00-0500
_audit_creation_method            fapswitch 2.2
_symmetry_space_group_name_H-M    P1
_symmetry_Int_Tables_number       1
_space_group_crystal_system       triclinic
_cell_length_a                    18.394472
_cell_length_b                    18.384948
_cell_length_c                    18.37594
_cell_angle_alpha                 90.833187
_cell_angle_beta                  119.529512
_cell_angle_gamma                 119.612426
_cell_volume                      4418.86400153

loop_
_atom_site_label
_atom_site_type_symbol
_atom_type_description
_atom_site_fract_x
_atom_site_fract_y
_atom_site_fract_z
_atom_type_partial_charge
C1    C     C_R   0.777029 0.638184 0.638584 0.511811
C2    C     C_2   0.111615 0.304519 0.304636 -0.101070
C3    C     C_2   0.442550 0.162472 0.718694 -0.156168
C4    C     C_R   0.222904 0.361137 0.359588 0.542405
C5    C     C_2   0.498807 0.195506 0.807769 -0.091925
C6    C     C_2   0.440024 0.218618 0.662486 -0.155605
C7    C     C_2   0.504409 0.307696 0.695422 -0.092513
C8    C     C_2   0.056165 0.776030 0.718665 -0.156659
C9    C     C_2   0.112334 0.809187 0.807701 -0.091684
C10   C     C_2   0.943778 0.722432 0.662508 -0.156137
C11   C     C_2   0.887771 0.690937 0.695463 -0.091860
C12   C     C_3   0.593528 0.826846 0.801615 -0.120645
C13   C     C_2   0.432757 0.161156 0.215731 -0.156566
C14   C     C_2   0.506617 0.195312 0.202622 -0.085486
C15   C     C_2   0.436578 0.216349 0.275737 -0.160001
C16   C     C_R   0.500415 0.638813 0.361845 0.515144
C17   C     C_2   0.489920 0.304315 0.294617 -0.086372
C18   C     C_2   0.442783 0.780110 0.224003 -0.156043
C19   C     C_2   0.498813 0.803365 0.191052 -0.091854
C20   C     C_2   0.440352 0.721468 0.277734 -0.155333
C21   C     C_2   0.504444 0.696655 0.308954 -0.091604
C22   C     C_R   0.499847 0.138644 0.861610 0.513624
C23   C     C_3   0.525333 0.791990 0.698598 -0.123105
C24   C     C_R   0.499820 0.861238 0.138202 0.511872
C25   C     C_R   0.777193 0.138865 0.137799 0.516190
C26   C     C_R   0.223061 0.861870 0.861594 0.513248
C27   C     C_R   0.500962 0.140916 0.141934 0.517807
C28   C     C_R   0.500374 0.361533 0.638565 0.509921
C29   C     C_R   0.500002 0.858321 0.858187 0.506636
C30   C     C_R   0.498355 0.358991 0.357517 0.523017
C31   C     C_R   0.500102 0.641747 0.641856 0.505003
C32   C     C_3   0.568645 0.733224 0.801782 -0.104564
C33   C     C_3   0.474792 0.708107 0.801443 -0.122686
C34   C     C_3   0.431481 0.766875 0.698260 -0.107731
C35   C     C_3   0.499728 0.800922 0.800522 0.061837
C36   C     C_2   0.098415 0.183707 0.222906 0.612139
C37   C     C_3   0.406598 0.673253 0.698428 -0.123501
C38   C     C_3   0.500396 0.699172 0.699518 0.062040
C39   C     C_2   0.942968 0.163328 0.204031 -0.163259
C40   C     C_2   0.887812 0.196331 0.186369 -0.124677
C41   C     C_2   0.054424 0.221062 0.247130 0.023786
H1    H     H_    0.454027 0.674452 0.844470 0.117586
H2    H     H_    0.921784 0.701787 0.765650 0.108861
H3    H     H_    0.369046 0.091241 0.183286 0.163886
H4    H     H_    0.625074 0.718772 0.843763 0.135661
H5    H     H_    0.574085 0.263374 0.237976 0.105624
H6    H     H_    0.394681 0.183739 0.304334 0.165475
H7    H     H_    0.526486 0.337774 0.262404 0.108377
H8    H     H_    0.395344 0.803862 0.210524 0.158133
H9    H     H_    0.544859 0.779290 0.200838 0.109271
H10   H     H_    0.384059 0.699054 0.292705 0.158708
H11   H     H_    0.563373 0.719391 0.297696 0.108366
H12   H     H_    0.076693 0.331184 0.317903 0.079796
H13   H     H_    0.670294 0.890725 0.844787 0.123135
H14   H     H_    0.546097 0.825644 0.655569 0.117095
H15   H     H_    0.375055 0.781332 0.656285 0.130270
H16   H     H_    0.329831 0.609376 0.655262 0.115805
H17   H     H_    0.904523 0.091696 0.181455 0.189232
H18   H     H_    0.922822 0.267297 0.201979 0.113109
H19   H     H_    0.199957 0.204679 0.196161 0.336667
H20   H     H_    0.394979 0.091105 0.684692 0.157581
H21   H     H_    0.544948 0.265792 0.844095 0.108565
H22   H     H_    0.383457 0.184573 0.591170 0.160988
H23   H     H_    0.563622 0.344044 0.765649 0.108733
H24   H     H_    0.093425 0.789267 0.684688 0.156944
H25   H     H_    0.078448 0.799772 0.843957 0.108891
H26   H     H_    0.906370 0.707750 0.591216 0.158495
O1    O     O_3   0.500000 0.500000 0.500000 -0.449520
O2    O     O_R   0.270900 0.886160 0.946260 -0.540635
O3    O     O_R   0.560160 0.177420 0.117340 -0.541054
O4    O     O_R   0.729180 0.615300 0.675360 -0.540315
O5    O     O_R   0.440020 0.882760 0.822680 -0.548581
O6    O     O_R   0.439990 0.057240 0.117340 -0.544101
O7    O     O_R   0.560190 0.882760 0.942820 -0.539503
O8    O     O_R   0.729270 0.053840 0.113900 -0.536624
O9    O     O_R   0.270910 0.884750 0.824690 -0.541559
O10   O     O_R   0.560170 0.175430 0.946260 -0.538843
O11   O     O_R   0.440000 0.886160 0.115330 -0.540995
O12   O     O_R   0.439910 0.615300 0.386140 -0.538880
O13   O     O_R   0.270820 0.446200 0.386140 -0.542842
O14   O     O_R   0.560090 0.613880 0.384720 -0.540036
O15   O     O_R   0.439920 0.324620 0.553780 -0.542371
O16   O     O_R   0.560100 0.442800 0.382710 -0.542063
O17   O     O_R   0.560070 0.617290 0.677370 -0.545914
O18   O     O_R   0.439930 0.322630 0.382710 -0.533271
O19   O     O_R   0.439900 0.617290 0.557220 -0.544768
O20   O     O_2   0.062931 0.104469 0.208048 -0.525710
O21   O     O_R   0.177134 0.238040 0.213160 -0.679262
O22   O     O_R   0.560080 0.446200 0.675360 -0.541499
O23   O     O_R   0.729180 0.613880 0.553780 -0.541347
O24   O     O_R   0.270820 0.324620 0.384720 -0.501888
O25   O     O_3   0.500090 0.000040 0.000040 -0.445750
O26   O     O_R   0.440010 0.053840 0.824690 -0.541490
O27   O     O_R   0.560180 0.884750 0.113900 -0.539226
O28   O     O_R   0.729260 0.175430 0.115330 -0.538457
Zn1   Zn    Zn3+2 0.414150 0.543930 0.458110 0.944797
Zn2   Zn    Zn3+2 0.585850 0.541910 0.456060 0.946879
Zn3   Zn    Zn3+2 0.414160 0.370220 0.456060 0.967663
Zn4   Zn    Zn3+2 0.585840 0.543930 0.629770 0.937772
Zn5   Zn    Zn3+2 0.585940 0.956110 0.041940 0.945201
Zn6   Zn    Zn3+2 0.585930 0.129820 0.043980 0.946224
Zn7   Zn    Zn3+2 0.414240 0.958130 0.043980 0.939094
Zn8   Zn    Zn3+2 0.414250 0.956110 0.870280 0.934190

loop_
_geom_bond_atom_site_label_1
_geom_bond_atom_site_label_2
_ccdc_geom_bond_type
C34   H15   S    
C1    O23   A    
O11   Zn7   S    
C34   C37   S    
C32   H4    S    
O10   Zn6   S    
C1    C11   S    
C17   H7    S    
C15   H6    S    
C3    C6    S    
O26   Zn8   S    
H19   O21   S    
O3    Zn6   S    
C14   H5    S    
C10   H26   S    
C36   O21   S    
C12   C23   S    
C1    O4    A    
O22   Zn4   S    
C33   H1    S    
C4    O13   A    
C20   H10   S    
C25   C40   S    
C2    C41   D    
C34   C35   S    
C30   O16   A    
C9    H25   S    
C16   O14   A    
O18   Zn3   S    
O25   Zn8   S    
O1    Zn2   S    
C5    C22   S    
C8    C9    D    
C26   O9    A    
C11   H2    S    
C28   O22   A    
C32   C38   S    
C14   C27   S    
O13   Zn1   S    
O23   Zn2   S    
O25   Zn7   S    
C29   O5    A    
O9    Zn8   S    
C8    H24   S    
C31   O19   A    
C13   C14   D    
C12   C32   S    
C17   C30   S    
O15   Zn3   S    
C36   C41   S    
C9    C26   S    
C3    H20   S    
C36   O20   D    
C37   H16   S    
C28   O15   A    
C39   C41   S    
C39   C40   D    
C18   C19   D    
O7    Zn5   S    
C29   O7    A    
O2    Zn7   S    
C39   H17   S    
O4    Zn4   S    
C33   C37   S    
C7    C28   S    
C30   O18   A    
C6    H22   S    
C2    C4    S    
C37   C38   S    
C24   O27   A    
O27   Zn5   S    
C23   C34   S    
O1    Zn1   S    
C12   C35   S    
C27   O3    A    
O19   Zn1   S    
O25   Zn6   S    
C24   O11   A    
O6    Zn7   S    
C25   O28   A    
C13   C15   S    
C22   O26   A    
O25   Zn5   S    
C15   C17   D    
O17   Zn4   S    
C22   O10   A    
C3    C5    D    
C2    H12   S    
C16   C21   S    
C23   H14   S    
C6    C7    D    
O5    Zn8   S    
C23   C38   S    
C29   C35   S    
C31   C38   S    
C16   O12   A    
C32   C33   S    
C4    O24   A    
C19   C24   S    
O1    Zn4   S    
O12   Zn1   S    
C19   H9    S    
O14   Zn2   S    
O8    Zn5   S    
C33   C35   S    
C5    H21   S    
C18   C20   S    
C13   H3    S    
O24   Zn3   S    
O1    Zn3   S    
C7    H23   S    
C10   C11   D    
C31   O17   A    
C20   C21   D    
C8    C10   S    
O16   Zn2   S    
C40   H18   S    
C26   O2    A    
C25   O8    A    
C27   O6    A    
C21   H11   S    
C12   H13   S    
O28   Zn6   S    
C18   H8    S    
