data_mof_unit_53583.cif
_audit_creation_date              2012-12-10T19:08:45-0500
_audit_creation_method            fapswitch 2.2
_symmetry_space_group_name_H-M    P1
_symmetry_Int_Tables_number       1
_space_group_crystal_system       triclinic
_cell_length_a                    13.011592
_cell_length_b                    13.591432
_cell_length_c                    27.79417
_cell_angle_alpha                 89.782438
_cell_angle_beta                  93.306908
_cell_angle_gamma                 85.865289
_cell_volume                      4894.17980145

loop_
_atom_site_label
_atom_site_type_symbol
_atom_type_description
_atom_site_fract_x
_atom_site_fract_y
_atom_site_fract_z
_atom_type_partial_charge
C1    C     C_R   0.481297 0.685182 0.499815 0.877914
C2    C     C_R   0.518698 0.314810 0.500661 0.880058
C3    C     C_R   0.500273 0.489637 0.899335 -0.216636
C4    C     C_R   0.490884 0.493328 0.101306 -0.213756
C5    C     C_R   0.529825 0.573783 0.875032 -0.181067
C6    C     C_R   0.492694 0.403380 0.127268 -0.193302
C7    C     C_R   0.562569 0.655155 0.901829 0.409511
C8    C     C_R   0.496646 0.313112 0.102206 0.398571
C9    C     C_R   0.474776 0.404898 0.873195 -0.200930
C10   C     C_R   0.492811 0.584004 0.126018 -0.201273
C11   C     C_R   0.500280 0.497847 0.647377 -0.397729
C12   C     C_R   0.499951 0.501356 0.352666 -0.394429
C13   C     C_R   0.495522 0.581596 0.024948 -0.083961
C14   C     C_R   0.470773 0.405367 0.974614 -0.077498
C15   C     C_R   0.485148 0.402523 0.025529 -0.058522
C16   C     C_R   0.517811 0.576254 0.975802 -0.065498
C17   C     C_R   0.489324 0.492546 0.050586 -0.065917
C18   C     C_R   0.496094 0.490423 0.949892 -0.061248
C19   C     C_R   0.478723 0.672413 0.049289 0.476007
C20   C     C_R   0.430555 0.327293 0.947604 0.449650
C21   C     C_R   0.482401 0.673797 0.099679 0.433972
C22   C     C_R   0.440671 0.323080 0.897729 0.420473
C23   C     C_R   0.499906 0.499651 0.594339 0.967505
C24   C     C_R   0.500071 0.500537 0.405679 0.967221
C25   C     C_R   0.565619 0.651459 0.952290 0.397045
C26   C     C_R   0.502357 0.313178 0.051945 0.409967
C27   C     C_1   0.533365 0.212001 0.504357 -0.170058
C28   C     C_1   0.466520 0.787986 0.502456 -0.175456
C29   C     C_2   0.545165 0.020278 0.512578 0.382878
C30   C     C_2   0.454249 0.979729 0.508282 0.385143
C31   C     C_1   0.457284 0.875153 0.505247 -0.063902
C32   C     C_1   0.542332 0.124879 0.508224 -0.068567
C33   C     C_2   0.032704 0.472765 0.486479 -0.241306
C34   C     C_2   0.967306 0.527121 0.513604 -0.247071
C35   C     C_1   0.854979 0.519667 0.509947 0.161942
C36   C     C_1   0.145027 0.480282 0.490096 0.162575
C37   C     C_R   0.527549 0.572976 0.824538 0.632919
C38   C     C_R   0.493679 0.406831 0.177799 0.688090
C39   C     C_R   0.481419 0.405998 0.822944 0.651841
C40   C     C_R   0.501444 0.581859 0.176533 0.578690
C41   C     C_R   0.411080 0.478128 0.721064 0.355607
C42   C     C_R   0.404805 0.513107 0.274527 0.335653
C43   C     C_R   0.412798 0.470181 0.670695 0.280284
C44   C     C_R   0.406892 0.524775 0.324665 0.345611
C45   C     C_R   0.589068 0.522337 0.675328 0.296513
C46   C     C_R   0.591913 0.475202 0.329547 0.294841
C47   C     C_R   0.593404 0.508290 0.725335 0.405112
C48   C     C_R   0.592180 0.483203 0.279124 0.395847
C49   C     C_R   0.503122 0.491323 0.748299 -0.043938
C50   C     C_R   0.498198 0.496777 0.252068 -0.006312
H1    H     H_    0.998052 0.578917 0.539354 0.165415
H2    H     H_    0.001941 0.420977 0.460728 0.168654
N1    N     N_R   0.504392 0.489897 0.799878 -0.313672
N2    N     N_R   0.497808 0.494917 0.200799 -0.302500
N3    N     N_1   0.234530 0.484780 0.492250 -0.086270
N4    N     N_1   0.765470 0.515220 0.507750 -0.085366
O1    O     O_R   0.402510 0.634760 0.497160 -0.634240
O2    O     O_R   0.597490 0.365240 0.502840 -0.631095
O3    O     O_R   0.572960 0.644530 0.502140 -0.608869
O4    O     O_R   0.427040 0.355470 0.497860 -0.608141
O5    O     O_R   0.414790 0.495100 0.568760 -0.576337
O6    O     O_R   0.585210 0.504900 0.431240 -0.573452
O7    O     O_R   0.585240 0.504870 0.573730 -0.576078
O8    O     O_R   0.414760 0.495130 0.426270 -0.571671
O9    O     O_2   0.547100 0.654643 0.799881 -0.522103
O10   O     O_2   0.491266 0.323494 0.204114 -0.501192
O11   O     O_2   0.512810 0.665582 0.201616 -0.558124
O12   O     O_2   0.465273 0.324274 0.796982 -0.515920
Zn1   Zn    Zn3+2 0.386190 0.493480 0.496680 0.990184
Zn2   Zn    Zn3+2 0.613810 0.506520 0.503320 0.989978
O13   O     O_3   0.674562 0.553490 0.653646 -0.595218
C51   C     C_3   0.683786 0.655290 0.662519 0.153119
H3    H     H_    0.766649 0.669289 0.661211 0.155696
H4    H     H_    0.660547 0.678828 0.698981 0.179904
C52   C     C_3   0.622358 0.718857 0.623576 -0.371557
H5    H     H_    0.653293 0.701411 0.587942 0.258155
H6    H     H_    0.539823 0.702545 0.622377 0.204489
C53   C     C_3   0.629459 0.828556 0.633450 -0.960861
H7    H     H_    0.596527 0.848168 0.668437 0.270740
H8    H     H_    0.584966 0.872476 0.604495 0.278896
H9    H     H_    0.711156 0.847479 0.634408 0.256933
O14   O     O_3   0.682172 0.445468 0.356334 -0.608065
C54   C     C_3   0.707107 0.343141 0.350085 0.149811
H10   H     H_    0.792257 0.329838 0.355407 0.158005
H11   H     H_    0.686141 0.316420 0.313178 0.176453
C55   C     C_3   0.657031 0.282396 0.387674 -0.384085
H12   H     H_    0.685286 0.304041 0.424290 0.248843
H13   H     H_    0.571837 0.297194 0.384216 0.217475
C56   C     C_3   0.682871 0.172088 0.381342 -0.943907
H14   H     H_    0.656952 0.148877 0.344606 0.281963
H15   H     H_    0.642553 0.130172 0.407970 0.273046
H16   H     H_    0.767344 0.154204 0.387154 0.261549
O15   O     O_3   0.684552 0.519390 0.752188 -0.562505
C57   C     C_3   0.738609 0.426013 0.757500 -0.268444
H17   H     H_    0.758493 0.394918 0.721928 0.173734
H18   H     H_    0.694024 0.373763 0.777379 0.155419
H19   H     H_    0.811979 0.434478 0.778933 0.185418
O16   O     O_3   0.682278 0.464806 0.255507 -0.592989
C58   C     C_3   0.741487 0.547465 0.260389 -0.249892
H20   H     H_    0.770522 0.557113 0.298349 0.191776
H21   H     H_    0.697267 0.616065 0.246787 0.192514
H22   H     H_    0.809668 0.535338 0.238387 0.178403
O17   O     O_3   0.601542 0.734343 0.879353 -0.553077
C59   C     C_3   0.527221 0.815317 0.879322 -0.201757
H23   H     H_    0.515629 0.842479 0.916450 0.186206
H24   H     H_    0.452210 0.796706 0.861554 0.144591
H25   H     H_    0.555477 0.876604 0.858456 0.176989
O18   O     O_3   0.506265 0.223927 0.126819 -0.555108
C60   C     C_3   0.410333 0.181520 0.122811 -0.173121
H26   H     H_    0.389330 0.161554 0.084912 0.177461
H27   H     H_    0.347905 0.231445 0.137234 0.142720
H28   H     H_    0.416452 0.112568 0.144592 0.187501
O19   O     O_3   0.316531 0.553718 0.346461 -0.578085
C61   C     C_3   0.294385 0.657030 0.340383 0.093633
H29   H     H_    0.209140 0.671502 0.336997 0.156849
H30   H     H_    0.324627 0.687552 0.307148 0.101583
C62   C     C_3   0.336140 0.713384 0.383978 -0.336835
H31   H     H_    0.299058 0.689914 0.416708 0.247167
H32   H     H_    0.420885 0.696926 0.389165 0.206054
C63   C     C_3   0.314569 0.824555 0.376879 -0.964566
H33   H     H_    0.347112 0.849119 0.343139 0.274699
H34   H     H_    0.351519 0.863875 0.407395 0.275999
H35   H     H_    0.230129 0.844499 0.375213 0.262560
O20   O     O_3   0.326756 0.440983 0.644189 -0.611704
C64   C     C_3   0.316667 0.338810 0.651356 0.139791
H36   H     H_    0.233356 0.326054 0.646423 0.154854
H37   H     H_    0.341999 0.312009 0.688432 0.182559
C65   C     C_3   0.374950 0.277609 0.614066 -0.351899
H38   H     H_    0.341988 0.298289 0.577372 0.256599
H39   H     H_    0.457793 0.292964 0.616581 0.204826
C66   C     C_3   0.366857 0.167391 0.622061 -0.975180
H40   H     H_    0.400926 0.144664 0.658318 0.273016
H41   H     H_    0.409791 0.125190 0.594577 0.274606
H42   H     H_    0.284831 0.149422 0.618873 0.258116
O21   O     O_3   0.312288 0.498571 0.249157 -0.570688
C67   C     C_3   0.269161 0.586346 0.226247 0.115442
H43   H     H_    0.324994 0.643859 0.222630 0.101466
H44   H     H_    0.205654 0.618523 0.247613 0.140148
C68   C     C_3   0.224099 0.562852 0.175829 -0.381161
H45   H     H_    0.191732 0.632475 0.157950 0.161700
H46   H     H_    0.286177 0.530019 0.153830 0.209955
C69   C     C_3   0.138581 0.491831 0.177469 -0.756709
H47   H     H_    0.169570 0.419662 0.193125 0.288555
H48   H     H_    0.106264 0.479413 0.140315 0.219540
H49   H     H_    0.075515 0.523219 0.199342 0.241273
O22   O     O_3   0.322374 0.462295 0.744410 -0.606682
C70   C     C_3   0.250004 0.544833 0.738015 0.119528
H50   H     H_    0.172273 0.518507 0.742621 0.170796
H51   H     H_    0.247405 0.578062 0.701175 0.151622
C71   C     C_3   0.270752 0.623263 0.776153 -0.396632
H52   H     H_    0.278015 0.588438 0.812569 0.234649
H53   H     H_    0.344206 0.656267 0.769400 0.236651
C72   C     C_3   0.184247 0.705349 0.774770 -0.945541
H54   H     H_    0.176470 0.741831 0.738778 0.264948
H55   H     H_    0.202309 0.761326 0.802398 0.266980
H56   H     H_    0.109908 0.675035 0.782608 0.268954
O23   O     O_3   0.481394 0.763956 0.122766 -0.523544
C73   C     C_3   0.378435 0.797466 0.130320 -0.195957
H57   H     H_    0.333772 0.739093 0.145488 0.106093
H58   H     H_    0.338814 0.827713 0.096490 0.157969
H59   H     H_    0.379321 0.858385 0.156749 0.185843
O24   O     O_3   0.406261 0.242876 0.872632 -0.538582
C74   C     C_3   0.482372 0.163646 0.878394 -0.195429
H60   H     H_    0.491268 0.136806 0.916361 0.181754
H61   H     H_    0.558064 0.184133 0.866140 0.137483
H62   H     H_    0.457850 0.101506 0.855764 0.177360
O25   O     O_3   0.456917 0.761292 0.024872 -0.530863
C75   C     C_3   0.358035 0.762000 0.000916 -0.339679
H63   H     H_    0.299082 0.735478 0.024448 0.125939
H64   H     H_    0.360018 0.717617 0.967504 0.158435
H65   H     H_    0.332923 0.839044 0.990131 0.195739
O26   O     O_3   0.377027 0.255877 0.968849 -0.550154
C76   C     C_3   0.276210 0.295900 0.976251 -0.284905
H66   H     H_    0.235044 0.321320 0.941693 0.168346
H67   H     H_    0.276786 0.357268 0.002620 0.140115
H68   H     H_    0.232260 0.237349 0.991471 0.184121
O27   O     O_3   0.618292 0.720527 0.978440 -0.586655
C77   C     C_3   0.725078 0.690852 0.982482 0.132651
H69   H     H_    0.767296 0.758744 0.986823 0.173129
H70   H     H_    0.753441 0.653632 0.949528 0.132446
C78   C     C_3   0.751500 0.624701 0.026988 -0.378696
H71   H     H_    0.720219 0.661399 0.059270 0.248624
H72   H     H_    0.715928 0.553326 0.021943 0.215385
C79   C     C_3   0.867888 0.603637 0.035579 -0.959742
H73   H     H_    0.900542 0.565713 0.003947 0.262766
H74   H     H_    0.884302 0.555134 0.067758 0.270298
H75   H     H_    0.905809 0.673432 0.042011 0.264510
O28   O     O_3   0.529987 0.225461 0.029181 -0.595826
C80   C     C_3   0.638556 0.205751 0.033490 0.136767
H76   H     H_    0.654483 0.124510 0.031470 0.181976
H77   H     H_    0.674032 0.228484 0.068868 0.142633
C81   C     C_3   0.690005 0.253866 0.991978 -0.409544
H78   H     H_    0.652388 0.232610 0.957016 0.222668
H79   H     H_    0.680986 0.335417 0.995140 0.220033
C82   C     C_3   0.804949 0.222217 0.992569 -0.947374
H80   H     H_    0.844380 0.243928 0.027013 0.265757
H81   H     H_    0.839932 0.258831 0.962368 0.266634
H82   H     H_    0.816775 0.141051 0.988221 0.266180
O29   O     O_3   0.362358 0.038817 0.500570 -0.654886
C83   C     C_3   0.280032 0.001594 0.524633 0.080931
H83   H     H_    0.233354 0.066062 0.538331 0.174877
H84   H     H_    0.306086 0.955216 0.556900 0.121383
C84   C     C_3   0.210586 0.945492 0.489598 -0.336508
H85   H     H_    0.187109 0.992546 0.457474 0.239406
H86   H     H_    0.253136 0.877308 0.477494 0.227671
C85   C     C_3   0.114161 0.916600 0.513293 -0.966146
H87   H     H_    0.135846 0.868106 0.545070 0.266172
H88   H     H_    0.065578 0.876088 0.487095 0.270762
H89   H     H_    0.068441 0.983490 0.524899 0.268554
O30   O     O_3   0.637642 0.960729 0.516230 -0.657416
C86   C     C_3   0.717029 0.005306 0.543439 0.085312
H90   H     H_    0.763756 0.945837 0.563936 0.165423
H91   H     H_    0.687264 0.057723 0.571063 0.128456
C87   C     C_3   0.788400 0.054580 0.510169 -0.329035
H92   H     H_    0.827343 0.997459 0.487625 0.229743
H93   H     H_    0.743173 0.108445 0.485800 0.231877
C88   C     C_3   0.869772 0.108643 0.539135 -0.971303
H94   H     H_    0.832266 0.169867 0.559693 0.273501
H95   H     H_    0.922907 0.140066 0.514277 0.268246
H96   H     H_    0.915308 0.057110 0.564676 0.259349

loop_
_geom_bond_atom_site_label_1
_geom_bond_atom_site_label_2
_ccdc_geom_bond_type
C84   H85   S    
C53   H7    S    
O15   C57   S    
C82   H81   S    
C5    C37   A    
C45   O13   S    
C8    C26   A    
C39   O12   S    
C14   C18   A    
C74   H60   S    
C53   H9    S    
C66   H42   S    
C65   H38   S    
C62   H32   S    
C59   H24   S    
C61   H29   S    
C29   O30   S    
C47   C49   A    
C76   H66   S    
O26   C76   S    
C33   H2    S    
C84   H86   S    
C34   H1    S    
O23   C73   S    
C19   O25   S    
C54   H10   S    
C74   H61   S    
O19   C61   S    
C29   C32   S    
C1    O3    A    
C30   C31   S    
C22   O24   S    
C68   C69   S    
C2    O4    A    
C9    C22   A    
C78   C79   S    
O16   C58   S    
C9    C39   A    
C33   C36   S    
O18   C60   S    
O6    Zn2   S    
C3    C18   A    
C10   C40   A    
C34   C35   S    
C80   H77   S    
C56   H16   S    
C73   H59   S    
C46   O14   S    
C26   O28   S    
C75   H65   S    
C41   O22   S    
C70   H50   S    
C83   H83   S    
C40   O11   S    
C37   O9    S    
C58   H22   S    
C1    C28   S    
C6    C38   A    
C11   C43   A    
C2    C27   S    
C56   H15   S    
C71   H52   S    
C63   H35   S    
C82   H82   S    
C37   N1    A    
C23   O7    A    
C30   O29   S    
C27   C32   T    
O29   C83   S    
C24   O8    A    
C7    O17   S    
C73   H58   S    
C41   C43   A    
C69   H49   S    
C57   H17   S    
C42   C44   A    
C51   C52   S    
C8    O18   S    
C41   C49   A    
C59   H23   S    
C63   H34   S    
C77   H69   S    
C45   C47   A    
C10   C21   A    
C84   C85   S    
C46   C48   A    
C70   H51   S    
C69   H47   S    
C13   C19   A    
C55   H13   S    
C77   C78   S    
C81   C82   S    
C14   C20   A    
O21   C67   S    
C74   H62   S    
C51   H4    S    
C62   C63   S    
O25   C75   S    
C5    C7    A    
C85   H87   S    
O2    Zn2   S    
C15   C26   A    
C6    C8    A    
C57   H19   S    
C3    C5    A    
C88   H94   S    
C78   H71   S    
C71   C72   S    
O28   C80   S    
C88   H96   S    
C12   C46   A    
C67   C68   S    
C73   H57   S    
C80   C81   S    
C52   H5    S    
C86   H90   S    
C29   C30   D    
C3    C9    A    
C1    O1    A    
C64   C65   S    
O22   C70   S    
C77   H70   S    
C58   H20   S    
C38   N2    A    
O7    Zn2   S    
C23   O5    A    
C70   C71   S    
C33   C34   D    
C47   O15   S    
C53   H8    S    
C16   C18   A    
C50   N2    S    
O8    Zn1   S    
C72   H56   S    
C57   H18   S    
C48   C50   A    
C52   H6    S    
N3    Zn1   S    
C76   H67   S    
C42   C50   A    
C4    C17   A    
C67   H44   S    
C75   H63   S    
C20   O26   S    
C20   C22   A    
C44   O19   S    
O14   C54   S    
C40   N2    A    
C64   H36   S    
C71   H53   S    
C60   H28   S    
C4    C6    A    
C72   H55   S    
C4    C10   A    
C66   H40   S    
C65   C66   S    
C69   H48   S    
C63   H33   S    
O24   C74   S    
C76   H68   S    
O5    Zn1   S    
C16   C25   A    
C86   H91   S    
C38   O10   S    
C24   O6    A    
C54   H11   S    
C35   N4    T    
C55   H12   S    
C21   O23   S    
C28   C31   T    
C51   H3    S    
C66   H41   S    
C55   C56   S    
C65   H39   S    
C61   H30   S    
C68   H45   S    
C2    O2    A    
C15   C17   A    
C88   H95   S    
C48   O16   S    
C12   C24   S    
N4    Zn2   S    
C7    C25   A    
C79   H75   S    
C13   C17   A    
C75   H64   S    
C81   H78   S    
C54   C55   S    
C60   H27   S    
C72   H54   S    
C87   H93   S    
O13   C51   S    
C12   C44   A    
C36   N3    T    
C60   H26   S    
C68   H46   S    
C85   H89   S    
C39   N1    A    
O4    Zn1   S    
C83   C84   S    
C49   N1    S    
C87   H92   S    
C11   C23   S    
C79   H74   S    
C25   O27   S    
C87   C88   S    
C80   H76   S    
C52   C53   S    
C61   C62   S    
C11   C45   A    
O27   C77   S    
O3    Zn2   S    
C82   H80   S    
C78   H72   S    
C86   C87   S    
C83   H84   S    
O30   C86   S    
C13   C16   A    
O17   C59   S    
C64   H37   S    
C14   C15   A    
C42   O21   S    
C79   H73   S    
O1    Zn1   S    
C56   H14   S    
C62   H31   S    
C85   H88   S    
C43   O20   S    
C58   H21   S    
C59   H25   S    
C67   H43   S    
C81   H79   S    
O20   C64   S    
C19   C21   A    
