data_mof_unit_15782.cif
_audit_creation_date              2012-12-10T19:09:30-0500
_audit_creation_method            fapswitch 2.2
_symmetry_space_group_name_H-M    P1
_symmetry_Int_Tables_number       1
_space_group_crystal_system       triclinic
_cell_length_a                    14.612617
_cell_length_b                    15.553578
_cell_length_c                    9.698579
_cell_angle_alpha                 89.882025
_cell_angle_beta                  89.999483
_cell_angle_gamma                 90.000019
_cell_volume                      2204.27360391

loop_
_atom_site_label
_atom_site_type_symbol
_atom_type_description
_atom_site_fract_x
_atom_site_fract_y
_atom_site_fract_z
_atom_type_partial_charge
C1    C     C_R   0.126515 0.384474 0.500259 0.839035
C2    C     C_R   0.879421 0.622342 0.499961 0.949920
C3    C     C_R   0.379422 0.877657 0.500040 0.949997
C4    C     C_R   0.380064 0.122903 0.499984 0.936705
C5    C     C_3   0.841411 0.236975 0.607602 -0.446628
C6    C     C_3   0.812563 0.261618 0.356406 -0.430867
C7    C     C_3   0.843711 0.764799 0.398862 -0.415385
C8    C     C_3   0.807172 0.733752 0.646037 -0.429231
C9    C     C_3   0.343708 0.735201 0.601144 -0.415265
C10   C     C_3   0.307177 0.766244 0.353967 -0.429041
C11   C     C_3   0.341407 0.263020 0.392379 -0.446647
C12   C     C_R   0.125945 0.616169 0.499750 0.864010
C13   C     C_3   0.312577 0.238395 0.643585 -0.430908
C14   C     C_3   0.275444 0.659804 0.596431 -0.364776
C15   C     C_3   0.232751 0.697697 0.351520 -0.293407
C16   C     C_3   0.272711 0.338028 0.395816 -0.369507
C17   C     C_3   0.238579 0.307588 0.646422 -0.370523
C18   C     C_3   0.772721 0.161963 0.604151 -0.369658
C19   C     C_3   0.738558 0.192432 0.353566 -0.370695
C20   C     C_3   0.775448 0.840196 0.403575 -0.364878
C21   C     C_3   0.732745 0.802299 0.648482 -0.293312
C22   C     C_3   0.715150 0.341415 0.534474 0.704765
C23   C     C_R   0.625944 0.883830 0.500249 0.863957
C24   C     C_3   0.715339 0.658772 0.456243 0.687458
C25   C     C_3   0.215338 0.841227 0.543755 0.687485
C26   C     C_3   0.215152 0.158586 0.465548 0.704789
C27   C     C_3   0.813328 0.306579 0.500020 -0.008554
C28   C     C_3   0.812438 0.692574 0.499788 -0.049991
C29   C     C_3   0.312439 0.807424 0.500214 -0.050172
C30   C     C_3   0.313332 0.193424 0.499979 -0.008593
C31   C     C_3   0.194771 0.683126 0.499439 -0.023576
C32   C     C_3   0.195511 0.317659 0.500737 0.054857
C33   C     C_3   0.695507 0.182343 0.499261 0.055037
C34   C     C_R   0.626513 0.115528 0.499740 0.838939
C35   C     C_3   0.694770 0.816873 0.500560 -0.023545
C36   C     C_3   0.148186 0.765490 0.551938 -0.412048
C37   C     C_3   0.147258 0.233815 0.459036 -0.441741
C38   C     C_3   0.647260 0.266183 0.541003 -0.441693
C39   C     C_3   0.648188 0.734509 0.448052 -0.411959
C40   C     C_3   0.089980 0.476394 0.081342 0.542208
C41   C     C_3   0.089906 0.476160 0.918812 0.544071
C42   C     C_3   0.972923 0.585537 0.918488 0.541034
C43   C     C_3   0.972653 0.585465 0.081006 0.530381
C44   C     C_3   0.472699 0.914523 0.081515 0.541049
C45   C     C_3   0.932258 0.436850 0.081623 -0.592481
C46   C     C_3   0.472447 0.914591 0.918994 0.530309
C47   C     C_3   0.590038 0.023410 0.918656 0.542275
C48   C     C_3   0.589969 0.023629 0.081187 0.544067
C49   C     C_3   0.932071 0.437052 0.918918 -0.576217
C50   C     C_3   0.432240 0.063105 0.081084 -0.576363
C51   C     C_3   0.432415 0.063295 0.918378 -0.592527
C52   C     C_R   0.880062 0.377099 0.500016 0.936678
Cl1   Cl    Cl    0.711923 0.396156 0.697592 -0.559415
Cl2   Cl    Cl    0.676584 0.413710 0.402728 -0.505070
Cl3   Cl    Cl    0.716917 0.606268 0.291019 -0.522010
Cl4   Cl    Cl    0.671701 0.584916 0.581715 -0.484573
Cl5   Cl    Cl    0.216910 0.893726 0.708981 -0.522039
Cl6   Cl    Cl    0.171706 0.915085 0.418285 -0.484635
Cl7   Cl    Cl    0.211914 0.103846 0.302430 -0.559450
Cl8   Cl    Cl    0.176601 0.086288 0.597302 -0.505109
F1    F     F_    0.156900 0.531292 0.131042 -0.579679
F2    F     F_    0.157066 0.530591 0.868217 -0.577653
F3    F     F_    0.030818 0.648910 0.868550 -0.559541
F4    F     F_    0.030051 0.649039 0.131089 -0.565505
F5    F     F_    0.530415 0.851016 0.131485 -0.559516
F6    F     F_    0.529700 0.850898 0.868919 -0.565402
F7    F     F_    0.656826 0.968376 0.868947 -0.579766
F8    F     F_    0.656982 0.969028 0.131751 -0.577689
H1    H     H_    0.843516 0.264378 0.713382 0.219629
H2    H     H_    0.880511 0.231848 0.335717 0.191048
H3    H     H_    0.913137 0.788200 0.427468 0.198360
H4    H     H_    0.874224 0.763313 0.673186 0.216642
H5    H     H_    0.413134 0.711798 0.572541 0.198391
H6    H     H_    0.374230 0.736683 0.326821 0.216780
H7    H     H_    0.411326 0.287550 0.415332 0.189441
H8    H     H_    0.380529 0.268161 0.664260 0.191074
H9    H     H_    0.310464 0.600812 0.558663 0.184162
H10   H     H_    0.261585 0.636830 0.309685 0.230095
H11   H     H_    0.308436 0.398401 0.425683 0.190187
H12   H     H_    0.799561 0.307948 0.271095 0.229997
H13   H     H_    0.268908 0.369611 0.680908 0.201891
H14   H     H_    0.808447 0.101598 0.574247 0.190152
H15   H     H_    0.768878 0.130412 0.319047 0.201739
H16   H     H_    0.810467 0.899187 0.441347 0.184126
H17   H     H_    0.761580 0.863166 0.690317 0.230066
H18   H     H_    0.250445 0.646318 0.702670 0.271282
H19   H     H_    0.176920 0.719060 0.281164 0.273659
H20   H     H_    0.244118 0.347795 0.290557 0.206154
H21   H     H_    0.185283 0.288763 0.722864 0.203632
H22   H     H_    0.744141 0.152175 0.709414 0.206021
H23   H     H_    0.848291 0.740112 0.291531 0.242598
H24   H     H_    0.685253 0.211272 0.277149 0.203632
H25   H     H_    0.750455 0.853684 0.297335 0.271282
H26   H     H_    0.676912 0.780938 0.718838 0.273642
H27   H     H_    0.124682 0.755225 0.659989 0.251374
H28   H     H_    0.084985 0.778398 0.491023 0.178141
H29   H     H_    0.118566 0.241086 0.353211 0.193866
H30   H     H_    0.087213 0.222357 0.527496 0.174413
H31   H     H_    0.618592 0.258901 0.646841 0.193870
H32   H     H_    0.587200 0.277646 0.472578 0.174409
H33   H     H_    0.624692 0.744775 0.339998 0.251392
H34   H     H_    0.791992 0.685222 0.727262 0.240374
H35   H     H_    0.584982 0.721601 0.508957 0.178162
H36   H     H_    0.108734 0.410854 0.117764 0.017259
H37   H     H_    0.108288 0.410443 0.883253 0.012519
H38   H     H_    0.903011 0.602591 0.882349 0.043436
H39   H     H_    0.902555 0.602212 0.116694 0.077226
H40   H     H_    0.402734 0.897643 0.117638 0.043558
H41   H     H_    0.402312 0.897992 0.883295 0.077425
H42   H     H_    0.608947 0.088913 0.882244 0.017216
H43   H     H_    0.608532 0.089296 0.116767 0.012533
H44   H     H_    0.949016 0.371193 0.119770 0.217743
H45   H     H_    0.348286 0.759889 0.708475 0.242728
H46   H     H_    0.948206 0.371406 0.880579 0.221417
H47   H     H_    0.862149 0.452454 0.881112 0.276747
H48   H     H_    0.862284 0.451592 0.120202 0.265690
H49   H     H_    0.362279 0.047873 0.118905 0.276726
H50   H     H_    0.362402 0.048695 0.879820 0.265547
H51   H     H_    0.449326 0.128913 0.880208 0.217786
H52   H     H_    0.448558 0.128713 0.119416 0.221356
H53   H     H_    0.291999 0.814773 0.272740 0.240391
H54   H     H_    0.343515 0.235609 0.286605 0.219673
H55   H     H_    0.299576 0.192072 0.728905 0.229995
H56   H     H_    0.911332 0.212453 0.584639 0.189422
N1    N     N_3   0.998760 0.500000 0.138610 -0.172362
N2    N     N_3   0.998760 0.500000 0.861390 -0.175743
N3    N     N_3   0.498760 0.000000 0.138610 -0.175706
N4    N     N_3   0.498760 0.000000 0.861390 -0.172348
O1    O     O_R   0.092530 0.407440 0.616040 -0.633701
O2    O     O_R   0.907330 0.407420 0.383960 -0.619731
O3    O     O_R   0.907330 0.592580 0.383960 -0.584567
O4    O     O_R   0.907330 0.592580 0.616040 -0.604065
O5    O     O_R   0.407330 0.907420 0.616040 -0.584463
O6    O     O_R   0.407330 0.907420 0.383960 -0.603912
O7    O     O_R   0.407330 0.092580 0.383960 -0.604041
O8    O     O_R   0.407330 0.092580 0.616040 -0.619716
O9    O     O_R   0.092530 0.407440 0.383960 -0.634219
O10   O     O_R   0.092530 0.592560 0.383960 -0.537419
O11   O     O_R   0.092530 0.592560 0.616040 -0.531581
O12   O     O_R   0.592530 0.907440 0.616040 -0.537413
O13   O     O_R   0.592530 0.907440 0.383960 -0.531560
O14   O     O_R   0.592530 0.092560 0.383960 -0.633843
O15   O     O_R   0.592530 0.092560 0.616040 -0.634321
O16   O     O_R   0.907330 0.407420 0.616040 -0.604040
Zn1   Zn    Zn3+2 0.999890 0.500000 0.654960 1.030945
Zn2   Zn    Zn3+2 0.999890 0.500000 0.345040 1.031502
Zn3   Zn    Zn3+2 0.499890 0.000000 0.654960 1.031495
Zn4   Zn    Zn3+2 0.499890 0.000000 0.345040 1.030944

loop_
_geom_bond_atom_site_label_1
_geom_bond_atom_site_label_2
_ccdc_geom_bond_type
C20   H25   S    
C44   N3    S    
C40   C41   S    
O2    Zn2   S    
C50   H49   S    
C45   H48   S    
C14   C31   S    
C10   H53   S    
C43   N1    S    
C37   H29   S    
C45   H44   S    
C47   N4    S    
C22   Cl2   S    
C24   Cl3   S    
O15   Zn3   S    
C6    C19   S    
C5    H56   S    
C52   O16   A    
C9    H5    S    
C50   H52   S    
O4    Zn1   S    
C46   N4    S    
C46   F6    S    
C1    O1    A    
N1    Zn2   S    
C7    H3    S    
C13   H55   S    
C15   H10   S    
C21   H26   S    
C22   C38   S    
C24   C39   S    
O3    Zn2   S    
C14   H9    S    
C3    C29   S    
C5    H1    S    
C19   H24   S    
O13   Zn4   S    
C5    C27   S    
C20   C35   S    
C34   O14   A    
C47   C48   S    
C11   C30   S    
C45   N1    S    
C51   H51   S    
O5    Zn3   S    
C26   Cl7   S    
O1    Zn1   S    
C9    C29   S    
N3    Zn4   S    
C4    O8    A    
C49   H46   S    
C44   F5    S    
C25   Cl5   S    
C41   F2    S    
C19   H15   S    
O12   Zn3   S    
C47   F7    S    
C37   H30   S    
N2    Zn1   S    
C44   C46   S    
C43   F4    S    
C39   H33   S    
C22   Cl1   S    
C44   H40   S    
C25   C29   S    
C21   H17   S    
C34   O15   A    
C8    H4    S    
C18   H22   S    
O14   Zn4   S    
O9    Zn2   S    
C17   H21   S    
C14   H18   S    
C38   H32   S    
C19   C33   S    
C42   N2    S    
O16   Zn1   S    
C5    C18   S    
C50   C51   S    
C1    C32   S    
C7    C28   S    
C3    O5    A    
C35   C39   S    
C9    C14   S    
C49   N2    S    
C40   H36   S    
C11   C16   S    
C36   H28   S    
C6    H12   S    
C6    C27   S    
C13   H8    S    
C45   C49   S    
C7    H23   S    
C2    O3    A    
C12   O11   A    
C26   C37   S    
C43   H39   S    
C32   C37   S    
C48   F8    S    
C15   C31   S    
C23   O12   A    
C42   H38   S    
C41   H37   S    
C4    O7    A    
C2    O4    A    
C49   H47   S    
C26   C30   S    
C23   C35   S    
C22   C27   S    
C20   H16   S    
C12   C31   S    
C8    C28   S    
C12   O10   A    
C11   H54   S    
C16   C32   S    
C42   C43   S    
C51   N4    S    
C1    O9    A    
C27   C52   S    
C15   H19   S    
C6    H2    S    
O11   Zn1   S    
C41   N2    S    
C24   C28   S    
C38   H31   S    
C8    C21   S    
N4    Zn3   S    
C39   H35   S    
C21   C35   S    
C24   Cl4   S    
C47   H42   S    
O6    Zn4   S    
C33   C38   S    
C13   C17   S    
C10   C15   S    
C3    O6    A    
C9    H45   S    
C16   H11   S    
C52   O2    A    
C11   H7    S    
C48   N3    S    
C10   H6    S    
C36   H27   S    
C26   Cl8   S    
O10   Zn2   S    
C40   N1    S    
C18   H14   S    
C33   C34   S    
C17   H13   S    
O7    Zn4   S    
C18   C33   S    
O8    Zn3   S    
C40   F1    S    
C25   C36   S    
C51   H50   S    
C10   C29   S    
C48   H43   S    
C13   C30   S    
C7    C20   S    
C25   Cl6   S    
C46   H41   S    
C16   H20   S    
C17   C32   S    
C31   C36   S    
C23   O13   A    
C2    C28   S    
C50   N3    S    
C8    H34   S    
C42   F3    S    
C4    C30   S    
