data_mof_unit_39723.cif
_audit_creation_date              2013-03-05T15:54:39-0500
_audit_creation_method            fapswitch 2.2
_symmetry_space_group_name_H-M    P1
_symmetry_Int_Tables_number       1
_space_group_crystal_system       triclinic
_cell_length_a                    14.031811
_cell_length_b                    14.033329
_cell_length_c                    30.035549
_cell_angle_alpha                 97.365928
_cell_angle_beta                  96.948504
_cell_angle_gamma                 61.109545
_cell_volume                      5123.69827167

loop_
_atom_site_label
_atom_site_type_symbol
_atom_site_description
_atom_site_fract_x
_atom_site_fract_y
_atom_site_fract_z
_atom_type_partial_charge
O1    O     O_R   0.688580 0.499770 0.460490 -0.529706
O2    O     O_R   0.480400 0.672610 0.462660 -0.513175
C1    C     C_R   0.385263 0.710827 0.441770 0.918914
O3    O     O_R   0.315310 0.685650 0.451800 -0.483980
O4    O     O_R   0.346220 0.474990 0.446280 -0.514517
C2    C     C_R   0.398705 0.380694 0.426540 0.838881
O5    O     O_R   0.492270 0.312460 0.441630 -0.510473
O6    O     O_R   0.669740 0.350480 0.455640 -0.500013
C3    C     C_R   0.712305 0.404163 0.443181 0.912702
O7    O     O_R   0.691150 0.501150 0.557860 -0.509995
O8    O     O_R   0.482790 0.673890 0.552920 -0.528393
C4    C     C_R   0.389227 0.712261 0.568084 0.819351
O9    O     O_R   0.317880 0.687030 0.549170 -0.498561
O10   O     O_R   0.348600 0.476260 0.536540 -0.511174
C5    C     C_R   0.399164 0.381638 0.551161 0.907992
O11   O     O_R   0.494840 0.313840 0.539010 -0.508981
O12   O     O_R   0.672120 0.351750 0.545910 -0.535779
C6    C     C_R   0.713024 0.407789 0.568475 0.813117
Cr1   Cr    Cr6+3 0.581000 0.584320 0.508140 1.106641
Cr2   Cr    Cr6+3 0.339110 0.576430 0.496080 1.125568
Cr3   Cr    Cr6+3 0.579910 0.339270 0.495810 1.106355
O13   O     O_3   0.500010 0.500010 0.500010 -0.395592
C7    C     C_1   0.367917 0.365308 0.380384 0.032220
C8    C     C_R   0.243529 0.353124 0.269381 0.404493
C9    C     C_R   0.230849 0.352294 0.222516 -0.252523
C10   C     C_R   0.401180 0.357278 0.220247 0.343459
C11   C     C_R   0.412350 0.365180 0.267815 0.275499
C12   C     C_R   0.335405 0.358120 0.292082 -0.193079
C13   C     C_R   0.309613 0.351786 0.198092 -0.100431
C14   C     C_1   0.300865 0.331716 0.150110 0.118324
C15   C     C_1   0.349839 0.359818 0.340314 0.240703
C16   C     C_1   0.291252 0.307982 0.110606 -0.090229
H1    H     H_    0.161729 0.346159 0.204722 0.167004
H2    H     H_    0.889387 0.422191 0.200277 0.201739
H3    H     H_    0.799078 0.460915 0.310620 0.187618
H4    H     H_    0.712450 0.522947 0.381208 0.199094
C17   C     C_R   0.778917 0.360963 0.404020 -0.209030
C18   C     C_R   0.848722 0.247754 0.393988 0.338713
C19   C     C_R   0.893792 0.211830 0.351409 0.334780
C20   C     C_R   0.875322 0.289810 0.321677 -0.060064
C21   C     C_R   0.813751 0.400976 0.333665 -0.054779
C22   C     C_R   0.764998 0.436217 0.374111 -0.120747
C23   C     C_R   0.921139 0.349615 0.177132 -0.144284
C24   C     C_R   0.931966 0.357516 0.132247 0.345271
C25   C     C_R   0.001749 0.160083 0.119479 -0.207687
C26   C     C_R   0.989986 0.154648 0.164279 -0.072441
C27   C     C_R   0.949913 0.249478 0.192951 0.024706
C28   C     C_1   0.932579 0.248255 0.238638 0.108083
C29   C     C_1   0.910659 0.260232 0.276957 0.202365
C30   C     C_R   0.973417 0.260374 0.102444 -0.183701
H5    H     H_    0.012127 0.076734 0.176484 0.185915
H6    H     H_    0.034692 0.084634 0.098147 0.170004
H7    H     H_    0.162035 0.872914 0.093370 0.202226
H8    H     H_    0.226506 0.796196 0.297346 0.243584
C31   C     C_R   0.362117 0.771780 0.401051 -0.346088
C32   C     C_R   0.434825 0.809994 0.392008 0.223006
C33   C     C_R   0.433539 0.839143 0.348416 0.394837
C34   C     C_R   0.363037 0.824992 0.314031 -0.167762
C35   C     C_R   0.283694 0.800619 0.324132 -0.196880
C36   C     C_R   0.278762 0.777914 0.367257 0.415623
C37   C     C_R   0.263151 0.835575 0.155168 0.350219
C38   C     C_R   0.236446 0.867082 0.111027 -0.213613
C39   C     C_R   0.400343 0.884325 0.112954 -0.188194
C40   C     C_R   0.428661 0.853592 0.157038 0.437954
C41   C     C_R   0.356451 0.835533 0.179167 -0.167142
C42   C     C_1   0.368286 0.831833 0.227230 0.194392
C43   C     C_1   0.370117 0.830385 0.267235 0.232111
C44   C     C_R   0.301775 0.896606 0.090523 -0.176655
H9    H     H_    0.452680 0.904775 0.097066 0.202215
C45   C     C_R   0.354139 0.358810 0.588634 -0.374669
C46   C     C_R   0.408029 0.255159 0.606282 0.307034
C47   C     C_R   0.398126 0.247996 0.651800 0.267608
C48   C     C_R   0.333630 0.342960 0.678678 -0.278329
C49   C     C_R   0.265943 0.441493 0.658884 0.273413
C50   C     C_R   0.268918 0.446128 0.612616 0.291251
C51   C     C_R   0.257351 0.420791 0.840025 0.306195
C52   C     C_R   0.243500 0.406820 0.884427 0.364162
C53   C     C_R   0.392616 0.221317 0.876710 -0.262652
C54   C     C_R   0.409195 0.235093 0.833932 0.378303
C55   C     C_R   0.336490 0.332375 0.814170 -0.200423
C56   C     C_1   0.337799 0.338124 0.766690 0.266043
C57   C     C_1   0.336933 0.339813 0.726669 0.277911
C58   C     C_R   0.305197 0.302056 0.900857 -0.275858
H10   H     H_    0.445143 0.142388 0.889646 0.218200
C59   C     C_1   0.759853 0.378246 0.612730 -0.053089
C60   C     C_R   0.868387 0.393852 0.726408 0.337811
C61   C     C_R   0.890186 0.375544 0.772599 0.301612
C62   C     C_R   0.782351 0.279135 0.764164 0.406739
C63   C     C_R   0.767689 0.290878 0.717940 -0.205918
C64   C     C_R   0.810858 0.346519 0.698956 -0.139363
C65   C     C_R   0.845531 0.319788 0.791507 -0.142612
C66   C     C_1   0.871805 0.299441 0.838474 0.254562
C67   C     C_1   0.787452 0.360571 0.651587 0.144069
C68   C     C_1   0.902440 0.284424 0.877374 -0.009141
H11   H     H_    0.720605 0.258214 0.696526 0.201309
C69   C     C_1   0.373494 0.763136 0.612814 -0.025371
C70   C     C_R   0.261744 0.921190 0.716130 0.411009
C71   C     C_R   0.242501 0.932928 0.762507 0.292548
C72   C     C_R   0.415738 0.764711 0.774675 0.401077
C73   C     C_R   0.425672 0.748070 0.728288 -0.230598
C74   C     C_R   0.350682 0.824685 0.699313 -0.109909
C75   C     C_R   0.323194 0.856883 0.791871 -0.195992
C76   C     C_1   0.311012 0.875973 0.839694 0.206151
C77   C     C_1   0.362512 0.795532 0.651858 0.193841
C78   C     C_1   0.293879 0.902270 0.878837 -0.036822
H12   H     H_    0.493890 0.675052 0.714524 0.188640
O14   O     O_R   0.167510 0.972920 0.030390 -0.550711
O15   O     O_R   0.990840 0.178580 0.027590 -0.527273
C79   C     C_R   0.997948 0.255205 0.055203 0.821431
O16   O     O_R   0.972840 0.345510 0.038590 -0.467509
O17   O     O_R   0.181550 0.320660 0.045200 -0.527859
C80   C     C_R   0.275303 0.270899 0.065311 0.803930
O18   O     O_R   0.346150 0.177650 0.050510 -0.530195
O19   O     O_R   0.314200 0.996600 0.036060 -0.537401
C81   C     C_R   0.260930 0.954131 0.048975 0.804463
O20   O     O_R   0.168690 0.969990 0.933130 -0.508946
O21   O     O_R   0.991920 0.175870 0.937430 -0.519753
C82   C     C_R   0.951665 0.269365 0.922240 0.832636
O22   O     O_R   0.974010 0.342590 0.941330 -0.498107
O23   O     O_R   0.182630 0.317940 0.955040 -0.490530
C83   C     C_R   0.278068 0.267019 0.940040 0.899221
O24   O     O_R   0.347320 0.174720 0.953250 -0.549284
O25   O     O_R   0.315290 0.993890 0.945900 -0.536543
C84   C     C_R   0.262249 0.949750 0.923102 0.811124
Cr4   Cr    Cr6+3 0.082090 0.079210 0.982490 1.028990
Cr5   Cr    Cr6+3 0.082460 0.324610 0.994920 1.141494
Cr6   Cr    Cr6+3 0.323630 0.087860 0.996130 1.002493
O26   O     O_3   0.162730 0.163890 0.991180 -0.397828
N1    N     N_R   0.162587 0.348730 0.293113 0.118502
O27   O     O_R   0.190591 0.293283 0.328324 -0.341187
O28   O     O_R   0.061518 0.391308 0.276925 -0.379650
N2    N     N_R   0.953671 0.097510 0.337604 0.166559
O29   O     O_R   0.909930 0.034526 0.338462 -0.259671
O30   O     O_R   0.047505 0.058037 0.320415 -0.342061
N3    N     N_R   0.192830 0.808000 0.175632 0.119941
O31   O     O_R   0.090348 0.847352 0.161715 -0.334658
O32   O     O_R   0.233282 0.733366 0.204200 -0.348909
S1    S     S_3+6 0.168959 0.753248 0.374847 0.125543
O33   O     O_2   0.211434 0.633043 0.377424 -0.339911
O34   O     O_2   0.115670 0.814699 0.417375 -0.229863
O35   O     O_3   0.074733 0.794486 0.331290 -0.433334
H13   H     H_    0.017529 0.777509 0.338167 0.408914
N4    N     N_R   0.510921 0.817515 0.426880 0.172661
O36   O     O_R   0.615353 0.758505 0.422762 -0.304713
O37   O     O_R   0.475992 0.877263 0.464180 -0.315983
S2    S     S_3+6 0.550829 0.846624 0.184226 0.112912
O38   O     O_2   0.599551 0.760144 0.217133 -0.276036
O39   O     O_2   0.631612 0.820322 0.149969 -0.251185
O40   O     O_3   0.522070 0.968673 0.211622 -0.469645
H14   H     H_    0.592603 0.959397 0.226586 0.403900
S3    S     S_3+6 0.518223 0.893871 0.336995 0.138919
O41   O     O_2   0.463419 0.971459 0.300696 -0.300324
O42   O     O_2   0.540711 0.954507 0.378346 -0.244277
O43   O     O_3   0.636771 0.790471 0.319710 -0.448216
H15   H     H_    0.676786 0.826080 0.310680 0.402317
S4    S     S_3+6 0.158959 0.521178 0.920273 0.139172
O44   O     O_2   0.045881 0.533313 0.915808 -0.238956
O45   O     O_2   0.203562 0.504906 0.968398 -0.320310
O46   O     O_3   0.153469 0.636167 0.906324 -0.439180
H16   H     H_    0.100807 0.695490 0.926224 0.392531
N5    N     N_R   0.191057 0.523517 0.820826 0.203237
O47   O     O_R   0.085242 0.570276 0.820536 -0.217984
O48   O     O_R   0.236450 0.569376 0.802530 -0.308642
N6    N     N_R   0.196740 0.537833 0.685872 0.194089
O49   O     O_R   0.134107 0.534251 0.713439 -0.267953
O50   O     O_R   0.198710 0.628951 0.683927 -0.302411
S5    S     S_3+6 0.154665 0.550881 0.584268 0.166895
O51   O     O_2   0.052295 0.579439 0.606156 -0.223329
O52   O     O_2   0.169148 0.650793 0.587118 -0.270355
O53   O     O_3   0.141508 0.508466 0.529975 -0.473830
H17   H     H_    0.083156 0.574008 0.515984 0.384794
S6    S     S_3+6 0.477054 0.133925 0.570558 0.179908
O54   O     O_2   0.596922 0.099738 0.574590 -0.261445
O55   O     O_2   0.460657 0.043507 0.583950 -0.224967
O56   O     O_3   0.428499 0.156244 0.516737 -0.470573
H18   H     H_    0.478352 0.089675 0.498858 0.411073
N7    N     N_R   0.497694 0.146880 0.810648 0.176754
O57   O     O_R   0.480943 0.111811 0.769862 -0.290916
O58   O     O_R   0.590205 0.089323 0.832746 -0.272339
N8    N     N_R   0.453796 0.144809 0.670949 0.213480
O59   O     O_R   0.397806 0.102178 0.683212 -0.267093
O60   O     O_R   0.559710 0.089050 0.672400 -0.248509
S7    S     S_3+6 0.908793 0.479474 0.703884 0.160433
O61   O     O_2   0.018455 0.409726 0.685117 -0.261159
O62   O     O_2   0.827806 0.540899 0.666921 -0.304686
O63   O     O_3   0.916759 0.570959 0.744147 -0.387056
H19   H     H_    0.915924 0.628312 0.727769 0.432349
N9    N     N_R   0.484578 0.349251 0.194325 0.169759
O64   O     O_R   0.459825 0.415815 0.163299 -0.316657
O65   O     O_R   0.582743 0.267630 0.198116 -0.292477
N10   N     N_R   0.960394 0.410429 0.800149 0.179753
O66   O     O_R   0.059880 0.375015 0.789600 -0.295836
O67   O     O_R   0.926553 0.474280 0.836633 -0.290340
S8    S     S_3+6 0.721448 0.213110 0.787037 0.138797
O68   O     O_2   0.645675 0.290626 0.821718 -0.275556
O69   O     O_2   0.657687 0.178305 0.751064 -0.263705
O70   O     O_3   0.818635 0.103026 0.812083 -0.418826
H20   H     H_    0.860148 0.051567 0.787170 0.408021
S9    S     S_3+6 0.179391 0.025876 0.679141 0.166744
O71   O     O_2   0.242577 0.019792 0.640920 -0.268944
O72   O     O_2   0.082784 0.011112 0.660124 -0.269195
O73   O     O_3   0.136320 0.150212 0.706753 -0.412762
H21   H     H_    0.070728 0.199215 0.688610 0.392148
S10   S     S_3+6 0.117509 0.038606 0.784275 0.069669
O74   O     O_2   0.025104 0.073327 0.748611 -0.274223
O75   O     O_2   0.085086 0.000556 0.821585 -0.322304
O76   O     O_3   0.135010 0.146862 0.804503 -0.462288
H22   H     H_    0.185737 0.123094 0.831616 0.315033
N11   N     N_R   0.498651 0.685691 0.803381 0.148694
O77   O     O_R   0.555443 0.584636 0.787724 -0.345696
O78   O     O_R   0.526263 0.715895 0.843448 -0.328198
S11   S     S_3+6 0.520461 0.386161 0.297102 0.069567
O79   O     O_2   0.607530 0.279723 0.313855 -0.272297
O80   O     O_2   0.569957 0.426629 0.267434 -0.272280
O81   O     O_3   0.474288 0.478224 0.341547 -0.525880
H23   H     H_    0.417790 0.546122 0.328496 0.332172
S12   S     S_3+6 0.890637 0.490568 0.116373 0.141178
O82   O     O_2   0.804072 0.517266 0.078275 -0.234062
O83   O     O_2   0.844677 0.575222 0.155015 -0.251478
O84   O     O_3   0.998077 0.495906 0.099795 -0.445209
H24   H     H_    0.051072 0.478199 0.126383 0.326926
S13   S     S_3+6 0.886925 0.153138 0.435372 0.145784
O85   O     O_2   0.806765 0.109758 0.431206 -0.254761
O86   O     O_2   0.999458 0.059810 0.428763 -0.231606
O87   O     O_3   0.886927 0.214538 0.487310 -0.507762
H25   H     H_    0.896056 0.160794 0.508052 0.381939

loop_
_geom_bond_atom_site_label_1
_geom_bond_atom_site_label_2
_geom_bond_distance
_ccdc_geom_bond_type
S8    O69   1.503139 D    
C31   C32   1.426648 A    
O11   Cr3   2.034930 S    
C61   C65   1.414616 A    
C21   C22   1.381472 A    
C70   S9    1.787564 S    
H4    C22   1.083894 S    
O17   C80   1.269397 A    
C73   C74   1.394909 A    
O81   H23   0.990325 S    
C70   C71   1.424607 A    
O25   C84   1.272757 A    
S5    O52   1.501615 D    
O4    Cr2   1.904377 S    
C25   C26   1.391380 A    
C32   C33   1.416483 A    
S12   O84   1.681274 S    
O8    Cr1   1.905058 S    
C10   C11   1.414254 A    
C17   C18   1.420991 A    
C58   C83   1.486383 S    
C71   S10   1.793989 S    
N6    O49   1.299960 A    
O87   H25   0.990548 S    
S2    O38   1.503155 D    
S7    O62   1.503518 D    
C52   S4    1.779983 S    
C39   H9    1.083016 S    
O4    C2    1.267982 A    
O23   Cr5   1.915888 S    
S8    O70   1.681147 S    
O53   H17   0.990527 S    
C52   C58   1.416770 A    
N4    O36   1.301305 A    
C17   C22   1.400679 A    
O15   C79   1.307309 A    
N9    O65   1.301241 A    
C48   C49   1.404520 A    
S3    O43   1.680937 S    
O24   Cr6   2.037816 S    
C82   O22   1.264813 A    
O84   H24   0.990527 S    
Cr3   O13   1.969443 S    
C26   C27   1.388893 A    
C32   N4    1.434660 S    
C1    C31   1.495531 S    
C53   C58   1.405707 A    
O46   H16   0.990552 S    
N8    O60   1.300873 A    
N2    O29   1.300940 A    
N7    O58   1.301486 A    
S9    O73   1.681903 S    
S3    O41   1.502653 D    
C54   N7    1.437464 S    
C8    C9    1.396558 A    
C45   C46   1.416485 A    
O15   Cr4   1.904992 S    
C16   C80   1.424446 S    
C37   C38   1.401327 A    
S6    O56   1.683053 S    
C47   C48   1.407920 A    
C11   C12   1.420937 A    
C62   C63   1.397791 A    
C42   C43   1.201310 T    
O23   C83   1.282867 A    
C35   C36   1.390282 A    
N3    O32   1.301374 A    
C31   C36   1.429536 A    
C51   N5    1.436525 S    
C75   C76   1.442468 S    
O35   H13   0.990572 S    
C59   C67   1.202356 T    
C8    N1    1.441074 S    
C66   C68   1.203506 T    
C80   O18   1.264541 A    
N5    O48   1.301277 A    
S6    O55   1.503379 D    
N5    O47   1.300822 A    
S5    O53   1.682864 S    
S2    O39   1.503452 D    
H8    C35   1.083590 S    
S4    O46   1.682512 S    
C9    C13   1.395301 A    
C18   C19   1.418427 A    
O1    Cr1   2.022740 S    
C6    C59   1.427316 S    
O73   H21   0.989995 S    
H2    C23   1.083508 S    
C39   C40   1.396659 A    
C10   N9    1.434871 S    
N10   O66   1.300916 A    
C27   C28   1.425936 S    
O10   Cr2   1.920564 S    
N3    O31   1.301533 A    
Cr1   O13   1.977108 S    
O1    C3    1.269899 A    
C51   C52   1.421766 A    
O14   Cr4   2.033930 S    
N11   O77   1.301926 A    
C49   C50   1.406061 A    
S7    O63   1.682571 S    
S5    O51   1.503622 D    
C60   C61   1.413206 A    
O6    C3    1.274922 A    
S13   O87   1.682651 S    
S12   O82   1.503031 D    
C71   C75   1.425103 A    
C26   H5    1.083236 S    
C30   C79   1.484807 S    
C56   C57   1.203820 T    
C1    O3    1.270036 A    
O76   H22   0.990490 S    
C78   C84   1.427754 S    
C8    C12   1.412167 A    
N9    O64   1.301157 A    
C7    C15   1.199989 T    
C63   H11   1.083747 S    
C23   C24   1.398937 A    
N10   O67   1.300838 A    
S7    O61   1.502194 D    
C13   C14   1.434551 S    
C62   S8    1.769506 S    
Cr4   O26   1.977101 S    
S2    O40   1.680642 S    
H7    C38   1.082919 S    
O25   Cr6   1.903965 S    
O56   H18   0.990562 S    
O10   C5    1.274064 A    
S11   O81   1.682015 S    
O7    Cr1   2.031409 S    
O17   Cr5   1.912049 S    
C3    C17   1.469810 S    
O12   C6    1.269884 A    
C83   O24   1.265580 A    
C76   C78   1.203150 T    
S10   O74   1.501114 D    
S13   O86   1.502979 D    
O14   C81   1.275216 A    
O43   H15   0.990594 S    
S1    O34   1.503322 D    
O16   Cr5   2.031256 S    
C20   C21   1.392358 A    
S10   O75   1.503163 D    
C41   C42   1.437750 S    
C74   C77   1.438257 S    
O20   Cr4   2.019248 S    
C69   C77   1.202079 T    
C60   C64   1.410428 A    
C60   S7    1.783948 S    
C47   N8    1.431678 S    
Cr6   O26   1.972209 S    
C63   C64   1.398758 A    
C48   C57   1.442233 S    
C65   C66   1.443326 S    
S6    O54   1.503231 D    
C37   N3    1.441458 S    
C64   C67   1.437792 S    
C61   N10   1.435201 S    
N1    O27   1.301287 A    
C72   N11   1.443066 S    
C24   C30   1.430007 A    
N4    O37   1.301273 A    
C5    C45   1.492868 S    
C39   C44   1.403757 A    
S4    O44   1.502620 D    
Cr5   O26   1.969567 S    
O20   C84   1.268178 A    
O9    Cr2   2.018412 S    
C40   S2    1.770546 S    
O2    Cr1   1.916030 S    
C53   C54   1.386328 A    
C12   C15   1.437046 S    
C24   S12   1.779056 S    
C51   C55   1.416308 A    
Cr2   O13   1.972239 S    
C55   C56   1.441457 S    
S1    O35   1.682493 S    
O6    Cr3   1.917682 S    
C5    O11   1.279072 A    
O8    C4    1.272671 A    
O19   C81   1.274482 A    
C2    O5    1.264336 A    
O18   Cr6   2.021762 S    
O3    Cr2   2.037209 S    
S12   O83   1.503835 D    
C73   H12   1.084682 S    
C25   H6    1.081684 S    
C72   C73   1.395425 A    
C38   C44   1.400085 A    
C40   C41   1.409592 A    
C18   S13   1.780346 S    
N6    O50   1.301134 A    
O2    C1    1.286552 A    
C34   C35   1.387388 A    
C46   C47   1.411833 A    
O5    Cr3   2.026795 S    
O21   C82   1.274243 A    
C14   C16   1.200120 T    
O19   Cr6   1.921456 S    
C68   C82   1.429846 S    
C33   C34   1.405262 A    
S11   O79   1.502512 D    
C62   C65   1.406506 A    
O21   Cr4   1.915873 S    
C25   C30   1.412603 A    
O7    C6    1.267771 A    
C28   C29   1.197346 T    
C2    C7    1.422541 S    
C33   S3    1.779736 S    
S4    O45   1.503599 D    
C11   S11   1.789991 S    
N11   O78   1.301196 A    
S8    O68   1.502902 D    
S10   O76   1.680807 S    
S3    O42   1.503298 D    
C37   C41   1.415807 A    
O70   H20   0.990524 S    
H3    C21   1.084646 S    
O12   Cr3   1.910352 S    
S1    O33   1.502528 D    
S11   O80   1.503161 D    
C44   C81   1.474996 S    
C54   C55   1.404385 A    
C19   C20   1.408076 A    
O22   Cr5   2.027484 S    
C53   H10   1.083176 S    
C34   C43   1.435074 S    
S9    O71   1.503067 D    
C72   C75   1.412117 A    
C4    O9    1.266377 A    
C10   C13   1.405434 A    
N2    O30   1.301307 A    
N7    O57   1.298346 A    
C19   N2    1.436269 S    
C79   O16   1.291233 A    
C45   C50   1.420057 A    
S9    O72   1.503488 D    
C46   S6    1.781846 S    
C4    C69   1.427211 S    
C50   S5    1.780324 S    
O63   H19   0.990410 S    
O40   H14   0.990619 S    
C23   C27   1.392846 A    
S13   O85   1.503140 D    
C70   C74   1.410911 A    
N8    O59   1.300572 A    
C20   C29   1.428851 S    
C9    H1    1.084977 S    
C49   N6    1.438305 S    
N1    O28   1.301350 A    
C36   S1    1.779380 S    
