data_mof_unit_24469.cif
_audit_creation_date              2012-12-10T16:38:43-0500
_audit_creation_method            fapswitch 2.2
_symmetry_space_group_name_H-M    P1
_symmetry_Int_Tables_number       1
_space_group_crystal_system       triclinic
_cell_length_a                    10.916403
_cell_length_b                    10.914145
_cell_length_c                    17.650674
_cell_angle_alpha                 97.869547
_cell_angle_beta                  73.135923
_cell_angle_gamma                 98.709183
_cell_volume                      1979.68120885

loop_
_atom_site_label
_atom_site_type_symbol
_atom_type_description
_atom_site_fract_x
_atom_site_fract_y
_atom_site_fract_z
_atom_type_partial_charge
C1    C     C_R   0.158715 0.479312 0.516896 0.500888
C2    C     C_R   0.579459 0.372733 0.917048 -0.131522
C3    C     C_R   0.646749 0.315197 0.955160 -0.082891
C4    C     C_R   0.843350 0.520482 0.482349 0.542817
C5    C     C_R   0.624349 0.334969 0.038183 0.016955
C6    C     C_R   0.524635 0.407226 0.082399 0.032631
C7    C     C_R   0.701166 0.287432 0.077611 0.053930
C8    C     C_R   0.685867 0.322846 0.159984 0.039197
C9    C     C_R   0.516533 0.446291 0.162541 -0.110592
C10   C     C_2   0.980235 0.537584 0.479773 0.027490
C11   C     C_2   0.024345 0.466669 0.521663 -0.017478
C12   C     C_R   0.286833 0.627489 0.842389 -0.108928
C13   C     C_2   0.540190 0.966292 0.474265 0.004764
C14   C     C_2   0.458312 0.039532 0.527825 0.028504
C15   C     C_R   0.467828 0.169298 0.518541 0.537844
C16   C     C_R   0.530380 0.833005 0.482403 0.518559
C17   C     C_R   0.564987 0.435607 0.287625 0.533272
C18   C     C_R   0.438053 0.564292 0.712568 0.549829
C19   C     C_R   0.403456 0.582610 0.800426 0.023237
C20   C     C_R   0.594406 0.404813 0.201278 -0.001827
C21   C     C_R   0.242110 0.628012 0.925192 0.030456
C22   C     C_2   0.098463 0.518551 0.077795 0.255372
C23   C     C_R   0.482309 0.550882 0.843506 -0.006162
C24   C     C_2   0.797283 0.201340 0.033333 0.624934
C25   C     C_2   0.065540 0.638607 0.433117 0.564337
C26   C     C_2   0.952056 0.352580 0.558060 0.276124
C27   C     C_2   0.640446 0.017194 0.404647 0.580225
C28   C     C_2   0.372975 0.003552 0.605784 0.595567
C29   C     C_2   0.761784 0.271096 0.203334 0.606992
C30   C     C_2   0.141967 0.710221 0.968780 0.304119
C31   C     C_2   0.625852 0.579803 0.814267 0.247584
C32   C     C_2   0.245204 0.421926 0.161299 0.551201
C33   C     C_R   0.423351 0.518021 0.922380 -0.027910
C34   C     C_R   0.301087 0.557879 0.964532 0.001380
C35   C     C_R   0.483538 0.448171 0.960476 0.007008
C36   C     C_R   0.440955 0.446142 0.043785 0.025879
C37   C     C_R   0.313043 0.472586 0.083891 0.028886
C38   C     C_R   0.240756 0.522512 0.042870 -0.020032
H1    H     H_    0.451018 0.512345 0.195691 0.144907
H2    H     H_    0.356352 0.935917 0.709609 0.352994
H3    H     H_    0.834763 0.121039 0.220399 0.362462
H4    H     H_    0.129611 0.740262 0.031429 0.123883
H5    H     H_    0.686410 0.572785 0.852098 0.133565
H6    H     H_    0.144353 0.454903 0.275761 0.369535
H7    H     H_    0.721367 0.261352 0.918038 0.168384
H8    H     H_    0.232796 0.666453 0.810696 0.187054
H9    H     H_    0.601896 0.355759 0.852917 0.131680
H10   H     H_    0.057611 0.542709 0.140800 0.186754
H11   H     H_    0.980312 0.160686 0.005670 0.363435
H12   H     H_    0.212470 0.777627 0.424062 0.348961
H13   H     H_    0.957449 0.336040 0.616194 0.109482
H14   H     H_    0.777026 0.157233 0.362805 0.357244
O1    O     O_3   0.500000 0.500000 0.500000 -0.489523
O2    O     O_R   0.470800 0.371790 0.332500 -0.520588
O3    O     O_R   0.380610 0.619380 0.674980 -0.547022
O4    O     O_R   0.632640 0.524780 0.317540 -0.494404
O5    O     O_R   0.515950 0.484050 0.674980 -0.504198
O6    O     O_2   0.025059 0.484205 0.036380 -0.452615
O7    O     O_2   0.764131 0.107043 0.994593 -0.478013
O8    O     O_R   0.924609 0.226560 0.037681 -0.610991
O9    O     O_2   0.048036 0.659084 0.370870 -0.443651
O10   O     O_R   0.162603 0.712720 0.461057 -0.660429
O11   O     O_2   0.895525 0.272184 0.520974 -0.421776
O12   O     O_R   0.535460 0.243030 0.556410 -0.494817
O13   O     O_2   0.664205 0.954922 0.340136 -0.458813
O14   O     O_R   0.709833 0.134487 0.413502 -0.643945
O15   O     O_2   0.259874 0.022340 0.625629 -0.481942
O16   O     O_R   0.423712 0.955303 0.658166 -0.652618
O17   O     O_2   0.811660 0.339297 0.249901 -0.496236
O18   O     O_R   0.776681 0.144221 0.190395 -0.628839
O19   O     O_2   0.074017 0.747708 0.934881 -0.459463
O20   O     O_2   0.678305 0.620436 0.750137 -0.466479
O21   O     O_2   0.243282 0.311463 0.167831 -0.460547
O22   O     O_R   0.186116 0.500685 0.226693 -0.681711
O23   O     O_R   0.437420 0.784080 0.535340 -0.500833
O24   O     O_R   0.223560 0.397520 0.472140 -0.530500
O25   O     O_R   0.803560 0.575360 0.436110 -0.486744
O26   O     O_R   0.209690 0.568800 0.556400 -0.492093
O27   O     O_R   0.763190 0.458310 0.535350 -0.495539
O28   O     O_R   0.414000 0.207090 0.472140 -0.524271
O29   O     O_R   0.613120 0.765800 0.436110 -0.499543
Zn1   Zn    Zn3+2 0.577310 0.422690 0.565550 1.044272
Zn2   Zn    Zn3+2 0.403760 0.371330 0.445150 1.013828
Zn3   Zn    Zn3+2 0.634990 0.589920 0.423760 1.065820
Zn4   Zn    Zn3+2 0.383940 0.616050 0.565540 1.011248

loop_
_geom_bond_atom_site_label_1
_geom_bond_atom_site_label_2
_ccdc_geom_bond_type
C2    C35   A    
C22   H10   S    
C16   O23   A    
C35   C36   A    
C1    C11   S    
C6    C9    A    
C30   O19   D    
C7    C8    A    
C8    C20   A    
H11   O8    S    
C31   H5    S    
O1    Zn3   S    
C8    C29   S    
C36   C37   A    
C28   O16   S    
C32   O22   S    
C5    C6    A    
C7    C24   S    
C22   C38   S    
C9    H1    S    
C17   C20   S    
C18   C19   S    
C18   O5    A    
O23   Zn4   S    
C23   C33   A    
C15   O12   A    
C13   C14   D    
C1    O26   A    
O28   Zn2   S    
O24   Zn2   S    
O2    Zn2   S    
O4    Zn3   S    
C29   O17   D    
C28   O15   D    
C4    O27   A    
C12   H8    S    
C32   O21   D    
C5    C7    A    
C21   C34   A    
O25   Zn3   S    
C12   C21   A    
C3    H7    S    
O1    Zn1   S    
C23   C31   S    
O3    Zn4   S    
C19   C23   A    
C26   O11   D    
C37   C38   A    
C27   O13   D    
C9    C20   A    
C15   O28   A    
C14   C15   S    
C24   O8    S    
C33   C34   A    
C25   O9    D    
C32   C37   S    
H6    O22   S    
C17   O4    A    
O12   Zn1   S    
C18   O3    A    
C10   C25   S    
C31   O20   D    
H12   O10   S    
C4    C10   S    
O29   Zn3   S    
H14   O14   S    
O26   Zn4   S    
C29   O18   S    
C34   C38   A    
C1    O24   A    
C30   H4    S    
C3    C5    A    
C22   O6    D    
O27   Zn1   S    
C2    H9    S    
C21   C30   S    
C11   C26   S    
O1    Zn2   S    
C2    C3    A    
C4    O25   A    
C27   O14   S    
C26   H13   S    
C24   O7    D    
C12   C19   A    
C16   O29   A    
C33   C35   A    
C6    C36   A    
C25   O10   S    
C10   C11   D    
H2    O16   S    
C13   C16   S    
O5    Zn1   S    
C13   C27   S    
O1    Zn4   S    
C14   C28   S    
C17   O2    A    
H3    O18   S    
