data_mof_unit_11036.cif
_audit_creation_date              2012-12-11T14:39:19-0500
_audit_creation_method            fapswitch 2.2
_symmetry_space_group_name_H-M    P1
_symmetry_Int_Tables_number       1
_space_group_crystal_system       triclinic
_cell_length_a                    7.219366
_cell_length_b                    13.869268
_cell_length_c                    16.658987
_cell_angle_alpha                 90.094598
_cell_angle_beta                  96.026209
_cell_angle_gamma                 89.508762
_cell_volume                      1658.74079585

loop_
_atom_site_label
_atom_site_type_symbol
_atom_type_description
_atom_site_fract_x
_atom_site_fract_y
_atom_site_fract_z
_atom_type_partial_charge
O1    O     O_R   0.525340 0.338340 0.164530 -0.504717
O2    O     O_R   0.474660 0.661660 0.835470 -0.508439
O3    O     O_R   0.974660 0.838340 0.835470 -0.510387
O4    O     O_R   0.025340 0.161660 0.164530 -0.508639
O5    O     O_R   0.253520 0.352000 0.336710 -0.542475
O6    O     O_R   0.746480 0.648000 0.663290 -0.542945
O7    O     O_R   0.246480 0.852000 0.663290 -0.542476
O8    O     O_R   0.753520 0.148000 0.336710 -0.540272
O9    O     O_R   0.083330 0.168380 0.337300 -0.547858
O10   O     O_R   0.916670 0.831620 0.662700 -0.555878
O11   O     O_R   0.416670 0.668380 0.662700 -0.557144
O12   O     O_R   0.583330 0.331620 0.337300 -0.558100
C1    C     C_R   0.430275 0.372547 0.361341 0.715336
C2    C     C_R   0.569686 0.627038 0.638925 0.713157
C3    C     C_R   0.068959 0.872672 0.638806 0.715866
C4    C     C_R   0.930872 0.127213 0.361044 0.720611
O13   O     O_R   0.195840 0.349670 0.165140 -0.513042
O14   O     O_R   0.804160 0.650330 0.834860 -0.494401
O15   O     O_R   0.304160 0.849670 0.834860 -0.490340
O16   O     O_R   0.695840 0.150330 0.165140 -0.481517
C5    C     C_R   0.356354 0.365672 0.134231 0.890364
C6    C     C_R   0.643257 0.632470 0.864952 0.952583
C7    C     C_R   0.141771 0.866680 0.865424 0.948049
C8    C     C_R   0.860870 0.126640 0.139117 0.916574
O17   O     O_3   0.387830 0.193120 0.250910 -0.347933
O18   O     O_3   0.612170 0.806880 0.749090 -0.374894
O19   O     O_3   0.112170 0.693120 0.749090 -0.377775
O20   O     O_3   0.887830 0.306880 0.250910 -0.381739
V1    V     V_3+5 0.113010 0.264540 0.250910 1.692899
V2    V     V_3+5 0.886990 0.735460 0.749090 1.690766
V3    V     V_3+5 0.386990 0.764540 0.749090 1.693207
V4    V     V_3+5 0.613010 0.235460 0.250910 1.722945
C9    C     C_R   0.909436 0.198007 0.518990 -0.239868
C10   C     C_R   0.097609 0.804558 0.480405 -0.240939
C11   C     C_R   0.595090 0.695423 0.481104 -0.242350
C12   C     C_R   0.404123 0.303875 0.518973 -0.237533
C13   C     C_R   0.910386 0.239692 0.594434 -0.240120
C14   C     C_R   0.095367 0.763777 0.404414 -0.244637
C15   C     C_R   0.592639 0.736713 0.405561 -0.238992
C16   C     C_R   0.405085 0.262592 0.594440 -0.245847
C17   C     C_R   0.967643 0.186833 0.662982 0.473361
C18   C     C_R   0.026754 0.815716 0.336717 0.484469
C19   C     C_R   0.531292 0.684459 0.337332 0.479511
C20   C     C_R   0.465522 0.314735 0.662837 0.474661
C21   C     C_R   0.021151 0.089542 0.656719 0.277456
C22   C     C_R   0.963830 0.911105 0.344567 0.310773
C23   C     C_R   0.475480 0.588194 0.343941 0.275364
C24   C     C_R   0.522478 0.410932 0.656321 0.277835
C25   C     C_R   0.005939 0.041913 0.579746 -0.075665
C26   C     C_R   0.988549 0.958994 0.421094 -0.081788
C27   C     C_R   0.492844 0.540767 0.420812 -0.082264
C28   C     C_R   0.506294 0.458491 0.579492 -0.081154
C29   C     C_R   0.957852 0.099694 0.509586 0.010612
C30   C     C_R   0.042927 0.901815 0.490764 0.008506
C31   C     C_R   0.543954 0.598002 0.490820 0.012422
C32   C     C_R   0.455549 0.401280 0.509432 0.011363
C33   C     C_R   0.040970 0.940964 0.569553 -0.075114
C34   C     C_R   0.957588 0.059939 0.430974 -0.074161
C35   C     C_R   0.457167 0.440440 0.430831 -0.077607
C36   C     C_R   0.542613 0.558884 0.569492 -0.075213
H1    H     H_    0.868070 0.244487 0.468087 0.140118
H2    H     H_    0.145426 0.758526 0.530807 0.144013
H3    H     H_    0.639076 0.741598 0.531767 0.143306
H4    H     H_    0.360522 0.257773 0.468210 0.142772
H5    H     H_    0.871444 0.314893 0.599350 0.177969
H6    H     H_    0.140146 0.689621 0.398580 0.177574
H7    H     H_    0.632909 0.811294 0.400394 0.180433
H8    H     H_    0.363794 0.188135 0.599458 0.176446
C37   C     C_2   0.141561 0.932852 0.935630 -0.240143
C38   C     C_2   0.865795 0.053436 0.074096 -0.267450
C39   C     C_2   0.350205 0.434749 0.066650 -0.239386
C40   C     C_2   0.649465 0.561118 0.931412 -0.217156
C41   C     C_2   0.009476 0.933898 0.988968 0.321223
C42   C     C_2   0.022002 0.003672 0.056655 0.351978
C43   C     C_2   0.493737 0.450183 0.021284 0.334553
C44   C     C_2   0.507732 0.545131 0.977667 0.297609
H9    H     H_    0.734881 0.040701 0.037315 0.187020
H10   H     H_    0.254409 0.984457 0.943524 0.185026
H11   H     H_    0.772472 0.515643 0.937880 0.198887
H12   H     H_    0.225952 0.479129 0.058919 0.203599
Cl1   Cl    Cl    0.013650 0.756828 0.242569 -0.433539
Cl2   Cl    Cl    0.977928 0.247067 0.756574 -0.450544
Cl3   Cl    Cl    0.474726 0.254797 0.756354 -0.397185
Cl4   Cl    Cl    0.518318 0.744187 0.243821 -0.450558
Cl5   Cl    Cl    0.131085 0.038105 0.745704 -0.607865
Cl6   Cl    Cl    0.819413 0.957224 0.261662 -0.565750
Cl7   Cl    Cl    0.357734 0.538290 0.256185 -0.575877
Cl8   Cl    Cl    0.640270 0.460590 0.744015 -0.584356
S1    S     S_3+6 0.240459 0.005913 0.116906 0.076324
O21   O     O_2   0.340460 0.096201 0.097923 -0.320003
O22   O     O_2   0.214739 0.003030 0.205254 -0.305343
O23   O     O_3   0.370027 0.910149 0.095463 -0.449313
H13   H     H_    0.475411 0.910529 0.138454 0.438019
S2    S     S_3+6 0.836231 0.844795 0.991718 0.062796
O24   O     O_2   0.678239 0.867062 0.928295 -0.308695
O25   O     O_2   0.916759 0.747323 0.976877 -0.326793
O26   O     O_3   0.757305 0.843977 0.082988 -0.445446
H14   H     H_    0.709557 0.778014 0.089393 0.435522
S3    S     S_3+6 0.344166 0.639715 0.992448 0.048188
O27   O     O_2   0.421673 0.736682 0.975503 -0.304597
O28   O     O_2   0.172418 0.621579 0.935673 -0.318739
O29   O     O_3   0.288087 0.642474 0.087853 -0.439222
H15   H     H_    0.207282 0.700190 0.090604 0.445964
S4    S     S_3+6 0.650159 0.352540 0.004763 0.027304
O30   O     O_2   0.825273 0.363698 0.061146 -0.355397
O31   O     O_2   0.562008 0.257364 0.019827 -0.314962
O32   O     O_3   0.705226 0.351054 0.909292 -0.434314
H16   H     H_    0.803025 0.300637 0.908611 0.421518

loop_
_geom_bond_atom_site_label_1
_geom_bond_atom_site_label_2
_ccdc_geom_bond_type
O1    C5    A    
O13   V1    S    
C41   C42   S    
C7    C37   S    
O3    C7    A    
C40   C44   D    
C20   Cl3   S    
O15   V3    S    
S4    O31   D    
O26   H14   S    
C8    C38   S    
C44   S3    S    
C26   C30   A    
C5    C39   S    
C42   S1    S    
O20   V1    S    
O9    C4    A    
C14   C18   A    
C40   H11   S    
O10   C3    A    
O4    C8    A    
O11   C2    A    
C10   H2    S    
C25   C33   A    
C18   C22   A    
S4    O30   D    
C28   C36   A    
C14   H6    S    
C13   H5    S    
C38   C42   D    
O32   H16   S    
C24   Cl8   S    
C37   C41   D    
O14   V2    S    
S1    O22   D    
O5    C1    A    
O4    V1    S    
O9    V1    S    
O17   V4    S    
O7    C3    A    
O11   V3    S    
O18   V3    S    
O8    C4    A    
O14   C6    A    
C31   C36   A    
O12   V4    S    
C38   H9    S    
C19   Cl4   S    
C3    C33   S    
C37   H10   S    
S2    O24   D    
C18   Cl1   S    
C41   S2    S    
C6    C40   S    
C39   H12   S    
O5    V1    S    
C9    C29   A    
O7    V3    S    
C11   C31   A    
C26   C34   A    
O16   C8    A    
C12   C16   A    
C24   C28   A    
O19   V2    S    
O15   C7    A    
C15   C19   A    
S2    O26   S    
O1    V4    S    
O13   C5    A    
O2    V3    S    
O8    V4    S    
O3    V2    S    
C11   C15   A    
C43   C44   S    
O2    C6    A    
C12   C32   A    
O6    C2    A    
O10   V2    S    
S3    O27   D    
C21   C25   A    
C4    C34   S    
S1    O23   S    
S2    O25   D    
O6    V2    S    
C10   C30   A    
C43   S4    S    
C27   C35   A    
O16   V4    S    
S3    O28   D    
C10   C14   A    
C15   H7    S    
C23   C27   A    
C29   C34   A    
C1    C35   S    
C2    C36   S    
C22   C26   A    
C32   C35   A    
C21   Cl5   S    
C39   C43   D    
C25   C29   A    
C17   Cl2   S    
O23   H13   S    
C27   C31   A    
C13   C17   A    
O29   H15   S    
C9    C13   A    
C28   C32   A    
C16   C20   A    
S3    O29   S    
O12   C1    A    
C9    H1    S    
C16   H8    S    
C17   C21   A    
C11   H3    S    
S1    O21   D    
C12   H4    S    
C19   C23   A    
S4    O32   S    
C20   C24   A    
C23   Cl7   S    
C22   Cl6   S    
C30   C33   A    
