data_mof_unit_7348.cif
_audit_creation_date              2012-12-10T17:50:30-0500
_audit_creation_method            fapswitch 2.2
_symmetry_space_group_name_H-M    P1
_symmetry_Int_Tables_number       1
_space_group_crystal_system       triclinic
_cell_length_a                    15.70666
_cell_length_b                    10.584393
_cell_length_c                    9.920598
_cell_angle_alpha                 91.301617
_cell_angle_beta                  89.478503
_cell_angle_gamma                 92.430834
_cell_volume                      1647.29046066

loop_
_atom_site_label
_atom_site_type_symbol
_atom_type_description
_atom_site_fract_x
_atom_site_fract_y
_atom_site_fract_z
_atom_type_partial_charge
C1    C     C_R   0.514044 0.262742 0.498240 0.951064
C2    C     C_R   0.635890 0.086086 0.834530 -0.126997
C3    C     C_R   0.631714 0.954946 0.839454 0.450944
C4    C     C_R   0.338068 0.499972 0.500528 0.964080
C5    C     C_R   0.599929 0.883350 0.729834 -0.220206
C6    C     C_R   0.567084 0.942272 0.615546 0.056079
C7    C     C_R   0.571119 0.075545 0.611155 0.056895
C8    C     C_R   0.541986 0.133673 0.493546 -0.235989
C9    C     C_R   0.536136 0.062738 0.372008 0.433871
C10   C     C_R   0.528003 0.934037 0.378241 -0.205000
C11   C     C_R   0.533670 0.873990 0.501585 -0.180826
C12   C     C_3   0.082949 0.496922 0.498053 0.103568
C13   C     C_R   0.354932 0.388187 0.130335 0.354724
C14   C     C_R   0.279855 0.373203 0.054386 0.321641
C15   C     C_R   0.287119 0.356992 0.914017 -0.175486
C16   C     C_R   0.510047 0.740309 0.501333 0.898729
C17   C     C_R   0.367593 0.375838 0.855685 -0.240086
C18   C     C_R   0.433528 0.440329 0.926191 0.105201
C19   C     C_R   0.430993 0.442709 0.070255 0.049362
C20   C     C_R   0.565210 0.554195 0.072006 -0.033685
C21   C     C_R   0.564897 0.554831 0.929084 -0.073860
C22   C     C_R   0.662022 0.500219 0.499487 0.857785
C23   C     C_3   0.974749 0.616683 0.504645 -0.220380
C24   C     C_3   0.969366 0.432846 0.604639 -0.119943
C25   C     C_3   0.025105 0.376561 0.490549 -0.141033
C26   C     C_1   0.249148 0.498585 0.501328 -0.070527
C27   C     C_1   0.750978 0.498373 0.498237 -0.142642
C28   C     C_3   0.028774 0.553237 0.611994 -0.154277
C29   C     C_2   0.214407 0.314583 0.826406 0.997374
C30   C     C_2   0.062819 0.630395 0.271782 0.968660
C31   C     C_3   0.917227 0.496076 0.497204 0.144884
C32   C     C_3   0.030050 0.559317 0.391866 -0.002687
C33   C     C_3   0.970966 0.439556 0.382896 -0.159824
C34   C     C_1   0.173822 0.497406 0.500491 0.054155
C35   C     C_1   0.826312 0.496852 0.497526 -0.022626
C36   C     C_R   0.608099 0.145982 0.720522 -0.216242
Cl1   Cl    Cl    0.670554 0.879737 0.980865 -0.617528
Cl2   Cl    Cl    0.356563 0.269417 0.250802 -0.476835
Cl3   Cl    Cl    0.181692 0.343162 0.139704 -0.499389
Cl4   Cl    Cl    0.539901 0.126183 0.208485 -0.529324
H1    H     H_    0.047657 0.278580 0.484909 0.172235
H2    H     H_    0.054359 0.599291 0.705687 0.181437
H3    H     H_    0.620343 0.247016 0.717064 0.185786
H4    H     H_    0.663424 0.141874 0.917301 0.195933
H5    H     H_    0.176015 0.231015 0.650999 0.344037
H6    H     H_    0.164378 0.695061 0.164025 0.358590
H7    H     H_    0.606287 0.782731 0.733967 0.179902
H8    H     H_    0.514797 0.881562 0.285149 0.221175
H9    H     H_    0.618325 0.599011 0.125891 0.174250
H10   H     H_    0.377674 0.340786 0.755252 0.260960
H11   H     H_    0.618049 0.599586 0.876061 0.164347
H12   H     H_    0.942272 0.380815 0.692109 0.171528
H13   H     H_    0.945513 0.393599 0.289056 0.180748
H14   H     H_    0.952305 0.714763 0.509798 0.171780
N1    N     N_R   0.499210 0.498800 0.142780 -0.104033
N2    N     N_R   0.499180 0.498720 0.857170 -0.112234
O1    O     O_R   0.500000 0.316780 0.614690 -0.648327
O2    O     O_R   0.230177 0.253969 0.702442 -0.810804
O3    O     O_2   0.012330 0.674183 0.194294 -0.596092
O4    O     O_R   0.150459 0.646260 0.248739 -0.778027
O5    O     O_R   0.499990 0.316750 0.385360 -0.510126
O6    O     O_R   0.376780 0.500000 0.614650 -0.639639
O7    O     O_R   0.376770 0.499980 0.385310 -0.576794
O8    O     O_R   0.500010 0.683250 0.614640 -0.619186
O9    O     O_R   0.500000 0.683220 0.385310 -0.621376
O10   O     O_R   0.623230 0.500020 0.614690 -0.647665
O11   O     O_R   0.623220 0.500000 0.385350 -0.613966
O12   O     O_2   0.141066 0.334852 0.859917 -0.572858
Zn1   Zn    Zn3+2 0.500010 0.500020 0.653130 0.948810
Zn2   Zn    Zn3+2 0.499990 0.499980 0.346870 1.035986

loop_
_geom_bond_atom_site_label_1
_geom_bond_atom_site_label_2
_ccdc_geom_bond_type
C17   H10   S    
C24   H12   S    
C21   N2    A    
C4    C26   S    
C24   C25   S    
C31   C33   S    
C6    C7    A    
C12   C32   S    
C1    O1    A    
C29   O12   D    
C27   C35   T    
C9    C10   A    
O7    Zn2   S    
C18   N2    A    
C12   C25   S    
O11   Zn2   S    
H6    O4    S    
C30   O3    D    
C17   C18   A    
C24   C31   S    
C32   C33   S    
C7    C8    A    
O5    Zn2   S    
C25   H1    S    
O8    Zn1   S    
C23   C32   S    
C30   C32   S    
O6    Zn1   S    
C5    H7    S    
C4    O7    A    
C13   Cl2   S    
C20   H9    S    
C12   C28   S    
C20   N1    A    
C29   O2    S    
C28   H2    S    
C15   C29   S    
C2    C3    A    
C22   C27   S    
C9    Cl4   S    
C10   H8    S    
C5    C6    A    
C33   H13   S    
C24   C28   S    
C31   C35   S    
C22   O11   A    
O10   Zn1   S    
C10   C11   A    
C13   C19   A    
C2    C36   A    
H5    O2    S    
N1    Zn2   S    
C4    O6    A    
C21   H11   S    
C1    O5    A    
C20   C21   A    
C3    Cl1   S    
C23   H14   S    
N2    Zn1   S    
C7    C36   A    
C2    H4    S    
C6    C11   A    
C15   C17   A    
C19   N1    A    
C14   C15   A    
C18   C19   A    
C36   H3    S    
C16   O9    A    
C16   O8    A    
C13   C14   A    
O1    Zn1   S    
C14   Cl3   S    
C23   C28   S    
C12   C34   S    
C26   C34   T    
C11   C16   S    
C22   O10   A    
O9    Zn2   S    
C1    C8    S    
C25   C33   S    
C8    C9    A    
C3    C5    A    
C23   C31   S    
C30   O4    S    
