data_mof_unit_7137.cif
_audit_creation_date              2013-03-05T16:03:41-0500
_audit_creation_method            fapswitch 2.2
_symmetry_space_group_name_H-M    P1
_symmetry_Int_Tables_number       1
_space_group_crystal_system       triclinic
_cell_length_a                    8.731102
_cell_length_b                    10.805153
_cell_length_c                    9.534091
_cell_angle_alpha                 89.894621
_cell_angle_beta                  98.028762
_cell_angle_gamma                 90.225972
_cell_volume                      890.630595481

loop_
_atom_site_label
_atom_site_type_symbol
_atom_site_description
_atom_site_fract_x
_atom_site_fract_y
_atom_site_fract_z
_atom_type_partial_charge
O1    O     O_R   0.499990 0.319660 0.618740 -0.555931
O2    O     O_R   0.500010 0.680340 0.381260 -0.555931
O3    O     O_R   0.499990 0.319630 0.381170 -0.523060
O4    O     O_R   0.500010 0.680370 0.618830 -0.523060
C1    C     C_R   0.502454 0.262364 0.500474 0.964815
C2    C     C_R   0.497546 0.737636 0.499526 0.964816
O5    O     O_R   0.274840 0.500010 0.591370 -0.581304
O6    O     O_R   0.725160 0.499990 0.408630 -0.581304
O7    O     O_R   0.274830 0.499980 0.353800 -0.546357
O8    O     O_R   0.725170 0.500020 0.646200 -0.546357
C3    C     C_R   0.203747 0.499750 0.463679 0.906833
C4    C     C_R   0.796253 0.500249 0.536321 0.906832
Cu1   Cu    Cu3+1 0.500000 0.500020 0.640660 1.097661
Cu2   Cu    Cu3+1 0.500000 0.499980 0.359340 1.097661
N1    N     N_R   0.500040 0.500030 0.852080 -0.264830
N2    N     N_R   0.499960 0.499970 0.147920 -0.264830
C5    C     C_2   0.037818 0.499776 0.443751 -0.249068
C6    C     C_2   0.962182 0.500224 0.556249 -0.249068
H1    H     H_    0.977667 0.499474 0.335906 0.191067
H2    H     H_    0.022333 0.500526 0.664094 0.191067
C7    C     C_R   0.598802 0.063139 0.418223 0.194909
C8    C     C_R   0.401197 0.936861 0.581776 0.194909
C9    C     C_R   0.591563 0.934437 0.416329 0.558239
C10   C     C_R   0.408437 0.065563 0.583670 0.558239
C11   C     C_R   0.494615 0.871520 0.498209 -0.400312
C12   C     C_R   0.505385 0.128480 0.501791 -0.400312
C13   C     C_R   0.401581 0.424699 0.061658 0.735924
C14   C     C_R   0.598419 0.575301 0.938342 0.735925
C15   C     C_R   0.401684 0.424871 0.913009 -0.170854
C16   C     C_R   0.598316 0.575129 0.086991 -0.170855
H3    H     H_    0.323024 0.364588 0.846888 0.222274
H4    H     H_    0.676976 0.635412 0.153112 0.222274
N3    N     N_R   0.705980 0.125828 0.340588 0.186861
O9    O     O_R   0.797783 0.210960 0.401651 -0.349422
O10   O     O_R   0.723770 0.089098 0.213981 -0.221919
N4    N     N_R   0.294018 0.874172 0.659410 0.186861
O11   O     O_R   0.202217 0.789039 0.598347 -0.349424
O12   O     O_R   0.276224 0.910904 0.786015 -0.221917
F1    F     F_    0.686284 0.870108 0.341338 -0.589181
F2    F     F_    0.313715 0.129892 0.658661 -0.589181
F3    F     F_    0.302827 0.348589 0.118431 -0.606345
F4    F     F_    0.697173 0.651411 0.881569 -0.606345

loop_
_geom_bond_atom_site_label_1
_geom_bond_atom_site_label_2
_geom_bond_distance
_ccdc_geom_bond_type
C5    C6    1.335823 D    
C16   H4    1.081855 S    
O7    Cu2   1.959304 S    
Cu2   N2    2.015648 S    
C13   C15   1.417351 A    
C8    N4    1.438409 S    
C13   F3    1.354950 S    
O6    C4    1.286978 A    
N2    C13   1.369412 A    
C14   C16   1.417351 A    
N3    O9    1.301286 A    
C15   H3    1.081855 S    
Cu1   Cu2   2.682131 S    
O5    C3    1.286977 A    
O7    C3    1.290058 A    
N3    O10   1.301271 A    
N1    C14   1.369412 A    
O2    C2    1.290182 A    
O3    Cu2   1.959413 S    
O8    C4    1.290060 A    
C9    F1    1.360086 S    
C8    C10   1.391868 A    
N4    O12   1.301271 A    
N4    O11   1.301286 A    
C10   F2    1.360086 S    
C7    C12   1.409485 A    
C10   C12   1.402202 A    
N1    C15   1.366213 A    
C6    H2    1.087284 S    
Cu1   N1    2.015650 S    
C7    C9    1.391868 A    
O2    Cu2   1.960373 S    
O1    C1    1.290182 A    
C2    C11   1.446965 S    
O1    Cu1   1.960372 S    
N2    C16   1.366213 A    
C1    C12   1.446965 S    
O5    Cu1   1.956404 S    
C9    C11   1.402202 A    
C7    N3    1.438409 S    
O4    C2    1.291446 A    
C4    C6    1.434598 S    
O4    Cu1   1.959414 S    
C3    C5    1.434598 S    
O6    Cu2   1.956402 S    
C14   F4    1.354949 S    
C5    H1    1.087284 S    
C8    C11   1.409487 A    
O3    C1    1.291445 A    
O8    Cu1   1.959302 S    
