data_mof_unit_49353.cif
_audit_creation_date              2012-12-10T19:04:10-0500
_audit_creation_method            fapswitch 2.2
_symmetry_space_group_name_H-M    P1
_symmetry_Int_Tables_number       1
_space_group_crystal_system       triclinic
_cell_length_a                    10.628353
_cell_length_b                    10.867816
_cell_length_c                    9.54979
_cell_angle_alpha                 90.188091
_cell_angle_beta                  89.592589
_cell_angle_gamma                 90.099313
_cell_volume                      1103.03200557

loop_
_atom_site_label
_atom_site_type_symbol
_atom_type_description
_atom_site_fract_x
_atom_site_fract_y
_atom_site_fract_z
_atom_type_partial_charge
C1    C     C_R   0.498775 0.262773 0.499664 0.800931
C2    C     C_3   0.960530 0.494600 0.365943 -0.148895
C3    C     C_3   0.041585 0.398949 0.440677 0.306995
C4    C     C_3   0.122765 0.500610 0.502008 -0.034442
C5    C     C_R   0.483682 0.062904 0.620100 0.005290
C6    C     C_R   0.496379 0.130256 0.497742 -0.093353
C7    C     C_R   0.507342 0.064188 0.370752 -0.211682
C8    C     C_R   0.507799 0.935119 0.371235 -0.207775
C9    C     C_R   0.497105 0.870083 0.498634 -0.092498
C10   C     C_R   0.483890 0.938780 0.620750 -0.020907
C11   C     C_3   0.472485 0.931119 0.776898 0.031752
C12   C     C_R   0.259440 0.500294 0.500567 0.789364
C13   C     C_3   0.470514 0.074091 0.775308 0.080406
C14   C     C_R   0.608961 0.518422 0.072809 0.257078
C15   C     C_R   0.394654 0.470546 0.074884 -0.110942
C16   C     C_R   0.394592 0.470777 0.926355 -0.082515
C17   C     C_R   0.609305 0.516969 0.925497 0.262479
C18   C     C_3   0.694235 0.625926 0.917976 -0.517292
C19   C     C_3   0.691386 0.629596 0.076921 -0.509973
C20   C     C_R   0.499285 0.737346 0.500065 0.793203
C21   C     C_R   0.740638 0.499401 0.499523 0.791999
C22   C     C_3   0.039190 0.504729 0.634098 -0.184688
C23   C     C_3   0.957203 0.400227 0.571573 -0.214196
C24   C     C_3   0.877381 0.498723 0.498614 -0.013484
C25   C     C_3   0.956764 0.602929 0.561737 -0.159870
C26   C     C_3   0.042349 0.598590 0.429697 -0.210597
Cu1   Cu    Cu3+1 0.499990 0.499980 0.640670 0.940739
Cu2   Cu    Cu3+1 0.500010 0.500020 0.359330 0.934857
H1    H     H_    0.920020 0.318406 0.627642 0.127883
H2    H     H_    0.558166 0.891925 0.825388 0.110186
H3    H     H_    0.553904 0.118745 0.823811 0.110708
H4    H     H_    0.308768 0.447468 0.129974 0.163420
H5    H     H_    0.308651 0.448385 0.872183 0.153970
H6    H     H_    0.788259 0.601810 0.874203 0.197516
H7    H     H_    0.649071 0.706399 0.868449 0.207275
H8    H     H_    0.784407 0.610386 0.124054 0.191755
H9    H     H_    0.642189 0.711728 0.120164 0.207258
H10   H     H_    0.073789 0.509717 0.743402 0.138803
H11   H     H_    0.918118 0.687232 0.611845 0.127399
H12   H     H_    0.080024 0.679759 0.372799 0.136845
H13   H     H_    0.927483 0.487979 0.256298 0.124190
H14   H     H_    0.516826 0.111442 0.271532 0.159937
H15   H     H_    0.517819 0.887013 0.272330 0.151660
N1    N     N_R   0.500800 0.500930 0.147930 -0.185792
N2    N     N_R   0.500800 0.500890 0.852020 -0.185078
O1    O     O_R   0.500000 0.319640 0.618810 -0.564230
O2    O     O_R   0.500010 0.319680 0.381230 -0.586675
O3    O     O_R   0.316850 0.499950 0.618770 -0.594130
O4    O     O_R   0.316860 0.499990 0.381190 -0.581599
O5    O     O_R   0.499990 0.680320 0.618770 -0.581044
O6    O     O_R   0.500000 0.680360 0.381190 -0.583585
O7    O     O_R   0.683140 0.500010 0.618810 -0.584139
O8    O     O_R   0.683150 0.500050 0.381230 -0.587266
N3    N     N_2   0.351189 0.130568 0.814032 -0.380647
H16   H     H_    0.272150 0.095940 0.765491 0.269074
C27   C     C_3   0.334035 0.158698 0.961008 -0.653582
H17   H     H_    0.253487 0.222707 0.973957 0.210985
H18   H     H_    0.419389 0.203566 0.004312 0.220828
H19   H     H_    0.313002 0.073882 0.020752 0.236511
N4    N     N_2   0.093306 0.289270 0.376241 -0.433495
H20   H     H_    0.157751 0.245286 0.438796 0.241516
C28   C     C_3   0.001374 0.206498 0.316795 -0.716796
H21   H     H_    0.050407 0.128804 0.264083 0.229377
H22   H     H_    0.943818 0.254947 0.237617 0.231657
H23   H     H_    0.939016 0.169159 0.400398 0.219723
N5    N     N_2   0.354963 0.874827 0.822662 -0.394322
H24   H     H_    0.310448 0.821164 0.748612 0.266021
C29   C     C_3   0.359639 0.816755 0.958541 -0.682102
H25   H     H_    0.262966 0.791863 0.993033 0.220450
H26   H     H_    0.401397 0.879714 0.037343 0.219505
H27   H     H_    0.417409 0.732100 0.952497 0.238047

loop_
_geom_bond_atom_site_label_1
_geom_bond_atom_site_label_2
_ccdc_geom_bond_type
Cu1   O3    S    
C8    C9    A    
N5    C29   S    
Cu2   O2    S    
C3    C23   S    
C8    H15   S    
C12   O3    A    
C12   O4    A    
C7    C8    A    
C23   H1    S    
C17   N2    A    
C15   N1    A    
C20   O6    A    
C19   H8    S    
C5    C6    A    
Cu2   O6    S    
C1    O1    A    
C2    H13   S    
C15   C16   A    
C22   H10   S    
C27   H17   S    
N4    C28   S    
C18   C19   S    
C7    H14   S    
C28   H22   S    
C19   H9    S    
C11   H2    S    
C29   H25   S    
C22   C25   S    
C20   O5    A    
C23   C24   S    
C4    C12   S    
C18   H7    S    
C5    C13   S    
C11   N5    S    
C3    N4    S    
Cu1   N2    S    
N5    H24   S    
C14   C17   A    
N3    C27   S    
C1    C6    S    
C15   H4    S    
C24   C25   S    
C1    O2    A    
C25   C26   S    
Cu2   N1    S    
N4    H20   S    
C28   H21   S    
C16   H5    S    
C4    C22   S    
Cu2   O4    S    
C9    C20   S    
C17   C18   S    
C2    C26   S    
C18   H6    S    
Cu1   O1    S    
C2    C24   S    
C3    C4    S    
Cu1   O7    S    
C14   N1    A    
C13   N3    S    
C9    C10   A    
N3    H16   S    
C28   H23   S    
C14   C19   S    
C13   H3    S    
C16   N2    A    
C4    C26   S    
Cu2   O8    S    
Cu1   O5    S    
C6    C7    A    
C27   H19   S    
C2    C3    S    
C5    C10   A    
C25   H11   S    
C21   O8    A    
C11   C13   S    
C26   H12   S    
C29   H27   S    
C27   H18   S    
C10   C11   S    
C29   H26   S    
C21   C24   S    
Cu1   Cu2   S    
C22   C23   S    
C21   O7    A    
