data_mof_unit_66343.cif
_audit_creation_date              2013-03-05T16:46:37-0500
_audit_creation_method            fapswitch 2.2
_symmetry_space_group_name_H-M    P1
_symmetry_Int_Tables_number       1
_space_group_crystal_system       triclinic
_cell_length_a                    26.425036
_cell_length_b                    33.004264
_cell_length_c                    21.184788
_cell_angle_alpha                 89.991503
_cell_angle_beta                  128.82774
_cell_angle_gamma                 90.000067
_cell_volume                      14393.5011209

loop_
_atom_site_label
_atom_site_type_symbol
_atom_site_description
_atom_site_fract_x
_atom_site_fract_y
_atom_site_fract_z
_atom_type_partial_charge
Zn1   Zn    Zn3+2 0.574840 0.281480 0.562930 1.010611
Zn2   Zn    Zn3+2 0.425160 0.718520 0.437070 1.009327
Zn3   Zn    Zn3+2 0.425160 0.281480 0.437070 1.010848
Zn4   Zn    Zn3+2 0.574840 0.718520 0.562930 1.009108
Zn5   Zn    Zn3+2 0.074840 0.781480 0.562930 1.009291
Zn6   Zn    Zn3+2 0.925160 0.218520 0.437070 1.012682
Zn7   Zn    Zn3+2 0.925160 0.781480 0.437070 1.008930
Zn8   Zn    Zn3+2 0.074840 0.218520 0.562930 1.029283
Zn9   Zn    Zn3+2 0.511910 0.218550 0.437070 1.010104
Zn10  Zn    Zn3+2 0.488090 0.781450 0.562930 1.020031
Zn11  Zn    Zn3+2 0.488090 0.218550 0.562930 1.002931
Zn12  Zn    Zn3+2 0.511910 0.781450 0.437070 1.021080
Zn13  Zn    Zn3+2 0.011910 0.718550 0.437070 1.009588
Zn14  Zn    Zn3+2 0.988090 0.281450 0.562930 1.018605
Zn15  Zn    Zn3+2 0.988090 0.718550 0.562930 1.010222
Zn16  Zn    Zn3+2 0.011910 0.281450 0.437070 1.023863
O1    O     O_3   0.500000 0.250010 0.500000 -0.450692
O2    O     O_3   0.500000 0.749990 0.500000 -0.452769
O3    O     O_3   0.000000 0.750010 0.500000 -0.451471
O4    O     O_3   0.000000 0.249990 0.500000 -0.456395
O5    O     O_R   0.491650 0.166000 0.544070 -0.622099
O6    O     O_R   0.508350 0.834000 0.455930 -0.617090
O7    O     O_R   0.508350 0.166000 0.455930 -0.617645
O8    O     O_R   0.491650 0.834000 0.544070 -0.618017
O9    O     O_R   0.991650 0.666000 0.544070 -0.618453
O10   O     O_R   0.008350 0.334000 0.455930 -0.618709
O11   O     O_R   0.008350 0.666000 0.455930 -0.618308
O12   O     O_R   0.991650 0.334000 0.544070 -0.619034
O13   O     O_R   0.552380 0.334020 0.544040 -0.617683
O14   O     O_R   0.447620 0.665980 0.455960 -0.627381
O15   O     O_R   0.447620 0.334020 0.455960 -0.622958
O16   O     O_R   0.552380 0.665980 0.544040 -0.627099
O17   O     O_R   0.052380 0.834020 0.544040 -0.619996
O18   O     O_R   0.947620 0.165980 0.455960 -0.634517
O19   O     O_R   0.947620 0.834020 0.455960 -0.618685
O20   O     O_R   0.052380 0.165980 0.544040 -0.607060
O21   O     O_R   0.593780 0.227990 0.455960 -0.637587
O22   O     O_R   0.406220 0.772010 0.544040 -0.635074
O23   O     O_R   0.406220 0.227990 0.544040 -0.640932
O24   O     O_R   0.593780 0.772010 0.455960 -0.634704
O25   O     O_R   0.093780 0.727990 0.455960 -0.637435
O26   O     O_R   0.906220 0.272010 0.544040 -0.634280
O27   O     O_R   0.906220 0.727990 0.544040 -0.637328
O28   O     O_R   0.093780 0.272010 0.455960 -0.635687
O29   O     O_R   0.362170 0.272040 0.455960 -0.637951
O30   O     O_R   0.637830 0.727960 0.544040 -0.638219
O31   O     O_R   0.637830 0.272040 0.544040 -0.630193
O32   O     O_R   0.362170 0.727960 0.455960 -0.638788
O33   O     O_R   0.862170 0.772040 0.455960 -0.630148
O34   O     O_R   0.137830 0.227960 0.544040 -0.648274
O35   O     O_R   0.137830 0.772040 0.544040 -0.631791
O36   O     O_R   0.862170 0.227960 0.455960 -0.638364
O37   O     O_R   0.446360 0.228000 0.332000 -0.621582
O38   O     O_R   0.553640 0.772000 0.668000 -0.623378
O39   O     O_R   0.553640 0.228000 0.668000 -0.621744
O40   O     O_R   0.446360 0.772000 0.332000 -0.623493
O41   O     O_R   0.946360 0.728000 0.332000 -0.620632
O42   O     O_R   0.053640 0.272000 0.668000 -0.625085
O43   O     O_R   0.053640 0.728000 0.668000 -0.620801
O44   O     O_R   0.946360 0.272000 0.332000 -0.621786
O45   O     O_R   0.385640 0.272040 0.331990 -0.621293
O46   O     O_R   0.614360 0.727960 0.668010 -0.625692
O47   O     O_R   0.614360 0.272040 0.668010 -0.630426
O48   O     O_R   0.385640 0.727960 0.331990 -0.624755
O49   O     O_R   0.885640 0.772040 0.331990 -0.630878
O50   O     O_R   0.114360 0.227960 0.668010 -0.614263
O51   O     O_R   0.114360 0.772040 0.668010 -0.628216
O52   O     O_R   0.885640 0.227960 0.331990 -0.626011
C1    C     C_R   0.500003 0.145605 0.500007 0.804923
C2    C     C_R   0.500001 0.854396 0.499998 0.811391
C3    C     C_R   0.999998 0.645605 0.500002 0.804301
C4    C     C_R   0.999997 0.354396 0.499993 0.809209
C5    C     C_R   0.500047 0.354466 0.499993 0.849498
C6    C     C_R   0.500016 0.645531 0.500000 0.831165
C7    C     C_R   0.999996 0.854467 0.499986 0.847848
C8    C     C_R   0.000032 0.145532 0.499968 0.843066
C9    C     C_R   0.641503 0.249999 0.500649 0.846818
C10   C     C_R   0.358447 0.750046 0.499275 0.858750
C11   C     C_R   0.358549 0.250074 0.499493 0.848991
C12   C     C_R   0.641575 0.750075 0.500768 0.858694
C13   C     C_R   0.141466 0.750044 0.500574 0.846990
C14   C     C_R   0.858429 0.250072 0.499237 0.859601
C15   C     C_R   0.858492 0.749998 0.499347 0.846911
C16   C     C_R   0.141118 0.249567 0.499849 0.874413
C17   C     C_R   0.395476 0.250035 0.291141 0.801087
C18   C     C_R   0.604473 0.749934 0.708865 0.811788
C19   C     C_R   0.604489 0.250047 0.708862 0.800024
C20   C     C_R   0.395535 0.749931 0.291135 0.812064
C21   C     C_R   0.895506 0.750050 0.291138 0.798080
C22   C     C_R   0.104483 0.249945 0.708865 0.809814
C23   C     C_R   0.104495 0.750044 0.708862 0.799311
C24   C     C_R   0.895534 0.249935 0.291135 0.815990
C25   C     C_1   0.649550 0.250128 0.798990 -0.115229
C26   C     C_1   0.350470 0.749840 0.201003 -0.080891
C27   C     C_1   0.350264 0.250075 0.201014 -0.121739
C28   C     C_1   0.649553 0.749861 0.798997 -0.082180
C29   C     C_1   0.149578 0.750114 0.798991 -0.115621
C30   C     C_1   0.850462 0.249865 0.201004 -0.079767
C31   C     C_1   0.850437 0.750136 0.201010 -0.114723
C32   C     C_1   0.149589 0.249894 0.799002 -0.099119
C33   C     C_1   0.686898 0.250107 0.873923 0.103206
C34   C     C_1   0.313016 0.749859 0.126065 0.116337
C35   C     C_1   0.312785 0.250053 0.126081 0.075582
C36   C     C_1   0.687006 0.749901 0.873936 0.117166
C37   C     C_1   0.186940 0.750081 0.873924 0.098492
C38   C     C_1   0.813007 0.249904 0.126065 0.118622
C39   C     C_1   0.813090 0.750115 0.126076 0.103455
C40   C     C_1   0.186986 0.249917 0.873940 0.076555
C41   C     C_1   0.731153 0.250044 0.962530 0.108999
C42   C     C_1   0.268668 0.749928 0.037464 0.104097
C43   C     C_1   0.268547 0.250007 0.037479 0.081712
C44   C     C_1   0.731357 0.749979 0.962536 0.105386
C45   C     C_1   0.231189 0.750002 0.962530 0.106144
C46   C     C_1   0.768646 0.249977 0.037464 0.105835
C47   C     C_1   0.768842 0.750049 0.037470 0.109015
C48   C     C_1   0.231173 0.249962 0.962544 0.076368
C49   C     C_1   0.500311 0.399513 0.499998 -0.150408
C50   C     C_1   0.500099 0.600476 0.499979 -0.163614
C51   C     C_1   0.999993 0.899517 0.499917 -0.149730
C52   C     C_1   0.000146 0.100481 0.499953 -0.131976
C53   C     C_1   0.500595 0.436976 0.500112 -0.003970
C54   C     C_1   0.500237 0.563016 0.500005 0.015909
C55   C     C_1   0.000035 0.936979 0.499881 0.002722
C56   C     C_1   0.000203 0.063022 0.499934 0.033665
C57   C     C_1   0.500568 0.481263 0.500106 0.029450
C58   C     C_1   0.500428 0.518726 0.500059 0.034769
C59   C     C_1   0.000135 0.981269 0.499889 0.035218
C60   C     C_1   0.000196 0.018732 0.499908 0.041974
C61   C     C_R   0.256446 0.367103 0.344702 0.018228
C62   C     C_R   0.761842 0.651772 0.698839 0.015167
C63   C     C_R   0.756931 0.346560 0.697139 0.016304
C64   C     C_R   0.239497 0.650375 0.303806 0.014990
C65   C     C_R   0.743097 0.846565 0.302841 0.016840
C66   C     C_R   0.214236 0.129126 0.621788 0.017585
C67   C     C_R   0.255248 0.850237 0.690902 0.015871
C68   C     C_R   0.738290 0.151734 0.301356 0.015268
C69   C     C_R   0.261825 0.341790 0.402276 0.247412
C70   C     C_R   0.755482 0.669428 0.633422 0.229978
C71   C     C_R   0.749610 0.329002 0.631112 0.264838
C72   C     C_R   0.245565 0.668389 0.368763 0.229329
C73   C     C_R   0.750417 0.829003 0.368873 0.264811
C74   C     C_R   0.219170 0.155358 0.573299 0.226735
C75   C     C_R   0.248116 0.831207 0.626109 0.263772
C76   C     C_R   0.744576 0.169398 0.366708 0.229044
C77   C     C_R   0.240293 0.301230 0.382129 -0.133737
C78   C     C_R   0.767667 0.711140 0.634778 -0.098482
C79   C     C_R   0.768404 0.288338 0.635858 -0.140115
C80   C     C_R   0.232925 0.710095 0.366456 -0.098119
C81   C     C_R   0.731582 0.788350 0.364120 -0.140055
C82   C     C_R   0.252584 0.192461 0.605206 -0.099598
C83   C     C_R   0.267271 0.790398 0.633514 -0.138276
C84   C     C_R   0.732374 0.211112 0.365291 -0.098972
C85   C     C_R   0.214175 0.285847 0.304704 0.068435
C86   C     C_R   0.786518 0.735222 0.701218 0.034950
C87   C     C_R   0.795110 0.265449 0.706905 0.053400
C88   C     C_R   0.213803 0.733803 0.299464 0.035938
C89   C     C_R   0.704824 0.765479 0.293054 0.053533
C90   C     C_R   0.281376 0.203373 0.685678 0.052935
C91   C     C_R   0.293887 0.768764 0.705871 0.056186
C92   C     C_R   0.713572 0.235186 0.298850 0.035377
C93   C     C_R   0.209212 0.311285 0.247419 0.197004
C94   C     C_R   0.793664 0.717562 0.767136 0.185465
C95   C     C_R   0.804151 0.283516 0.773733 0.190791
C96   C     C_R   0.206990 0.715794 0.234031 0.185703
C97   C     C_R   0.695778 0.783552 0.226219 0.190222
C98   C     C_R   0.276253 0.177193 0.734199 0.178520
C99   C     C_R   0.302490 0.788243 0.771349 0.190896
C100  C     C_R   0.706485 0.217517 0.232986 0.184763
C101  C     C_R   0.230792 0.351756 0.267844 0.182773
C102  C     C_R   0.781790 0.675759 0.766192 0.197509
C103  C     C_R   0.784124 0.323865 0.768145 0.185093
C104  C     C_R   0.219466 0.674013 0.236009 0.196931
C105  C     C_R   0.715852 0.823889 0.231816 0.185593
C106  C     C_R   0.242734 0.140021 0.702203 0.196216
C107  C     C_R   0.282232 0.828774 0.763158 0.184168
C108  C     C_R   0.718387 0.175712 0.233999 0.197466
C109  C     C_R   0.195071 0.273637 0.445259 -0.179668
C110  C     C_R   0.808357 0.731056 0.561534 -0.165039
C111  C     C_R   0.808586 0.268693 0.562021 -0.191107
C112  C     C_R   0.192037 0.730441 0.439253 -0.165013
C113  C     C_R   0.691408 0.768697 0.437969 -0.191654
C114  C     C_R   0.302104 0.223270 0.549133 -0.184190
C115  C     C_R   0.308262 0.769210 0.561378 -0.190883
C116  C     C_R   0.691655 0.231048 0.438488 -0.165052
H1    H     H_    0.153475 0.293058 0.404227 0.182251
H2    H     H_    0.853766 0.716652 0.610101 0.171936
H3    H     H_    0.854025 0.283049 0.610626 0.179900
H4    H     H_    0.146903 0.715599 0.391220 0.172395
H5    H     H_    0.645962 0.783052 0.389354 0.179878
H6    H     H_    0.342982 0.203150 0.588735 0.170655
H7    H     H_    0.353382 0.784087 0.609356 0.179650
H8    H     H_    0.646253 0.216643 0.389932 0.171383
C117  C     C_R   0.196438 0.248320 0.499242 -0.079973
C118  C     C_R   0.802264 0.750171 0.498102 -0.082761
C119  C     C_R   0.802398 0.249702 0.498433 -0.083558
C120  C     C_R   0.197721 0.750202 0.501875 -0.082423
C121  C     C_R   0.697608 0.749708 0.501576 -0.083545
C122  C     C_R   0.301673 0.249603 0.496956 -0.085175
C123  C     C_R   0.302440 0.749623 0.498521 -0.082636
C124  C     C_R   0.697734 0.250169 0.501897 -0.082634
C125  C     C_R   0.250160 0.222170 0.550719 0.150929
C126  C     C_R   0.742810 0.769037 0.435248 0.110208
C127  C     C_R   0.743161 0.230526 0.436012 0.148974
C128  C     C_R   0.256761 0.769737 0.563895 0.108251
C129  C     C_R   0.756857 0.730539 0.564020 0.148666
C130  C     C_R   0.246697 0.274459 0.443084 0.102042
C131  C     C_R   0.243524 0.729922 0.436751 0.148612
C132  C     C_R   0.757181 0.269034 0.564738 0.110025
C133  C     C_1   0.500005 0.100526 0.500014 -0.134202
C134  C     C_1   0.500003 0.899476 0.499995 -0.130847
C135  C     C_1   0.999995 0.600526 0.500004 -0.131541
C136  C     C_1   0.999995 0.399477 0.499986 -0.130360
C137  C     C_1   0.500005 0.063050 0.500014 0.023772
C138  C     C_1   0.500003 0.936952 0.499998 0.026421
C139  C     C_1   0.999994 0.563051 0.500001 0.025989
C140  C     C_1   0.999994 0.436953 0.499985 0.026672
C141  C     C_1   0.500005 0.018739 0.500010 0.038009
C142  C     C_1   0.500004 0.981264 0.500004 0.038784
C143  C     C_1   0.999993 0.518739 0.499995 0.039767
C144  C     C_1   0.999993 0.481264 0.499989 0.039959
N1    N     N_R   0.222292 0.378389 0.208440 0.261762
O53   O     O_R   0.262451 0.376666 0.192521 -0.329135
O54   O     O_R   0.181952 0.408614 0.180955 -0.307376
N2    N     N_R   0.790085 0.657578 0.833853 0.250677
O55   O     O_R   0.765892 0.674812 0.864913 -0.359350
O56   O     O_R   0.820548 0.623236 0.863561 -0.304972
N3    N     N_R   0.795319 0.342984 0.836610 0.263886
O57   O     O_R   0.756011 0.336068 0.852720 -0.354378
O58   O     O_R   0.837076 0.372435 0.873457 -0.305206
N4    N     N_R   0.211734 0.655519 0.168958 0.250646
O59   O     O_R   0.235958 0.672662 0.137851 -0.357154
O60   O     O_R   0.181745 0.621005 0.139849 -0.301441
N5    N     N_R   0.704654 0.843014 0.163344 0.263644
O61   O     O_R   0.743909 0.836053 0.147168 -0.355432
O62   O     O_R   0.662962 0.872508 0.126558 -0.307220
N6    N     N_R   0.238442 0.112885 0.751785 0.254008
O63   O     O_R   0.183574 0.095519 0.722961 -0.334793
O64   O     O_R   0.290016 0.104120 0.824908 -0.296047
N7    N     N_R   0.292964 0.849298 0.830198 0.264081
O65   O     O_R   0.253393 0.843395 0.846234 -0.346689
O66   O     O_R   0.334584 0.878894 0.865528 -0.305217
N8    N     N_R   0.710171 0.157523 0.166406 0.250780
O67   O     O_R   0.734424 0.174747 0.135407 -0.359208
O68   O     O_R   0.679732 0.123179 0.136710 -0.307131
N9    N     N_2   0.272662 0.408997 0.361696 -0.254379
H9    H     H_    0.265486 0.422590 0.399358 0.269625
C145  C     C_3   0.331111 0.421789 0.375044 -0.565486
H10   H     H_    0.368799 0.430130 0.439661 0.228092
H11   H     H_    0.320050 0.448772 0.337056 0.246392
H12   H     H_    0.350911 0.397624 0.359419 0.245623
N10   N     N_2   0.749763 0.609608 0.698294 -0.244338
H13   H     H_    0.760022 0.591579 0.667843 0.273111
C146  C     C_3   0.687861 0.600094 0.678703 -0.581157
H14   H     H_    0.647490 0.608601 0.615096 0.249608
H15   H     H_    0.682010 0.616299 0.719695 0.249435
H16   H     H_    0.685092 0.567036 0.685860 0.228641
N11   N     N_2   0.740246 0.387949 0.694426 -0.256945
H17   H     H_    0.746220 0.407344 0.661377 0.268767
C147  C     C_3   0.682434 0.395415 0.686454 -0.550022
H18   H     H_    0.643559 0.408054 0.625535 0.226127
H19   H     H_    0.693896 0.417777 0.732891 0.245868
H20   H     H_    0.663842 0.367327 0.694624 0.246089
N12   N     N_2   0.251876 0.608189 0.305225 -0.243156
H21   H     H_    0.241599 0.590361 0.335892 0.272907
C148  C     C_3   0.313931 0.598641 0.325278 -0.579121
H22   H     H_    0.354131 0.607438 0.388749 0.248069
H23   H     H_    0.319837 0.614578 0.284102 0.250245
H24   H     H_    0.316943 0.565531 0.318836 0.228628
N13   N     N_2   0.759843 0.887941 0.305573 -0.256576
H25   H     H_    0.753909 0.907343 0.338645 0.268738
C149  C     C_3   0.817660 0.895361 0.313534 -0.552591
H26   H     H_    0.856585 0.907934 0.374489 0.225649
H27   H     H_    0.806242 0.917762 0.267161 0.245311
H28   H     H_    0.836162 0.867265 0.305254 0.246207
N14   N     N_2   0.182445 0.090966 0.591124 -0.256049
H29   H     H_    0.140982 0.091144 0.531503 0.271151
C150  C     C_3   0.225298 0.057652 0.609465 -0.625804
H30   H     H_    0.246861 0.062094 0.578727 0.242389
H31   H     H_    0.197350 0.028876 0.587787 0.236335
H32   H     H_    0.264730 0.055180 0.675905 0.262092
N15   N     N_2   0.238821 0.891906 0.685742 -0.258760
H33   H     H_    0.245082 0.910289 0.651742 0.264088
C151  C     C_3   0.180921 0.900514 0.676945 -0.547258
H34   H     H_    0.142258 0.912376 0.615205 0.223792
H35   H     H_    0.192356 0.923885 0.721846 0.251475
H36   H     H_    0.162099 0.873123 0.686744 0.245879
N16   N     N_2   0.750404 0.109569 0.301972 -0.243903
H37   H     H_    0.740110 0.091543 0.332397 0.272958
C152  C     C_3   0.812346 0.100056 0.321670 -0.584418
H38   H     H_    0.852674 0.108551 0.385295 0.248181
H39   H     H_    0.818256 0.116271 0.280733 0.250270
H40   H     H_    0.815132 0.067000 0.314527 0.227856
N17   N     N_R   0.291488 0.356926 0.482180 0.212751
O69   O     O_R   0.348568 0.373782 0.524579 -0.391134
O70   O     O_R   0.261284 0.354574 0.512365 -0.380943
N18   N     N_R   0.734101 0.645397 0.564137 0.210179
O71   O     O_R   0.678398 0.626852 0.522631 -0.391027
O72   O     O_R   0.769498 0.642755 0.541127 -0.383088
N19   N     N_R   0.720171 0.351825 0.557851 0.214018
O73   O     O_R   0.664302 0.369426 0.522698 -0.386822
O74   O     O_R   0.748437 0.354523 0.525195 -0.373405
N20   N     N_R   0.267085 0.644731 0.438525 0.210039
O75   O     O_R   0.322959 0.626366 0.480510 -0.392819
O76   O     O_R   0.231613 0.642232 0.461444 -0.383133
N21   N     N_R   0.779890 0.851810 0.442146 0.214093
O77   O     O_R   0.835777 0.869379 0.477295 -0.387179
O78   O     O_R   0.751641 0.854518 0.474822 -0.373023
N22   N     N_R   0.189310 0.144694 0.491066 0.207423
O79   O     O_R   0.126323 0.143828 0.437091 -0.410821
O80   O     O_R   0.224552 0.141113 0.467968 -0.386038
N23   N     N_R   0.218607 0.852743 0.551474 0.212659
O81   O     O_R   0.162553 0.870322 0.515066 -0.393506
O82   O     O_R   0.247152 0.854466 0.519077 -0.377468
N24   N     N_R   0.765911 0.145374 0.435997 0.210384
O83   O     O_R   0.821628 0.126835 0.477590 -0.388534
O84   O     O_R   0.730458 0.142737 0.458927 -0.382917
N25   N     N_2   0.192133 0.244907 0.283427 -0.247839
H41   H     H_    0.174199 0.232717 0.310664 0.252251
C153  C     C_3   0.235201 0.217551 0.283943 -0.611772
H42   H     H_    0.210626 0.187918 0.258104 0.246821
H43   H     H_    0.280209 0.212560 0.346836 0.196136
H44   H     H_    0.248086 0.229682 0.246757 0.244603
N26   N     N_2   0.798885 0.777218 0.701094 -0.290909
H45   H     H_    0.776080 0.796257 0.714739 0.271915
C154  C     C_3   0.866468 0.787262 0.743908 -0.625477
H46   H     H_    0.870721 0.819844 0.734879 0.247384
H47   H     H_    0.886832 0.769161 0.720335 0.228994
H48   H     H_    0.895095 0.781425 0.809807 0.264051
N27   N     N_2   0.812350 0.223951 0.711576 -0.246004
H49   H     H_    0.828615 0.216437 0.679811 0.247514
C155  C     C_3   0.765651 0.195235 0.699626 -0.631027
H50   H     H_    0.785389 0.164063 0.710582 0.251006
H51   H     H_    0.719545 0.197084 0.636557 0.198110
H52   H     H_    0.755699 0.201160 0.742543 0.244733
N28   N     N_2   0.200846 0.775783 0.298564 -0.290512
H53   H     H_    0.223433 0.794787 0.284546 0.272050
C156  C     C_3   0.133121 0.785524 0.255475 -0.625413
H54   H     H_    0.128404 0.818152 0.263668 0.247215
H55   H     H_    0.113004 0.767543 0.279500 0.228953
H56   H     H_    0.104593 0.779282 0.189732 0.264120
N29   N     N_2   0.687544 0.723990 0.288372 -0.246023
H57   H     H_    0.671274 0.716486 0.320137 0.247080
C157  C     C_3   0.734222 0.695252 0.300323 -0.631106
H58   H     H_    0.714463 0.664089 0.289376 0.250785
H59   H     H_    0.780331 0.697086 0.363390 0.198119
H60   H     H_    0.744172 0.701167 0.257398 0.244972
N30   N     N_2   0.309942 0.242486 0.714700 -0.286359
H61   H     H_    0.301509 0.257044 0.750392 0.258536
C158  C     C_3   0.375510 0.246972 0.742075 -0.610972
H62   H     H_    0.376810 0.272455 0.708937 0.239567
H63   H     H_    0.392920 0.219064 0.731620 0.229859
H64   H     H_    0.409341 0.253869 0.807941 0.263339
N31   N     N_2   0.311573 0.727157 0.713271 -0.246131
H65   H     H_    0.327893 0.718662 0.681997 0.246549
C159  C     C_3   0.265247 0.698825 0.703314 -0.630775
H66   H     H_    0.285460 0.667681 0.716617 0.249637
H67   H     H_    0.219179 0.699706 0.640105 0.197403
H68   H     H_    0.255082 0.705976 0.745640 0.244718
N32   N     N_2   0.701206 0.277187 0.298928 -0.289421
H69   H     H_    0.724041 0.296219 0.285310 0.272024
C160  C     C_3   0.633621 0.287248 0.256070 -0.633075
H70   H     H_    0.629368 0.319834 0.265064 0.247672
H71   H     H_    0.613234 0.269160 0.279633 0.229005
H72   H     H_    0.605017 0.281408 0.190179 0.261853
N33   N     N_R   0.178306 0.296692 0.166749 0.236898
O85   O     O_R   0.205211 0.302182 0.132912 -0.339139
O86   O     O_R   0.124078 0.276552 0.127720 -0.304020
N34   N     N_R   0.817082 0.741419 0.837349 0.234550
O87   O     O_R   0.785175 0.773216 0.831193 -0.412987
O88   O     O_R   0.868929 0.730290 0.908452 -0.310197
N35   N     N_R   0.837117 0.261482 0.848658 0.241215
O89   O     O_R   0.815498 0.261965 0.889406 -0.351957
O90   O     O_R   0.888572 0.240140 0.875928 -0.305562
N36   N     N_R   0.183255 0.739242 0.163235 0.234684
O91   O     O_R   0.214553 0.771208 0.168656 -0.412709
O92   O     O_R   0.131699 0.727597 0.092371 -0.309316
N37   N     N_R   0.662763 0.761540 0.151280 0.241002
O93   O     O_R   0.684395 0.761978 0.110544 -0.352230
O94   O     O_R   0.611261 0.740254 0.123997 -0.301558
N38   N     N_R   0.303130 0.189005 0.815029 0.237393
O95   O     O_R   0.267821 0.187415 0.838292 -0.344613
O96   O     O_R   0.363011 0.201345 0.865762 -0.345900
N39   N     N_R   0.335353 0.767471 0.847580 0.239851
O97   O     O_R   0.313589 0.769390 0.888095 -0.350417
O98   O     O_R   0.386966 0.745932 0.876440 -0.301557
N40   N     N_R   0.683100 0.241364 0.162757 0.234267
O99   O     O_R   0.631315 0.230209 0.091638 -0.313939
O100  O     O_R   0.714973 0.273180 0.168919 -0.413622

loop_
_geom_bond_atom_site_label_1
_geom_bond_atom_site_label_2
_geom_bond_distance
_ccdc_geom_bond_type
C122  C130  1.416565 A    
Zn5   O51   1.796615 S    
C156  H54   1.110164 S    
C111  C119  1.399394 A    
O49   C21   1.275462 A    
C63   C103  1.408686 A    
C109  C117  1.398308 A    
C21   C31   1.487459 S    
C72   N20   1.436331 S    
C119  C127  1.415672 A    
C149  H26   1.110087 S    
C117  C125  1.416990 A    
C87   N27   1.427103 S    
N7    O65   1.300859 A    
C27   C35   1.236677 T    
C133  C137  1.236851 T    
N8    O68   1.301246 A    
N16   C152  1.447521 S    
C120  C128  1.416276 A    
C79   C87   1.414855 A    
Zn16  O28   1.962631 S    
C112  C120  1.399383 A    
Zn4   O2    1.860291 S    
C75   C83   1.412527 A    
C124  C132  1.416152 A    
N9    H9    1.031329 S    
Zn13  O25   1.962649 S    
N34   O87   1.300485 A    
N31   C159  1.446963 S    
N20   O76   1.300718 A    
C160  H72   1.110846 S    
C98   C106  1.412978 A    
N26   H45   1.029607 S    
N10   H13   1.031084 S    
C25   C33   1.236705 T    
N28   C156  1.445956 S    
C61   N9    1.425390 S    
O22   C10   1.231865 A    
N24   O83   1.300609 A    
C74   N22   1.434521 S    
C85   C93   1.412453 A    
Zn12  O24   1.962631 S    
N40   O100  1.300480 A    
C160  H71   1.110390 S    
C89   N29   1.427089 S    
C159  H66   1.110158 S    
C78   C86   1.407868 A    
Zn16  O4    1.865525 S    
Zn1   O13   1.794786 S    
O43   C23   1.275160 A    
N4    O60   1.301244 A    
C14   C119  1.470073 S    
Zn4   O16   1.794900 S    
O45   C17   1.275203 A    
C64   N12   1.426231 S    
C102  N2    1.438204 S    
N18   O71   1.300608 A    
Zn7   O3    1.860294 S    
N13   C149  1.448984 S    
N39   O97   1.300170 A    
C62   C70   1.412833 A    
Zn8   O34   1.965467 S    
C156  H56   1.110858 S    
O11   C3    1.277380 A    
O38   C18   1.275065 A    
C145  H12   1.112068 S    
N12   C148  1.447456 S    
C28   C36   1.236777 T    
C137  C141  1.462475 S    
C66   C106  1.410690 A    
C147  H19   1.109431 S    
C51   C55   1.236430 T    
C30   C38   1.236778 T    
Zn10  O22   1.962650 S    
C87   C95   1.411750 A    
C76   N24   1.436352 S    
N33   O85   1.300458 A    
O33   C15   1.222824 A    
Zn6   O4    1.860513 S    
Zn10  O2    1.865744 S    
C12   C121  1.470031 S    
O52   C24   1.275545 A    
C91   C99   1.412077 A    
Zn3   O1    1.860294 S    
C92   C100  1.412310 A    
N28   H53   1.029599 S    
C110  H2    1.084512 S    
C61   C69   1.410014 A    
C26   C34   1.236772 T    
N32   H69   1.029602 S    
Zn5   O35   1.965487 S    
O37   C17   1.275327 A    
C114  H6    1.084024 S    
C82   C125  1.484904 S    
Zn6   O36   1.965480 S    
N24   O84   1.300727 A    
N38   O95   1.301074 A    
C68   C108  1.413396 A    
C158  H62   1.109696 S    
C114  C125  1.394386 A    
O27   C15   1.231707 A    
C40   C48   1.462321 S    
C113  C121  1.399395 A    
O8    C2    1.277396 A    
C62   N10   1.426176 S    
O46   C18   1.275569 A    
C8    C52   1.486882 S    
C37   C45   1.462354 S    
O16   C6    1.273560 A    
C146  H14   1.109025 S    
O14   C6    1.273950 A    
O40   C20   1.275135 A    
Zn13  O41   1.793670 S    
Zn12  O6    1.795520 S    
C96   N36   1.435890 S    
C109  C130  1.393828 A    
N11   H17   1.031192 S    
C50   C54   1.236357 T    
C154  H47   1.110389 S    
N36   O91   1.300445 A    
C80   C131  1.483776 S    
O17   C7    1.273736 A    
C98   N38   1.436575 S    
N21   O78   1.300935 A    
Zn5   O17   1.794786 S    
C84   C127  1.483668 S    
O9    C3    1.277405 A    
C94   N34   1.435794 S    
N5    O61   1.300782 A    
O35   C13   1.222821 A    
C93   C101  1.409714 A    
C67   C75   1.410673 A    
C11   C122  1.469926 S    
C150  H30   1.111504 S    
C151  H36   1.112257 S    
C66   N14   1.424726 S    
N27   C155  1.446886 S    
N4    O59   1.301164 A    
C78   C129  1.483669 S    
C123  C131  1.415818 A    
N22   O80   1.300801 A    
O44   C24   1.275081 A    
C6    C50   1.487013 S    
C20   C26   1.487525 S    
C32   C40   1.236785 T    
C138  C142  1.462482 S    
C89   C97   1.411731 A    
C36   C44   1.462248 S    
C88   N28   1.424463 S    
C100  N40   1.435816 S    
Zn9   O7    1.795402 S    
Zn10  O8    1.795405 S    
C141  C142  1.236828 T    
Zn11  O5    1.795516 S    
O5    C1    1.277403 A    
N26   C154  1.445974 S    
C83   C91   1.414900 A    
Zn11  O23   1.962632 S    
C53   C57   1.461690 S    
N17   O69   1.301022 A    
N19   O74   1.300934 A    
C55   C59   1.461755 S    
C152  H38   1.109025 S    
N7    O66   1.300717 A    
C148  H23   1.110208 S    
C41   C46   1.236700 T    
N3    O58   1.300699 A    
C158  H64   1.110825 S    
N23   O82   1.300939 A    
C2    C134  1.487832 S    
C96   C104  1.412293 A    
C108  N8    1.438203 S    
C100  C108  1.412307 A    
C159  H67   1.109860 S    
C86   C94   1.412292 A    
C140  C144  1.462482 S    
C75   N23   1.437652 S    
C146  H16   1.110239 S    
N15   C151  1.448733 S    
C64   C104  1.413513 A    
Zn1   O1    1.860509 S    
Zn2   O14   1.794787 S    
C157  H59   1.109963 S    
C29   C37   1.236701 T    
C76   C84   1.409998 A    
O30   C12   1.223302 A    
C17   C27   1.487426 S    
C65   C105  1.408699 A    
C70   C78   1.410002 A    
C107  N7    1.432314 S    
C19   C25   1.487459 S    
C99   C107  1.410517 A    
O39   C19   1.275132 A    
C79   C132  1.484552 S    
C9    C124  1.469489 S    
N37   O94   1.301350 A    
C63   C71   1.410913 A    
C1    C133  1.487796 S    
C150  H32   1.111043 S    
C151  H34   1.109954 S    
C68   N16   1.426179 S    
C81   C126  1.484570 S    
O6    C2    1.277423 A    
O18   C8    1.274153 A    
C149  H28   1.112324 S    
O10   C4    1.277421 A    
C121  C129  1.415665 A    
N14   H29   1.029796 S    
C83   C128  1.484577 S    
N23   O81   1.301075 A    
N2    O55   1.301082 A    
N34   O88   1.301132 A    
N31   H65   1.030485 S    
O34   C16   1.222423 A    
N12   H21   1.031108 S    
O50   C22   1.275596 A    
Zn15  O3    1.865523 S    
C110  C118  1.399342 A    
O41   C21   1.275121 A    
C115  C128  1.395075 A    
C69   C77   1.411921 A    
C111  H3    1.084562 S    
C33   C41   1.462352 S    
N35   O89   1.300102 A    
C118  C126  1.416155 A    
Zn4   O46   1.796730 S    
C152  H40   1.110234 S    
C109  H1    1.084603 S    
C35   C43   1.462276 S    
Zn8   O20   1.794900 S    
N25   C153  1.447391 S    
C112  H4    1.084519 S    
C113  H5    1.084566 S    
O26   C14   1.231697 A    
C116  H8    1.084512 S    
C43   C48   1.236734 T    
C112  C131  1.394509 A    
C95   C103  1.410298 A    
C56   C60   1.461749 S    
N18   O72   1.300726 A    
C116  C127  1.394621 A    
N13   H25   1.031191 S    
O12   C4    1.277406 A    
C156  H55   1.110407 S    
C105  N5    1.432340 S    
C145  H11   1.109502 S    
Zn16  O10   1.795516 S    
Zn14  O42   1.793672 S    
Zn13  O3    1.865744 S    
C24   C30   1.487521 S    
Zn14  O4    1.865746 S    
N30   H61   1.031320 S    
Zn1   O31   1.965487 S    
Zn2   O32   1.965480 S    
O21   C9    1.231826 A    
Zn3   O29   1.965461 S    
Zn6   O18   1.794787 S    
C106  N6    1.437839 S    
O23   C11   1.231978 A    
N19   O73   1.301092 A    
C71   N19   1.437715 S    
C139  C143  1.462472 S    
C66   C74   1.410471 A    
N16   H37   1.031083 S    
C94   C102  1.412292 A    
O25   C13   1.231957 A    
O51   C23   1.275420 A    
N8    O67   1.301077 A    
O29   C11   1.223002 A    
C23   C29   1.487464 S    
O42   C22   1.275030 A    
C18   C28   1.487523 S    
C103  N3    1.432335 S    
N9    C145  1.447791 S    
C57   C58   1.236413 T    
C34   C42   1.462242 S    
Zn9   O37   1.793670 S    
C10   C123  1.470100 S    
C59   C60   1.236453 T    
C143  C144  1.236828 T    
Zn11  O39   1.793786 S    
C90   C98   1.412690 A    
N38   O96   1.300904 A    
C111  C132  1.395224 A    
Zn11  O1    1.865523 S    
C82   C90   1.410179 A    
Zn15  O43   1.793786 S    
O28   C16   1.232598 A    
Zn5   O3    1.860509 S    
C64   C72   1.412941 A    
C31   C39   1.236704 T    
C65   C73   1.410924 A    
C74   C82   1.409911 A    
N33   O86   1.301288 A    
N40   O99   1.301133 A    
C92   N32   1.424442 S    
C68   C76   1.412826 A    
C85   N25   1.427968 S    
C62   C102  1.413399 A    
C73   N21   1.437717 S    
N6    O64   1.301253 A    
C154  H46   1.110164 S    
N36   O92   1.301149 A    
O15   C5    1.274556 A    
Zn15  O27   1.962632 S    
C153  H42   1.110077 S    
O13   C5    1.272864 A    
N1    O54   1.300753 A    
N21   O77   1.301090 A    
N5    O62   1.300700 A    
C80   C88   1.407895 A    
C81   C89   1.414852 A    
O48   C20   1.275495 A    
C90   N30   1.425670 S    
C135  C139  1.236851 T    
C157  H58   1.110166 S    
C84   C92   1.407862 A    
Zn8   O50   1.796730 S    
C151  H35   1.109456 S    
N27   H49   1.030425 S    
O7    C1    1.277385 A    
C113  C126  1.395213 A    
C114  C122  1.400432 A    
C155  H50   1.110165 S    
C147  H20   1.112326 S    
C72   C80   1.409997 A    
C73   C81   1.412554 A    
Zn4   O30   1.965467 S    
N29   H57   1.030421 S    
N6    O63   1.301343 A    
C71   C79   1.412549 A    
Zn8   O4    1.860291 S    
C38   C46   1.462250 S    
C61   C101  1.408324 A    
N14   C150  1.445805 S    
C91   N31   1.427139 S    
Zn16  O44   1.793784 S    
N10   C146  1.447514 S    
Zn7   O49   1.796731 S    
C97   C105  1.410291 A    
C110  C129  1.394611 A    
O32   C10   1.223289 A    
C49   C53   1.236442 T    
O20   C8    1.273317 A    
C63   N11   1.425437 S    
N29   C157  1.446879 S    
C101  N1    1.432483 S    
N3    O57   1.300782 A    
N35   O90   1.301347 A    
O24   C12   1.231569 A    
C148  H22   1.108940 S    
Zn14  O26   1.962651 S    
C77   C85   1.416046 A    
Zn6   O52   1.796617 S    
C153  H44   1.110431 S    
C158  H63   1.112188 S    
C86   N26   1.424442 S    
Zn1   O47   1.796615 S    
C22   C32   1.487602 S    
C77   C130  1.484066 S    
C155  H52   1.110810 S    
Zn2   O48   1.796617 S    
Zn3   O45   1.796731 S    
C5    C49   1.486752 S    
C136  C140  1.236868 T    
C7    C51   1.486836 S    
Zn7   O33   1.965461 S    
C70   N18   1.436358 S    
C146  H15   1.110210 S    
C104  N4    1.438200 S    
C116  C124  1.399356 A    
N15   H33   1.031309 S    
C134  C138  1.236865 T    
C115  C123  1.399324 A    
N11   C147  1.448980 S    
C67   C107  1.408664 A    
C54   C58   1.461772 S    
C154  H48   1.110849 S    
Zn3   O15   1.794901 S    
N39   O98   1.301347 A    
C95   N35   1.439754 S    
N30   C158  1.449250 S    
N1    O53   1.300727 A    
C65   N13   1.425439 S    
C16   C117  1.470495 S    
Zn9   O21   1.962649 S    
N32   C160  1.445955 S    
O36   C14   1.223435 A    
C155  H51   1.109951 S    
C42   C45   1.236703 T    
C39   C47   1.462351 S    
N37   O93   1.300104 A    
Zn12  O40   1.793784 S    
Zn9   O1    1.865744 S    
C150  H31   1.110480 S    
C99   N39   1.439883 S    
O31   C9    1.222961 A    
C147  H18   1.110064 S    
N22   O79   1.300823 A    
C149  H27   1.109429 S    
N20   O75   1.300603 A    
C67   N15   1.425540 S    
O47   C19   1.275447 A    
Zn7   O19   1.794901 S    
O19   C7    1.273708 A    
Zn2   O2    1.860513 S    
N2    O56   1.301247 A    
C145  H10   1.109991 S    
C115  H7    1.084563 S    
C160  H70   1.110169 S    
C3    C135  1.487786 S    
C15   C118  1.469456 S    
C69   N17   1.437272 S    
N17   O70   1.300768 A    
C13   C120  1.469420 S    
C4    C136  1.487839 S    
C97   N37   1.439743 S    
C152  H39   1.110214 S    
N25   H41   1.030634 S    
Zn10  O38   1.793672 S    
C148  H24   1.110296 S    
C93   N33   1.438611 S    
C159  H68   1.110829 S    
C88   C96   1.412259 A    
Zn15  O9    1.795516 S    
C157  H60   1.110815 S    
Zn12  O2    1.865523 S    
Zn13  O11   1.795402 S    
C153  H43   1.108923 S    
Zn14  O12   1.795402 S    
C44   C47   1.236699 T    
C52   C56   1.236311 T    
