data_mof_unit_65506.cif
_audit_creation_date              2012-12-10T16:55:20-0500
_audit_creation_method            fapswitch 2.2
_symmetry_space_group_name_H-M    P1
_symmetry_Int_Tables_number       1
_space_group_crystal_system       triclinic
_cell_length_a                    29.366074
_cell_length_b                    30.691602
_cell_length_c                    21.374479
_cell_angle_alpha                 90.028935
_cell_angle_beta                  133.698994
_cell_angle_gamma                 89.958401
_cell_volume                      13927.9345898

loop_
_atom_site_label
_atom_site_type_symbol
_atom_type_description
_atom_site_fract_x
_atom_site_fract_y
_atom_site_fract_z
_atom_type_partial_charge
C1    C     C_R   0.308196 0.190581 0.118489 0.815816
C2    C     C_R   0.618367 0.868301 0.674949 0.009387
C3    C     C_R   0.311476 0.805684 0.257697 -0.129127
C4    C     C_R   0.811100 0.694396 0.257250 -0.127126
C5    C     C_R   0.190748 0.306477 0.744417 -0.130626
C6    C     C_R   0.261970 0.622040 0.885353 -0.130483
C7    C     C_R   0.811407 0.305703 0.257621 -0.129240
C8    C     C_R   0.319729 0.199704 0.329752 -0.143166
C9    C     C_R   0.680376 0.800334 0.670342 -0.144279
C10   C     C_R   0.680082 0.199631 0.670087 -0.143527
C11   C     C_R   0.319883 0.800389 0.329886 -0.141864
C12   C     C_R   0.819266 0.699675 0.329253 -0.166596
C13   C     C_R   0.618205 0.131706 0.674836 0.009358
C14   C     C_R   0.183552 0.301596 0.673163 -0.142872
C15   C     C_R   0.295348 0.586537 0.893493 -0.140190
C16   C     C_R   0.819765 0.300422 0.329772 -0.143456
C17   C     C_R   0.360538 0.172481 0.400947 -0.126590
C18   C     C_R   0.639571 0.827555 0.599142 -0.127199
C19   C     C_R   0.639230 0.172432 0.598875 -0.126755
C20   C     C_R   0.360740 0.827585 0.401102 -0.126167
C21   C     C_R   0.859675 0.672257 0.400196 -0.108252
C22   C     C_R   0.142870 0.328775 0.601852 -0.130300
C23   C     C_R   0.263268 0.551001 0.838450 -0.139272
C24   C     C_R   0.381785 0.868300 0.325156 0.009337
C25   C     C_R   0.860603 0.327622 0.400987 -0.127353
C26   C     C_R   0.391276 0.138733 0.398981 -0.135840
C27   C     C_R   0.608796 0.861287 0.601072 -0.135804
C28   C     C_R   0.608523 0.138718 0.600878 -0.135797
C29   C     C_R   0.391460 0.861292 0.399109 -0.135907
C30   C     C_R   0.890178 0.638392 0.398056 -0.111894
C31   C     C_R   0.111075 0.362053 0.602827 -0.136494
C32   C     C_R   0.197737 0.551492 0.772922 -0.120879
C33   C     C_R   0.891358 0.361316 0.399032 -0.135640
C34   C     C_R   0.365129 0.115623 0.109729 0.199226
C35   C     C_R   0.881087 0.631544 0.324555 -0.011374
C36   C     C_R   0.398732 0.143285 0.101386 -0.129102
C37   C     C_R   0.397220 0.136300 0.035299 -0.123533
C38   C     C_R   0.361941 0.101951 0.977019 -0.103812
C39   C     C_R   0.328419 0.074298 0.985034 -0.148329
C40   C     C_R   0.330138 0.080963 0.051348 -0.038122
C41   C     C_R   0.634825 0.884355 0.890232 0.199011
C42   C     C_R   0.669815 0.919009 0.948633 -0.037969
C43   C     C_R   0.671514 0.925665 0.014930 -0.148380
C44   C     C_R   0.637974 0.898009 0.022910 -0.104313
C45   C     C_R   0.602697 0.863668 0.964610 -0.123168
C46   C     C_R   0.119559 0.368708 0.675905 0.012609
C47   C     C_R   0.601205 0.856691 0.898540 -0.128678
C48   C     C_R   0.634955 0.115664 0.890348 0.199309
C49   C     C_R   0.601317 0.143315 0.898717 -0.129004
C50   C     C_R   0.602892 0.136333 0.964853 -0.123379
C51   C     C_R   0.638270 0.102001 0.023158 -0.103901
C52   C     C_R   0.671830 0.074359 0.015116 -0.148321
C53   C     C_R   0.670047 0.081019 0.948752 -0.038027
C54   C     C_R   0.365058 0.884328 0.109665 0.199477
C55   C     C_R   0.329950 0.918961 0.051235 -0.038622
C56   C     C_R   0.328183 0.925620 0.984886 -0.148951
C57   C     C_R   0.162903 0.587933 0.761271 0.020155
C58   C     C_R   0.361774 0.897990 0.976886 -0.102601
C59   C     C_R   0.397167 0.863668 0.035214 -0.123056
C60   C     C_R   0.398725 0.856686 0.101335 -0.130084
C61   C     C_R   0.865069 0.615610 0.109643 0.197909
C62   C     C_R   0.898629 0.643281 0.101238 -0.126679
C63   C     C_R   0.897066 0.636299 0.035103 -0.121555
C64   C     C_R   0.861779 0.601946 0.976837 -0.103431
C65   C     C_R   0.828302 0.574282 0.984919 -0.147866
C66   C     C_R   0.830072 0.580944 0.051278 -0.038744
C67   C     C_R   0.131311 0.382252 0.887256 0.203412
C68   C     C_R   0.881736 0.368311 0.325118 0.009632
C69   C     C_R   0.169300 0.414276 0.951135 -0.051012
C70   C     C_R   0.169616 0.419379 0.016441 -0.147306
C71   C     C_R   0.131586 0.392887 0.017761 -0.101766
C72   C     C_R   0.093269 0.361211 0.953858 -0.128353
C73   C     C_R   0.093310 0.355669 0.888954 -0.136069
C74   C     C_R   0.055343 0.693449 0.738312 0.203986
C75   C     C_R   0.027408 0.725000 0.673169 -0.064822
C76   C     C_R   0.988939 0.757283 0.662574 -0.159710
C77   C     C_R   0.977613 0.757936 0.716232 -0.105139
C78   C     C_R   0.004828 0.726349 0.780631 -0.128863
C79   C     C_R   0.344263 0.161521 0.255561 0.089139
C80   C     C_R   0.043945 0.694296 0.792147 -0.131549
C81   C     C_R   0.865115 0.384304 0.109709 0.199331
C82   C     C_R   0.830020 0.418935 0.051268 -0.038123
C83   C     C_R   0.828271 0.425583 0.984934 -0.147780
C84   C     C_R   0.861871 0.397943 0.976961 -0.103850
C85   C     C_R   0.897254 0.363625 0.035304 -0.123414
C86   C     C_R   0.898791 0.356654 0.101408 -0.128717
C87   C     C_R   0.655770 0.838491 0.744469 0.089375
C88   C     C_R   0.655649 0.161499 0.744371 0.089228
C89   C     C_R   0.691804 0.809419 0.881512 0.816011
C90   C     C_R   0.344339 0.838508 0.255620 0.088830
C91   C     C_R   0.843949 0.661464 0.255230 0.093378
C92   C     C_R   0.156921 0.338914 0.745474 0.085539
C93   C     C_R   0.195237 0.622574 0.821410 0.083158
C94   C     C_R   0.844300 0.338518 0.255581 0.089244
C95   C     C_R   0.340016 0.157255 0.185517 -0.228823
C96   C     C_R   0.659986 0.842745 0.814486 -0.228949
C97   C     C_R   0.659963 0.157252 0.814472 -0.228960
C98   C     C_R   0.340033 0.842749 0.185526 -0.228717
C99   C     C_R   0.839936 0.657251 0.185403 -0.226487
C100  C     C_R   0.691800 0.190579 0.881509 0.816050
C101  C     C_R   0.160003 0.342660 0.814491 -0.230749
C102  C     C_R   0.160085 0.657002 0.815315 -0.227989
C103  C     C_R   0.840033 0.342748 0.185522 -0.228983
C104  C     C_R   0.368543 0.121664 0.181662 -0.158846
C105  C     C_R   0.631433 0.878324 0.818318 -0.158847
C106  C     C_R   0.631464 0.121692 0.818354 -0.158911
C107  C     C_R   0.368540 0.878305 0.181650 -0.158762
C108  C     C_R   0.868482 0.621662 0.181574 -0.156122
C109  C     C_R   0.129986 0.377498 0.817114 -0.149532
C110  C     C_R   0.093918 0.658270 0.747032 -0.137326
C111  C     C_R   0.308199 0.809421 0.118490 0.815187
C112  C     C_R   0.868571 0.378291 0.181674 -0.158485
C113  C     C_R   0.402059 0.091152 0.248004 0.570304
C114  C     C_R   0.597915 0.908834 0.751973 0.570670
C115  C     C_R   0.597915 0.091191 0.751990 0.570364
C116  C     C_R   0.402091 0.908806 0.248014 0.570209
C117  C     C_R   0.901982 0.591150 0.247909 0.571457
C118  C     C_R   0.096657 0.408134 0.751050 0.553131
C119  C     C_R   0.062924 0.625185 0.685893 0.543188
C120  C     C_R   0.902121 0.408790 0.248041 0.569677
C121  C     C_R   0.408923 0.095994 0.319149 -0.260487
C122  C     C_R   0.808207 0.690585 0.118463 0.814613
C123  C     C_R   0.591078 0.904003 0.680849 -0.260638
C124  C     C_R   0.590995 0.096015 0.680803 -0.260557
C125  C     C_R   0.409005 0.903986 0.319196 -0.260448
C126  C     C_R   0.908665 0.595926 0.318906 -0.262315
C127  C     C_R   0.091149 0.403953 0.680925 -0.249733
C128  C     C_R   0.096655 0.590431 0.692087 -0.233475
C129  C     C_R   0.909000 0.403982 0.319197 -0.261446
C130  C     C_R   0.941893 0.438114 0.384025 0.880702
C131  C     C_R   0.061749 0.558257 0.623209 0.882284
C132  C     C_R   0.058208 0.438145 0.616115 0.844731
C133  C     C_R   0.191831 0.309391 0.881526 0.817526
C134  C     C_R   0.941795 0.561855 0.383923 0.905240
C135  C     C_R   0.441889 0.938120 0.384015 0.878374
C136  C     C_R   0.558110 0.061881 0.615983 0.878323
C137  C     C_R   0.558139 0.938122 0.615994 0.878275
C138  C     C_R   0.441859 0.061875 0.384001 0.878337
C139  C     C_R   0.334510 0.250094 0.999869 0.788232
C140  C     C_R   0.665493 0.749902 0.000138 0.788784
C141  C     C_R   0.665476 0.250107 0.000103 0.788889
C142  C     C_R   0.334529 0.749890 0.999905 0.788082
C143  C     C_R   0.834517 0.750092 0.999882 0.788679
C144  C     C_R   0.191720 0.690617 0.881560 0.816589
C145  C     C_R   0.165489 0.249909 0.000130 0.791483
C146  C     C_R   0.165522 0.750117 0.000196 0.790686
C147  C     C_R   0.834525 0.249892 0.999897 0.788950
C148  C     C_1   0.385739 0.250430 0.999762 -0.202278
C149  C     C_1   0.614274 0.749557 0.000263 -0.201606
C150  C     C_1   0.614212 0.250457 0.000142 -0.201768
C151  C     C_1   0.385807 0.749523 0.999896 -0.201760
C152  C     C_1   0.885784 0.750420 0.999851 -0.201780
C153  C     C_1   0.114287 0.249553 0.000288 -0.197513
C154  C     C_1   0.114435 0.750441 0.000584 -0.195933
C155  C     C_R   0.808202 0.309420 0.118489 0.815959
C156  C     C_1   0.885792 0.249539 0.999866 -0.201556
C157  C     C_1   0.428233 0.250588 0.999768 -0.017905
C158  C     C_1   0.571788 0.749390 0.000273 -0.017119
C159  C     C_1   0.571704 0.250610 0.000107 -0.017548
C160  C     C_1   0.428327 0.749356 0.999954 -0.017437
C161  C     C_1   0.928337 0.750583 0.999973 -0.016886
C162  C     C_1   0.071806 0.249378 0.000309 -0.018403
C163  C     C_1   0.072019 0.750578 0.000734 -0.017896
C164  C     C_1   0.928309 0.249378 0.999917 -0.017304
C165  C     C_1   0.478690 0.250626 0.999875 -0.002608
C166  C     C_R   0.381668 0.131709 0.325077 0.009310
C167  C     C_1   0.521340 0.749341 0.000184 -0.001930
C168  C     C_1   0.521240 0.250633 0.999988 -0.002485
C169  C     C_1   0.478793 0.749329 0.000079 -0.002072
C170  C     C_1   0.978878 0.750624 0.000248 -0.001110
C171  C     C_1   0.021345 0.249343 0.000193 -0.003632
C172  C     C_1   0.021502 0.750623 0.000507 -0.002927
C173  C     C_1   0.978785 0.249344 0.000061 -0.002122
C174  C     C_R   0.311384 0.194391 0.257610 -0.129150
C175  C     C_R   0.688680 0.805633 0.742453 -0.129225
C176  C     C_R   0.688500 0.194331 0.742284 -0.129113
Cu1   Cu    Cu3+1 0.280720 0.280980 0.061500 0.953101
Cu2   Cu    Cu3+1 0.957580 0.500000 0.500070 1.023542
Cu3   Cu    Cu3+1 0.542420 0.000000 0.499930 1.025123
Cu4   Cu    Cu3+1 0.457580 0.000000 0.500070 1.026450
Cu5   Cu    Cu3+1 0.719280 0.719020 0.938500 0.953586
Cu6   Cu    Cu3+1 0.719280 0.280980 0.938500 0.953069
Cu7   Cu    Cu3+1 0.280720 0.719020 0.061500 0.948228
Cu8   Cu    Cu3+1 0.780720 0.780980 0.061500 0.953169
Cu9   Cu    Cu3+1 0.219280 0.219020 0.938500 0.953382
Cu10  Cu    Cu3+1 0.219280 0.780980 0.938500 0.961943
Cu11  Cu    Cu3+1 0.780720 0.219020 0.061500 0.953331
Cu12  Cu    Cu3+1 0.042420 0.500000 0.499930 1.019972
F1    F     F_    0.428108 0.056280 0.242996 -0.618288
F2    F     F_    0.571842 0.943696 0.756962 -0.618047
F3    F     F_    0.571908 0.056342 0.757033 -0.618176
F4    F     F_    0.428104 0.943653 0.242974 -0.618306
F5    F     F_    0.928172 0.556334 0.243019 -0.618577
F6    F     F_    0.069539 0.442449 0.755412 -0.656135
F7    F     F_    0.999169 0.627033 0.619641 -0.690179
F8    F     F_    0.928165 0.443624 0.243028 -0.618407
H1    H     H_    0.278244 0.215921 0.203439 0.140815
H2    H     H_    0.705404 0.774795 0.669518 0.134882
H3    H     H_    0.705061 0.225153 0.669208 0.135248
H4    H     H_    0.294893 0.774873 0.330757 0.137426
H5    H     H_    0.794378 0.725310 0.330143 0.137817
H6    H     H_    0.209275 0.276375 0.673032 0.135648
H7    H     H_    0.346319 0.586460 0.943217 0.137321
H8    H     H_    0.794753 0.274914 0.330615 0.135310
H9    H     H_    0.367910 0.177222 0.457597 0.135831
H10   H     H_    0.632229 0.822823 0.542514 0.135371
H11   H     H_    0.631801 0.177164 0.542183 0.135680
H12   H     H_    0.721814 0.784104 0.796629 0.140695
H13   H     H_    0.368161 0.822856 0.457789 0.136841
H14   H     H_    0.866891 0.676913 0.456746 0.166757
H15   H     H_    0.136336 0.324326 0.545827 0.136282
H16   H     H_    0.289268 0.523058 0.846095 0.135820
H17   H     H_    0.867987 0.322904 0.457645 0.135626
H18   H     H_    0.422951 0.118697 0.456239 0.132024
H19   H     H_    0.577122 0.881319 0.543808 0.131994
H20   H     H_    0.576813 0.118698 0.543608 0.131945
H21   H     H_    0.423174 0.881309 0.456383 0.132147
H22   H     H_    0.921247 0.618079 0.454834 0.199900
H23   H     H_    0.721676 0.215837 0.796468 0.140873
H24   H     H_    0.079400 0.381943 0.545367 0.137154
H25   H     H_    0.175057 0.522784 0.732735 0.148829
H26   H     H_    0.923058 0.381333 0.456308 0.134265
H27   H     H_    0.426432 0.169890 0.146416 0.112815
H28   H     H_    0.423663 0.157339 0.029485 0.136961
H29   H     H_    0.360821 0.096647 0.925905 0.130165
H30   H     H_    0.301364 0.047570 0.940146 0.122414
H31   H     H_    0.304350 0.059153 0.057362 0.128255
H32   H     H_    0.695616 0.940821 0.942646 0.128253
H33   H     H_    0.698568 0.952388 0.059834 0.122255
H34   H     H_    0.278299 0.784180 0.203509 0.141390
H35   H     H_    0.639078 0.903307 0.074010 0.129749
H36   H     H_    0.576239 0.842626 0.970395 0.137104
H37   H     H_    0.573507 0.830091 0.853495 0.113306
H38   H     H_    0.573540 0.169907 0.853668 0.112791
H39   H     H_    0.576419 0.157362 0.970686 0.136896
H40   H     H_    0.639439 0.096699 0.074308 0.129920
H41   H     H_    0.698962 0.047642 0.060023 0.122259
H42   H     H_    0.695860 0.059216 0.942714 0.128185
H43   H     H_    0.304114 0.940756 0.057244 0.128092
H44   H     H_    0.301039 0.952328 0.939960 0.122423
H45   H     H_    0.778154 0.716028 0.203194 0.142090
H46   H     H_    0.360620 0.903292 0.925747 0.130835
H47   H     H_    0.423661 0.842645 0.029411 0.137347
H48   H     H_    0.426514 0.830103 0.146404 0.112896
H49   H     H_    0.926327 0.669893 0.146246 0.114791
H50   H     H_    0.923473 0.657346 0.029235 0.138463
H51   H     H_    0.860615 0.596647 0.925682 0.130259
H52   H     H_    0.801239 0.547551 0.940041 0.122457
H53   H     H_    0.804310 0.559130 0.057334 0.127958
H54   H     H_    0.198622 0.435138 0.950318 0.125256
H55   H     H_    0.199111 0.443998 0.065783 0.131923
H56   H     H_    0.223637 0.284913 0.798656 0.139923
H57   H     H_    0.131611 0.397017 0.068074 0.131302
H58   H     H_    0.063372 0.341077 0.954484 0.137696
H59   H     H_    0.063468 0.331020 0.839742 0.116975
H60   H     H_    0.035354 0.724473 0.630657 0.125067
H61   H     H_    0.967570 0.781607 0.612405 0.129429
H62   H     H_    0.947479 0.782761 0.707608 0.129011
H63   H     H_    0.995253 0.726569 0.821233 0.138990
H64   H     H_    0.064645 0.669883 0.842058 0.121384
H65   H     H_    0.804177 0.440737 0.057256 0.127918
H66   H     H_    0.801136 0.452288 0.939998 0.122317
H67   H     H_    0.289195 0.649059 0.929049 0.139936
H68   H     H_    0.860731 0.403235 0.925834 0.129474
H69   H     H_    0.923760 0.342599 0.029526 0.136656
H70   H     H_    0.926571 0.330073 0.146486 0.112925
H71   H     H_    0.778243 0.284196 0.203433 0.140845
H72   H     H_    0.294729 0.225255 0.330604 0.135604
O1    O     O_R   0.321010 0.231060 0.142100 -0.584512
O2    O     O_R   0.730960 0.821350 0.961860 -0.572522
O3    O     O_R   0.730960 0.178650 0.961860 -0.572367
O4    O     O_R   0.269040 0.821350 0.038140 -0.573998
O5    O     O_R   0.769040 0.678650 0.038140 -0.572755
O6    O     O_R   0.230960 0.321350 0.961860 -0.573521
O7    O     O_R   0.230960 0.678650 0.961860 -0.580829
O8    O     O_R   0.769040 0.321350 0.038140 -0.572493
O9    O     O_R   0.337910 0.276140 0.051940 -0.561846
O10   O     O_R   0.662090 0.723860 0.948060 -0.561149
O11   O     O_R   0.662090 0.276140 0.948060 -0.561546
O12   O     O_R   0.678990 0.768940 0.857900 -0.584119
O13   O     O_R   0.337910 0.723860 0.051940 -0.570988
O14   O     O_R   0.837910 0.776140 0.051940 -0.560916
O15   O     O_R   0.162090 0.223860 0.948060 -0.562433
O16   O     O_R   0.162090 0.776140 0.948060 -0.557118
O17   O     O_R   0.837910 0.223860 0.051940 -0.561373
O18   O     O_R   0.285940 0.223740 0.947980 -0.567108
O19   O     O_R   0.714060 0.776260 0.052020 -0.567748
O20   O     O_R   0.714060 0.223740 0.052020 -0.567307
O21   O     O_R   0.285940 0.776260 0.947980 -0.557685
O22   O     O_R   0.785940 0.723740 0.947980 -0.567648
O23   O     O_R   0.678990 0.231060 0.857900 -0.584448
O24   O     O_R   0.214060 0.276260 0.052020 -0.566512
O25   O     O_R   0.214060 0.723740 0.052020 -0.571149
O26   O     O_R   0.785940 0.276260 0.947980 -0.567394
O27   O     O_R   0.990910 0.454660 0.410130 -0.531918
O28   O     O_R   0.009090 0.545340 0.589870 -0.527202
O29   O     O_R   0.009090 0.454660 0.589870 -0.544743
O30   O     O_R   0.990910 0.545340 0.410130 -0.520046
O31   O     O_R   0.490910 0.954660 0.410130 -0.533061
O32   O     O_R   0.509090 0.045340 0.589870 -0.532805
O33   O     O_R   0.509090 0.954660 0.589870 -0.532631
O34   O     O_R   0.321010 0.768940 0.142100 -0.583222
O35   O     O_R   0.490910 0.045340 0.410130 -0.532987
O36   O     O_R   0.919170 0.454670 0.410130 -0.609590
O37   O     O_R   0.080830 0.545330 0.589870 -0.622520
O38   O     O_R   0.080830 0.454670 0.589870 -0.624891
O39   O     O_R   0.919170 0.545330 0.410130 -0.605972
O40   O     O_R   0.419170 0.954670 0.410130 -0.610096
O41   O     O_R   0.580830 0.045330 0.589870 -0.610351
O42   O     O_R   0.580830 0.954670 0.589870 -0.610551
O43   O     O_R   0.419170 0.045330 0.410130 -0.610176
O44   O     O_R   0.821010 0.731060 0.142100 -0.584156
O45   O     O_R   0.178990 0.268940 0.857900 -0.583679
O46   O     O_R   0.178990 0.731060 0.857900 -0.574654
O47   O     O_R   0.821010 0.268940 0.142100 -0.584355
O48   O     O_R   0.269040 0.178650 0.038140 -0.572469

loop_
_geom_bond_atom_site_label_1
_geom_bond_atom_site_label_2
_ccdc_geom_bond_type
C28   H20   S    
C75   C76   A    
C114  F2    S    
C55   C56   A    
Cu3   O42   S    
C57   C128  A    
C2    C123  A    
C121  C166  A    
C171  C173  T    
C120  F8    S    
C41   C105  S    
C54   C107  S    
Cu2   O36   S    
C138  O35   A    
C162  C171  S    
C135  O40   A    
C78   H63   S    
C4    C12   A    
C117  C126  A    
C141  O20   A    
C81   C86   A    
C115  F3    S    
C33   H26   S    
C125  C135  S    
C142  O21   A    
C116  F4    S    
C59   C60   A    
C111  O4    A    
C3    H34   S    
C139  O9    A    
Cu1   O6    S    
C45   C47   A    
C11   C20   A    
C150  C159  T    
C51   C52   A    
C140  O10   A    
C141  O11   A    
C132  O29   A    
C112  C120  A    
C13   C124  A    
C72   C73   A    
C62   H49   S    
C89   O12   A    
C120  C129  A    
C103  C112  A    
C142  C151  S    
C43   C44   A    
C37   C38   A    
C105  C114  A    
C146  C154  S    
C82   H65   S    
C164  C173  S    
C163  C172  S    
C101  C133  S    
Cu5   O22   S    
C86   H70   S    
Cu12  O38   S    
C31   H24   S    
C16   C25   A    
C56   H44   S    
C155  O8    A    
C24   C90   A    
C74   C110  S    
C15   H7    S    
C42   H32   S    
C8    C17   A    
C106  C115  A    
C89   C96   S    
Cu3   O31   S    
C144  O46   A    
C64   C65   A    
C138  O43   A    
C25   H17   S    
C119  F7    S    
C140  O19   A    
C69   C70   A    
C3    C11   A    
C126  C134  S    
C84   H68   S    
C16   H8    S    
C47   H37   S    
C100  O3    A    
Cu10  O46   S    
C10   H3    S    
Cu5   O5    S    
C167  C169  T    
C85   C86   A    
C98   C111  S    
C99   C108  A    
C3    C90   A    
C36   C37   A    
C38   C39   A    
C8    C174  A    
C1    O1    A    
C23   H16   S    
C21   H14   S    
C134  O30   A    
C58   H46   S    
C11   H4    S    
C39   H30   S    
C137  O42   A    
C31   C46   A    
C81   C112  S    
Cu6   O23   S    
C149  C158  T    
C152  C161  T    
C30   H22   S    
C4    C91   A    
Cu12  O30   S    
C5    H56   S    
C102  C144  S    
C141  C150  S    
C48   C53   A    
C139  C148  S    
C89   O2    A    
C46   C127  A    
C117  F5    S    
Cu7   Cu10  S    
C157  C165  S    
C39   C40   A    
C68   C94   A    
C139  O18   A    
Cu9   O18   S    
C49   H38   S    
C145  O24   A    
C135  O31   A    
Cu11  O20   S    
C83   C84   A    
Cu4   O43   S    
C1    C95   S    
C41   C47   A    
C2    C87   A    
C7    H71   S    
C19   C28   A    
C2    C27   A    
C114  C123  A    
C65   H52   S    
Cu8   O19   S    
C116  C125  A    
C118  C127  A    
C145  O15   A    
C128  C131  S    
C97   C100  S    
C146  O16   A    
C52   C53   A    
Cu6   O8    S    
C129  C130  S    
Cu7   O13   S    
C54   C55   A    
C174  H1    S    
C130  O36   A    
C108  C117  A    
C7    C16   A    
C88   C97   A    
C72   H58   S    
Cu3   O41   S    
Cu1   O1    S    
C110  C119  A    
C147  O26   A    
C109  C118  A    
C87   C175  A    
C76   H61   S    
C123  C137  S    
C88   C176  A    
Cu8   O2    S    
C14   C22   A    
C17   H9    S    
Cu2   Cu12  S    
C71   C72   A    
C119  C128  A    
C14   H6    S    
C56   C58   A    
C131  O28   A    
C9    C175  A    
Cu2   O29   S    
C34   C36   A    
C148  C157  T    
C61   C62   A    
C107  C116  A    
C63   C64   A    
C147  O17   A    
C9    C18   A    
C113  C121  A    
C49   C50   A    
C1    O48   A    
C91   C99   A    
C140  C149  S    
C33   C68   A    
C25   C33   A    
C136  O41   A    
C96   C105  A    
Cu4   O40   S    
C41   C42   A    
C133  O45   A    
C32   H25   S    
C77   C78   A    
C95   C104  A    
C32   C57   A    
C44   H35   S    
Cu5   O10   S    
C46   C92   A    
C101  C109  A    
Cu1   Cu9   S    
C24   C29   A    
C71   H57   S    
C48   C106  S    
Cu1   O24   S    
C158  C167  S    
C160  C169  S    
C13   C28   A    
Cu11  O47   S    
C70   C71   A    
C67   C73   A    
C45   H36   S    
C131  O37   A    
Cu11  O3    S    
C74   C80   A    
C27   H19   S    
C79   C174  A    
C175  H12   S    
Cu6   O26   S    
C60   H48   S    
C124  C136  S    
C84   C85   A    
C122  O5    A    
C132  O38   A    
C155  O47   A    
C58   C59   A    
Cu4   O33   S    
C98   C107  A    
C51   H40   S    
Cu7   O34   S    
C79   C95   A    
C62   C63   A    
C143  O22   A    
C10   C19   A    
C6    C93   A    
C22   H15   S    
C122  O44   A    
C50   C51   A    
C20   H13   S    
C147  C156  S    
Cu9   O15   S    
C36   H27   S    
C5    C14   A    
Cu10  O16   S    
C69   H54   S    
C38   H29   S    
C97   C106  A    
C103  C155  S    
C143  C152  S    
C94   C103  A    
Cu2   O28   S    
C102  C110  A    
C42   C43   A    
Cu7   O25   S    
C44   C45   A    
Cu5   Cu8   S    
C7    C94   A    
Cu9   O48   S    
C115  C124  A    
C93   C102  A    
Cu5   O12   S    
C43   H33   S    
Cu6   O11   S    
C111  O34   A    
C113  F1    S    
C21   C30   A    
C153  C162  T    
C26   H18   S    
C23   C32   A    
Cu2   O39   S    
C170  C172  T    
C48   C49   A    
C130  O27   A    
C78   C80   A    
C118  F6    S    
Cu3   Cu4   S    
Cu10  O4    S    
C74   C75   A    
C82   C83   A    
Cu12  O37   S    
C137  O33   A    
C8    H72   S    
C81   C82   A    
C54   C60   A    
C30   C35   A    
C144  O7    A    
C34   C40   A    
C17   C26   A    
C100  O23   A    
C142  O13   A    
C159  C168  S    
C59   H47   S    
C61   C108  S    
C127  C132  S    
C6    C15   A    
C73   H59   S    
C61   C66   A    
C67   C109  S    
C6    H67   S    
C80   H64   S    
Cu1   O9    S    
C145  C153  S    
C29   H21   S    
C66   H53   S    
C57   C93   A    
C19   H11   S    
C50   H39   S    
C146  O25   A    
C20   C29   A    
C10   C176  A    
C22   C31   A    
C5    C92   A    
C85   H69   S    
C154  C163  T    
C76   C77   A    
C75   H60   S    
C12   C21   A    
C176  H23   S    
C34   C104  S    
C104  C113  A    
C67   C69   A    
C121  C138  S    
C35   C126  A    
C134  O39   A    
Cu7   O7    S    
C87   C96   A    
Cu4   O32   S    
C12   H5    S    
Cu3   O35   S    
C52   H41   S    
C161  C170  S    
C92   C101  A    
C165  C168  T    
C77   H62   S    
C99   C122  S    
C24   C125  A    
C4    H45   S    
C9    H2    S    
C63   H50   S    
C26   C166  A    
C143  O14   A    
C133  O6    A    
C18   C27   A    
C37   H28   S    
C53   H42   S    
Cu9   O45   S    
C18   H10   S    
C151  C160  T    
C40   H31   S    
Cu11  O17   S    
C64   H51   S    
C13   C88   A    
C15   C23   A    
Cu6   Cu11  S    
C79   C166  A    
C68   C129  A    
Cu12  O27   S    
C156  C164  T    
Cu8   O14   S    
C65   C66   A    
C83   H66   S    
Cu8   O44   S    
C55   H43   S    
Cu10  O21   S    
C70   H55   S    
C90   C98   A    
C136  O32   A    
C35   C91   A    
