data_mof_unit_7069.cif
_audit_creation_date              2012-12-10T17:50:16-0500
_audit_creation_method            fapswitch 2.2
_symmetry_space_group_name_H-M    P1
_symmetry_Int_Tables_number       1
_space_group_crystal_system       triclinic
_cell_length_a                    10.637947
_cell_length_b                    14.778796
_cell_length_c                    14.801289
_cell_angle_alpha                 65.039459
_cell_angle_beta                  103.964403
_cell_angle_gamma                 103.039851
_cell_volume                      2026.93838867

loop_
_atom_site_label
_atom_site_type_symbol
_atom_type_description
_atom_site_fract_x
_atom_site_fract_y
_atom_site_fract_z
_atom_type_partial_charge
C1    C     C_R   0.478211 0.119583 0.312478 0.787297
C2    C     C_R   0.521793 0.880418 0.687522 0.787301
C3    C     C_R   0.493852 0.291630 0.179704 -0.157408
C4    C     C_R   0.506195 0.708371 0.820300 -0.157399
C5    C     C_R   0.477783 0.360701 0.078767 0.096117
C6    C     C_R   0.522289 0.639304 0.921239 0.096126
C7    C     C_R   0.449615 0.321390 0.002690 0.059438
C8    C     C_R   0.550458 0.678619 0.997312 0.059430
C9    C     C_R   0.496602 0.467241 0.051501 -0.129908
C10   C     C_R   0.503485 0.532764 0.948507 -0.129898
C11   C     C_R   0.493260 0.489056 0.877290 0.588681
C12   C     C_R   0.506842 0.510952 0.122719 0.588680
C13   C     C_R   0.458745 0.385997 0.903266 -0.277060
C14   C     C_R   0.541351 0.614012 0.096739 -0.277044
C15   C     C_R   0.725036 0.292498 0.661307 -0.306135
C16   C     C_R   0.274964 0.707502 0.338693 -0.306134
C17   C     C_R   0.690365 0.208414 0.636219 0.396270
C18   C     C_R   0.309636 0.791587 0.363781 0.396271
C19   C     C_R   0.515817 0.283950 0.510615 -0.009894
C20   C     C_R   0.484182 0.716050 0.489385 -0.009919
C21   C     C_R   0.548386 0.371781 0.534404 -0.019591
C22   C     C_R   0.451613 0.628219 0.465597 -0.019599
C23   C     C_R   0.259495 0.000265 0.499952 0.778158
C24   C     C_R   0.740505 0.999734 0.500048 0.778158
C25   C     C_R   0.655508 0.373480 0.611641 0.103977
C26   C     C_R   0.344492 0.626519 0.388359 0.103993
C27   C     C_R   0.479665 0.457510 0.485219 0.074848
C28   C     C_R   0.520334 0.542489 0.514782 0.074821
C29   C     C_R   0.628132 0.538844 0.592394 -0.150421
C30   C     C_R   0.371866 0.461155 0.407608 -0.150422
C31   C     C_R   0.693937 0.455878 0.639743 -0.172614
C32   C     C_R   0.306062 0.544121 0.360258 -0.172628
C33   C     C_3   0.014221 0.009274 0.408573 -0.174748
C34   C     C_3   0.985779 0.990726 0.591427 -0.174745
C35   C     C_3   0.961325 0.086748 0.429333 -0.160042
C36   C     C_3   0.038675 0.913252 0.570667 -0.160040
C37   C     C_3   0.877394 0.999331 0.499903 0.021986
C38   C     C_3   0.122605 0.000669 0.500097 0.021984
C39   C     C_3   0.928030 0.921776 0.479129 -0.132260
C40   C     C_3   0.071970 0.078224 0.520871 -0.132264
C41   C     C_R   0.465005 0.187430 0.205137 -0.090912
C42   C     C_R   0.535019 0.812572 0.794863 -0.090905
C43   C     C_R   0.421097 0.216918 0.027785 -0.166472
C44   C     C_R   0.578956 0.783092 0.972213 -0.166474
C45   C     C_R   0.425879 0.150309 0.128452 -0.193067
C46   C     C_R   0.574148 0.849698 0.871544 -0.193072
Cu1   Cu    Cu3+1 0.465750 0.918270 0.475680 0.941717
Cu2   Cu    Cu3+1 0.534250 0.081730 0.524320 0.941718
H1    H     H_    0.926608 0.157673 0.371525 0.134201
H2    H     H_    0.073392 0.842327 0.628475 0.134201
H3    H     H_    0.564562 0.723319 0.547127 0.145370
H4    H     H_    0.435437 0.276680 0.452874 0.145363
H5    H     H_    0.807539 0.294455 0.720625 0.147429
H6    H     H_    0.192462 0.705545 0.279375 0.147429
H7    H     H_    0.664568 0.599121 0.618661 0.160858
H8    H     H_    0.335430 0.400878 0.381341 0.160822
H9    H     H_    0.028981 0.016856 0.333821 0.128743
H10   H     H_    0.971019 0.983144 0.666179 0.128745
H11   H     H_    0.866638 0.857585 0.462105 0.138267
H12   H     H_    0.133362 0.142415 0.537895 0.138266
H13   H     H_    0.447042 0.355930 0.845901 0.170908
H14   H     H_    0.553062 0.644081 0.154104 0.170911
H15   H     H_    0.463521 0.682992 0.760006 0.221739
H16   H     H_    0.536529 0.317000 0.240003 0.221760
H17   H     H_    0.596540 0.929979 0.853731 0.155720
H18   H     H_    0.403470 0.070029 0.146262 0.155717
H19   H     H_    0.397208 0.186723 0.969536 0.132876
H20   H     H_    0.602847 0.813290 0.030460 0.132877
H21   H     H_    0.776421 0.456326 0.699318 0.147137
H22   H     H_    0.223578 0.543674 0.300683 0.147126
N1    N     N_R   0.585750 0.204560 0.560800 -0.181507
N2    N     N_R   0.414250 0.795440 0.439200 -0.181504
O1    O     O_R   0.454850 0.022100 0.338110 -0.590827
O2    O     O_R   0.545150 0.977900 0.661890 -0.590830
O3    O     O_R   0.512700 0.160150 0.379180 -0.580040
O4    O     O_R   0.487300 0.839850 0.620820 -0.580041
O5    O     O_R   0.287930 0.931000 0.479440 -0.584768
O6    O     O_R   0.712070 0.069000 0.520560 -0.584769
O7    O     O_R   0.345780 0.069050 0.520520 -0.588631
O8    O     O_R   0.654220 0.930950 0.479480 -0.588629
C47   C     C_3   0.224334 0.873385 0.302863 -0.816805
H23   H     H_    0.249495 0.941521 0.318303 0.270522
H24   H     H_    0.226887 0.897571 0.221260 0.190249
H25   H     H_    0.121762 0.842761 0.315470 0.200767
C48   C     C_3   0.775668 0.126616 0.697135 -0.816804
H26   H     H_    0.750505 0.058478 0.681697 0.270522
H27   H     H_    0.878238 0.157240 0.684524 0.200769
H28   H     H_    0.773120 0.102432 0.778738 0.190247
F1    F     F_    0.525887 0.542638 0.784040 -0.710148
F2    F     F_    0.474239 0.457373 0.215979 -0.710134

loop_
_geom_bond_atom_site_label_1
_geom_bond_atom_site_label_2
_ccdc_geom_bond_type
C25   C31   A    
C38   C40   S    
C26   C32   A    
C40   H12   S    
C34   C37   S    
C19   N1    A    
C47   H23   S    
C2    O4    A    
C3    H16   S    
C4    H15   S    
C33   C39   S    
C34   C40   S    
C15   H5    S    
Cu2   O7    S    
C12   F2    S    
C28   C29   A    
C35   C37   S    
Cu1   O4    S    
C20   H3    S    
C15   C25   A    
C14   H14   S    
C18   C47   S    
C42   C46   A    
Cu2   O6    S    
C19   H4    S    
C24   O8    A    
C35   H1    S    
C8    C14   A    
C7    C43   A    
C9    C10   A    
C2    O2    A    
C21   C27   A    
C22   C28   A    
C27   C30   A    
C18   N2    A    
Cu2   O3    S    
Cu1   O8    S    
C47   H24   S    
C44   C46   A    
C48   H27   S    
C16   C26   A    
C1    O3    A    
Cu2   O2    S    
Cu1   O1    S    
C46   H17   S    
C4    C6    A    
C5    C7    A    
C32   H22   S    
C29   H7    S    
C48   H26   S    
C30   H8    S    
C43   H19   S    
C5    C9    A    
C11   F1    S    
Cu1   Cu2   S    
C7    C13   A    
C29   C31   A    
C39   H11   S    
C24   C37   S    
C23   O5    A    
C43   C45   A    
C24   O6    A    
C12   C14   A    
C17   N1    A    
C17   C48   S    
C44   H20   S    
Cu1   O5    S    
Cu2   N1    S    
C45   H18   S    
C47   H25   S    
C36   H2    S    
C48   H28   S    
C1    C41   S    
C15   C17   A    
C21   C25   A    
C3    C41   A    
C33   H9    S    
C19   C21   A    
C36   C39   S    
C8    C44   A    
C20   C22   A    
C3    C5    A    
C6    C10   A    
C6    C8    A    
C23   C38   S    
C33   C38   S    
C1    O1    A    
C36   C38   S    
C35   C40   S    
C37   C39   S    
C30   C32   A    
C11   C13   A    
C4    C42   A    
C2    C42   S    
C33   C35   S    
C34   C36   S    
C9    C12   A    
C16   H6    S    
Cu1   N2    S    
C10   C11   A    
C31   H21   S    
C13   H13   S    
C16   C18   A    
C22   C26   A    
C27   C28   A    
C34   H10   S    
C41   C45   A    
C20   N2    A    
C23   O7    A    
