data_mof_unit_22788.cif
_audit_creation_date              2012-10-26T19:15:27-0400
_audit_creation_method            fapswitch 2.2
_symmetry_space_group_name_H-M    P1
_symmetry_Int_Tables_number       1
_space_group_crystal_system       triclinic
_cell_length_a                    15.934838
_cell_length_b                    10.838721
_cell_length_c                    9.658988
_cell_angle_alpha                 88.809532
_cell_angle_beta                  91.31212
_cell_angle_gamma                 92.356296
_cell_volume                      1666.05920241

loop_
_atom_site_label
_atom_site_type_symbol
_atom_type_description
_atom_site_fract_x
_atom_site_fract_y
_atom_site_fract_z
_atom_type_partial_charge
Br1   Br    Br    0.103311 0.441705 0.786410 -0.550609
Br2   Br    Br    0.365754 0.319756 0.827568 -0.468278
Br3   Br    Br    0.613633 0.154040 0.253566 -0.557682
Br4   Br    Br    0.301197 0.109266 0.554531 -0.525740
C1    C     C_R   0.501769 0.262461 0.500884 0.597106
C2    C     C_R   0.550204 0.938876 0.396178 -0.126070
C3    C     C_R   0.509021 0.869912 0.500079 -0.013745
C4    C     C_R   0.341611 0.499312 0.498608 0.568704
C5    C     C_R   0.477807 0.930322 0.611673 -0.031040
C6    C     C_3   0.394469 0.910068 0.675751 -0.229896
C7    C     C_3   0.390596 0.049262 0.675918 0.063060
C8    C     C_R   0.565679 0.553990 0.074680 0.157197
C9    C     C_R   0.435360 0.443226 0.069980 0.116440
C10   C     C_R   0.441596 0.432702 0.923712 0.261886
C11   C     C_R   0.564418 0.555739 0.928021 0.114710
C12   C     C_R   0.044696 0.470170 0.613188 0.174405
C13   C     C_3   0.593554 0.687219 0.917375 -0.254892
C14   C     C_3   0.594209 0.688170 0.075227 -0.152105
C15   C     C_R   0.502485 0.736953 0.499056 0.532730
C16   C     C_R   0.658401 0.499451 0.501285 0.543497
C17   C     C_R   0.957745 0.471469 0.613654 -0.096043
C18   C     C_R   0.912056 0.490589 0.490926 0.001123
C19   C     C_R   0.952960 0.507375 0.362786 0.020757
C20   C     C_R   0.042273 0.507017 0.361573 -0.009940
C21   C     C_R   0.087155 0.489488 0.488540 0.047500
C22   C     C_3   0.348601 0.406465 0.126038 -0.202504
C23   C     C_1   0.822475 0.493011 0.499424 -0.062741
C24   C     C_3   0.343537 0.277718 0.196965 -0.249171
C25   C     C_3   0.256640 0.214353 0.178803 -0.431376
C26   C     C_3   0.681927 0.709978 0.142269 -0.266033
C27   C     C_3   0.718702 0.840206 0.109547 -0.305960
C28   C     C_3   0.798331 0.868130 0.195956 -0.433178
C29   C     C_3   0.900861 0.522106 0.229617 -0.257173
C30   C     C_3   0.880226 0.395648 0.165685 -0.284699
C31   C     C_3   0.827830 0.407424 0.032195 -0.425656
C32   C     C_3   0.090425 0.528263 0.227921 -0.257103
C33   C     C_3   0.115253 0.665554 0.207558 -0.306334
C34   C     C_1   0.177215 0.492798 0.492479 0.010719
C35   C     C_3   0.161255 0.689196 0.072168 -0.420987
C36   C     C_1   0.252440 0.496025 0.495358 0.028725
C37   C     C_1   0.747475 0.496060 0.502961 -0.024308
C38   C     C_R   0.476065 0.057150 0.612396 0.011063
C39   C     C_R   0.508682 0.128774 0.502173 0.043053
C40   C     C_R   0.551629 0.068171 0.397269 0.128724
Cu1   Cu    Cu3+1 0.500000 0.499980 0.640670 1.017034
Cu2   Cu    Cu3+1 0.500000 0.500020 0.359330 0.963210
H1    H     H_    0.391385 0.082258 0.783522 0.185189
H2    H     H_    0.241003 0.201466 0.067243 0.198406
H3    H     H_    0.255935 0.122089 0.230985 0.185523
H4    H     H_    0.390733 0.217419 0.153333 0.200263
H5    H     H_    0.356044 0.285247 0.309317 0.227206
H6    H     H_    0.320081 0.480990 0.181083 0.144323
H7    H     H_    0.300793 0.407187 0.041239 0.165530
H8    H     H_    0.784355 0.863096 0.308141 0.162585
H9    H     H_    0.846939 0.801183 0.173558 0.142026
H10   H     H_    0.823448 0.962685 0.170104 0.169920
H11   H     H_    0.734370 0.848583 0.998196 0.167790
H12   H     H_    0.656355 0.696755 0.869677 0.130756
H13   H     H_    0.672101 0.910287 0.130723 0.203185
H14   H     H_    0.676294 0.697977 0.256152 0.174980
H15   H     H_    0.725604 0.641096 0.105683 0.144326
H16   H     H_    0.764802 0.440863 0.054796 0.164883
H17   H     H_    0.859709 0.472130 0.957723 0.151293
H18   H     H_    0.819438 0.315559 0.983845 0.168061
H19   H     H_    0.939199 0.349695 0.142484 0.171916
H20   H     H_    0.844590 0.335740 0.240594 0.195016
H21   H     H_    0.841532 0.567909 0.250053 0.143708
H22   H     H_    0.933306 0.584978 0.154223 0.136736
H23   H     H_    0.545409 0.747225 0.869872 0.146597
H24   H     H_    0.218189 0.633584 0.069745 0.162282
H25   H     H_    0.119184 0.665203 0.982695 0.201342
H26   H     H_    0.180787 0.788490 0.062850 0.152617
H27   H     H_    0.058198 0.721258 0.206304 0.165168
H28   H     H_    0.156970 0.696790 0.294881 0.172842
H29   H     H_    0.147820 0.473512 0.230083 0.141513
H30   H     H_    0.054000 0.494072 0.136484 0.174344
H31   H     H_    0.546018 0.747975 0.116917 0.151486
H32   H     H_    0.925519 0.457616 0.710737 0.135902
H33   H     H_    0.580040 0.892435 0.313836 0.136015
H34   H     H_    0.347560 0.862983 0.605655 0.173666
H35   H     H_    0.399841 0.867806 0.781309 0.118335
H36   H     H_    0.208270 0.270209 0.225772 0.162063
N1    N     N_R   0.500520 0.500930 0.147930 -0.235281
N2    N     N_R   0.500520 0.500890 0.852020 -0.237182
O1    O     O_R   0.500000 0.319640 0.618810 -0.454659
O2    O     O_R   0.500010 0.319680 0.381230 -0.467474
O3    O     O_R   0.380300 0.499950 0.618760 -0.429261
O4    O     O_R   0.380310 0.499990 0.381180 -0.541878
O5    O     O_R   0.499990 0.680320 0.618770 -0.511871
O6    O     O_R   0.500000 0.680360 0.381190 -0.518940
O7    O     O_R   0.619690 0.500010 0.618820 -0.501599
O8    O     O_R   0.619700 0.500050 0.381240 -0.488026

loop_
_geom_bond_atom_site_label_1
_geom_bond_atom_site_label_2
_ccdc_geom_bond_type
C33   H28   S    
C13   H23   S    
C12   C17   A    
C7    H1    S    
C10   N2    A    
C30   H20   S    
C16   C37   S    
C25   H3    S    
Cu1   Cu2   S    
C16   O8    A    
C5    C38   A    
C20   C32   S    
C24   C25   S    
Cu1   O3    S    
C26   C27   S    
C24   H5    S    
Cu2   O8    S    
C7    C38   S    
C3    C5    A    
C30   C31   S    
C27   H13   S    
C32   H30   S    
C24   H4    S    
C19   C29   S    
C26   H14   S    
C17   H32   S    
C19   C20   A    
C31   H18   S    
C14   C26   S    
Cu1   O5    S    
C5    C6    S    
C28   H9    S    
C13   H12   S    
C1    O1    A    
C1    C39   S    
C2    C40   A    
C17   C18   A    
Br2   C10   S    
C30   H19   S    
C28   H8    S    
C13   C14   S    
Cu2   O4    S    
C16   O7    A    
Br3   C40   S    
C25   H2    S    
C20   C21   A    
C6    H34   S    
C8    N1    A    
C4    O4    A    
Cu1   O1    S    
C39   C40   A    
C15   O5    A    
C32   H29   S    
C22   H6    S    
C21   C34   S    
C23   C37   T    
C27   C28   S    
C8    C11   A    
C35   H26   S    
C29   C30   S    
Br1   C12   S    
Br4   C7    S    
C2    C3    A    
C1    O2    A    
C3    C15   S    
C18   C23   S    
C9    C22   S    
Cu1   N2    S    
C38   C39   A    
C22   H7    S    
C29   H21   S    
C12   C21   A    
C11   C13   S    
C33   H27   S    
C32   C33   S    
C11   N2    A    
Cu2   O6    S    
C9    N1    A    
C6    H35   S    
C22   C24   S    
C4    O3    A    
C27   H11   S    
C25   H36   S    
C33   C35   S    
C15   O6    A    
C34   C36   T    
C2    H33   S    
C14   H31   S    
C35   H24   S    
C31   H16   S    
Cu1   O7    S    
C6    C7    S    
Cu2   N1    S    
C26   H15   S    
C8    C14   S    
C35   H25   S    
C18   C19   A    
C31   H17   S    
C4    C36   S    
C9    C10   A    
C28   H10   S    
C29   H22   S    
Cu2   O2    S    
