data_mof_unit_14361.cif
_audit_creation_date              2012-12-10T17:48:56-0500
_audit_creation_method            fapswitch 2.2
_symmetry_space_group_name_H-M    P1
_symmetry_Int_Tables_number       1
_space_group_crystal_system       triclinic
_cell_length_a                    10.756782
_cell_length_b                    14.698272
_cell_length_c                    14.703226
_cell_angle_alpha                 65.104744
_cell_angle_beta                  103.873115
_cell_angle_gamma                 103.012609
_cell_volume                      2026.67456564

loop_
_atom_site_label
_atom_site_type_symbol
_atom_type_description
_atom_site_fract_x
_atom_site_fract_y
_atom_site_fract_z
_atom_type_partial_charge
C1    C     C_R   0.477832 0.119708 0.312091 0.843651
C2    C     C_R   0.490628 0.361565 0.078887 0.098820
C3    C     C_R   0.468908 0.323341 0.001642 0.152963
C4    C     C_R   0.260018 0.001347 0.498347 0.807355
C5    C     C_R   0.516756 0.467833 0.053562 0.075409
C6    C     C_R   0.501985 0.534397 0.949612 0.081755
C7    C     C_R   0.486756 0.494150 0.875154 -0.145032
C8    C     C_R   0.470135 0.390278 0.900762 -0.171732
C9    C     C_R   0.564104 0.509769 0.128246 -0.175632
C10   C     C_R   0.595477 0.613733 0.101012 -0.151184
C11   C     C_R   0.572828 0.679389 0.999448 0.128069
C12   C     C_3   0.876950 0.003156 0.491624 0.016695
C13   C     C_R   0.515755 0.640327 0.923465 0.057047
C14   C     C_R   0.606433 0.783914 0.972884 -0.150510
C15   C     C_R   0.587559 0.849572 0.871317 -0.187515
C16   C     C_R   0.516158 0.880305 0.687782 0.836602
C17   C     C_R   0.474421 0.709053 0.824370 0.073485
C18   C     C_R   0.708056 0.285736 0.672200 -0.272916
C19   C     C_R   0.681874 0.205812 0.640660 0.339309
C20   C     C_R   0.518211 0.285419 0.508072 -0.015359
C21   C     C_R   0.545320 0.371752 0.534866 -0.033124
C22   C     C_R   0.639410 0.367985 0.621899 0.068321
C23   C     C_3   0.925436 0.906133 0.577516 -0.406172
C24   C     C_R   0.481882 0.460430 0.479894 0.048432
C25   C     C_R   0.509643 0.540575 0.515718 0.066170
C26   C     C_R   0.597171 0.528944 0.606761 -0.237441
C27   C     C_R   0.662994 0.445913 0.657952 0.154154
C28   C     C_R   0.739622 0.001576 0.496625 0.825022
C29   C     C_R   0.396698 0.473824 0.387795 -0.255504
C30   C     C_R   0.332183 0.558503 0.335387 0.197679
C31   C     C_R   0.348205 0.633610 0.375659 0.035276
C32   C     C_R   0.447028 0.629229 0.461024 -0.056333
C33   C     C_R   0.272767 0.714390 0.334153 0.083120
C34   C     C_3   0.962820 0.095675 0.511899 -0.376355
C35   C     C_R   0.310424 0.794843 0.366302 0.054397
C36   C     C_R   0.481296 0.715327 0.487499 0.067461
C37   C     C_3   0.042736 0.012515 0.387198 -0.037998
C38   C     C_3   0.894977 0.009895 0.385276 0.245328
C39   C     C_3   0.067632 0.905221 0.576197 -0.396893
C40   C     C_3   0.105646 0.095613 0.514320 -0.365106
C41   C     C_3   0.121863 0.004388 0.493556 0.024492
C42   C     C_R   0.468785 0.187699 0.204298 -0.035002
C43   C     C_R   0.524775 0.812548 0.795874 -0.105311
C44   C     C_R   0.448640 0.218406 0.026593 -0.144157
C45   C     C_R   0.449729 0.150876 0.127555 -0.128224
C46   C     C_R   0.484999 0.292094 0.179021 -0.195680
Cu1   Cu    Cu3+1 0.465900 0.918260 0.475680 0.987081
Cu2   Cu    Cu3+1 0.534100 0.081740 0.524320 0.975235
H1    H     H_    0.952792 0.092781 0.586332 0.216045
H2    H     H_    0.783185 0.282210 0.736753 0.203680
H3    H     H_    0.074710 0.838407 0.561386 0.214894
H4    H     H_    0.865467 0.836716 0.569911 0.205963
H5    H     H_    0.160964 0.091104 0.590221 0.190602
H6    H     H_    0.144600 0.168280 0.456944 0.206120
H7    H     H_    0.932267 0.168211 0.453423 0.211971
H8    H     H_    0.054410 0.945052 0.375750 0.162833
H9    H     H_    0.125727 0.896400 0.652355 0.192911
H10   H     H_    0.620032 0.929477 0.852335 0.196756
H11   H     H_    0.637038 0.642901 0.159967 0.166886
H12   H     H_    0.916569 0.903338 0.652588 0.194220
H13   H     H_    0.436791 0.070254 0.145593 0.171117
H14   H     H_    0.651592 0.814557 0.030247 0.169382
H15   H     H_    0.441693 0.279700 0.447448 0.137746
H16   H     H_    0.615863 0.582892 0.641811 0.148312
H17   H     H_    0.382816 0.421013 0.351788 0.153812
H18   H     H_    0.458331 0.362326 0.841286 0.157475
H19   H     H_    0.433458 0.188665 0.968096 0.146202
H20   H     H_    0.490669 0.317753 0.238741 0.147335
H21   H     H_    0.493412 0.542906 0.796773 0.168324
H22   H     H_    0.586246 0.464144 0.208174 0.147427
H23   H     H_    0.563001 0.722326 0.544125 0.135145
H24   H     H_    0.254701 0.857259 0.334000 0.156076
I1    I     I_    0.297811 0.666833 0.735728 -0.338381
I2    I     I_    0.131019 0.134714 0.263559 -0.316641
I3    I     I_    0.794322 0.444831 0.792521 -0.318241
I4    I     I_    0.245923 0.573537 0.184033 -0.269817
I5    I     I_    0.801599 0.091406 0.726974 -0.383813
I6    I     I_    0.807599 0.136991 0.263746 -0.280593
I7    I     I_    0.084403 0.715799 0.245367 -0.275670
I8    I     I_    0.790588 0.881140 0.348697 -0.332537
N1    N     N_R   0.585360 0.204570 0.560800 -0.192495
N2    N     N_R   0.414550 0.795430 0.439160 -0.193455
O1    O     O_R   0.455060 0.022100 0.338110 -0.573896
O2    O     O_R   0.512640 0.160150 0.379180 -0.589160
O3    O     O_R   0.288900 0.930980 0.479450 -0.584569
O4    O     O_R   0.346480 0.069030 0.520520 -0.589277
O5    O     O_R   0.487360 0.839850 0.620820 -0.566651
O6    O     O_R   0.544940 0.977900 0.661890 -0.566643
O7    O     O_R   0.653520 0.930970 0.479480 -0.566606
O8    O     O_R   0.711100 0.069020 0.520550 -0.562934

loop_
_geom_bond_atom_site_label_1
_geom_bond_atom_site_label_2
_ccdc_geom_bond_type
C39   H3    S    
C37   I2    S    
C8    H18   S    
C7    C8    A    
C39   C41   S    
C2    C46   A    
C1    O2    A    
C46   H20   S    
C12   C23   S    
C26   C27   A    
C29   C30   A    
C12   C28   S    
C34   C40   S    
Cu1   O3    S    
C30   C31   A    
C11   C14   A    
C4    O4    A    
C4    C41   S    
C14   H14   S    
Cu2   N1    S    
C18   C19   A    
C42   C46   A    
Cu1   N2    S    
C19   I5    S    
C26   H16   S    
C24   C29   A    
C20   N1    A    
C37   H8    S    
Cu1   Cu2   S    
C36   N2    A    
C16   O5    A    
Cu2   O6    S    
C28   O7    A    
Cu1   O1    S    
C9    C10   A    
C36   H23   S    
C25   C32   A    
C34   H7    S    
Cu2   O8    S    
C21   C22   A    
C17   I1    S    
Cu1   O7    S    
C27   I3    S    
C35   N2    A    
C23   H12   S    
C3    C44   A    
C24   C25   A    
C3    C8    A    
C33   I7    S    
C4    O3    A    
C38   I6    S    
C25   C26   A    
Cu2   O2    S    
C42   C45   A    
Cu1   O5    S    
C17   C43   A    
C5    C9    A    
C37   C38   S    
C30   I4    S    
C31   C32   A    
C31   C33   A    
C9    H22   S    
C16   C43   S    
C29   H17   S    
C40   C41   S    
C35   H24   S    
C40   H6    S    
C22   C27   A    
C15   H10   S    
Cu2   O4    S    
C2    C5    A    
C12   C34   S    
C12   C38   S    
C32   C36   A    
C44   C45   A    
C18   H2    S    
C34   H1    S    
C18   C22   A    
C7    H21   S    
C6    C7    A    
C1    O1    A    
C13   C17   A    
C20   H15   S    
C2    C3    A    
C15   C43   A    
C6    C13   A    
C11   C13   A    
C23   H4    S    
C5    C6    A    
C38   I8    S    
C23   C39   S    
C45   H13   S    
C33   C35   A    
C10   H11   S    
C37   C41   S    
C10   C11   A    
C1    C42   S    
C20   C21   A    
C40   H5    S    
C21   C24   A    
C16   O6    A    
C14   C15   A    
C44   H19   S    
C28   O8    A    
C19   N1    A    
C39   H9    S    
