data_mof_unit_6268.cif
_audit_creation_date              2012-12-10T17:18:55-0500
_audit_creation_method            fapswitch 2.2
_symmetry_space_group_name_H-M    P1
_symmetry_Int_Tables_number       1
_space_group_crystal_system       triclinic
_cell_length_a                    9.630947
_cell_length_b                    10.863694
_cell_length_c                    13.42878
_cell_angle_alpha                 93.104715
_cell_angle_beta                  72.449544
_cell_angle_gamma                 91.363971
_cell_volume                      1337.6131016

loop_
_atom_site_label
_atom_site_type_symbol
_atom_type_description
_atom_site_fract_x
_atom_site_fract_y
_atom_site_fract_z
_atom_type_partial_charge
C1    C     C_R   0.497172 0.737156 0.510314 0.799930
C2    C     C_R   0.432476 0.475091 0.979088 0.078972
C3    C     C_R   0.470212 0.449402 0.869516 0.085092
C4    C     C_R   0.540311 0.461251 0.030395 0.070879
C5    C     C_R   0.677529 0.409820 0.974288 0.169305
C6    C     C_R   0.704581 0.369447 0.870092 -0.255489
C7    C     C_R   0.601842 0.387189 0.818833 -0.204681
C8    C     C_R   0.516967 0.499309 0.135485 -0.248221
C9    C     C_R   0.757430 0.432011 0.129192 -0.218064
C10   C     C_R   0.373975 0.485294 0.814347 -0.102359
C11   C     C_R   0.227884 0.875677 0.611549 -0.197832
C12   C     C_R   0.421628 0.493270 0.699629 0.779679
C13   C     C_R   0.096012 0.921745 0.608558 -0.161500
C14   C     C_R   0.095322 0.029532 0.556964 0.202248
C15   C     C_R   0.222248 0.101178 0.525987 -0.199838
C16   C     C_R   0.356543 0.057708 0.531693 0.067850
C17   C     C_R   0.359696 0.934592 0.558937 0.106908
C18   C     C_R   0.493242 0.871496 0.525866 -0.110319
C19   C     C_R   0.623334 0.937800 0.492549 -0.220379
C20   C     C_R   0.621108 0.064473 0.486388 -0.225636
C21   C     C_R   0.489796 0.126342 0.503459 -0.101530
C22   C     C_R   0.913360 0.344541 0.354084 -0.169741
C23   C     C_R   0.497602 0.261645 0.499325 0.766386
C24   C     C_R   0.014505 0.272460 0.279644 -0.221079
C25   C     C_R   0.157646 0.272350 0.279534 -0.203830
C26   C     C_R   0.200323 0.344160 0.353972 -0.177312
C27   C     C_R   0.102842 0.424080 0.427837 0.198703
C28   C     C_R   0.953504 0.424102 0.427922 0.207579
C29   C     C_R   0.898965 0.571388 0.569276 -0.069652
C30   C     C_R   0.046319 0.570645 0.569691 -0.060881
C31   C     C_R   0.578271 0.497643 0.300080 0.789454
C32   C     C_R   0.785457 0.397254 0.023660 -0.203491
C33   C     C_R   0.621554 0.480442 0.185975 -0.048051
C34   C     C_R   0.232860 0.524402 0.870471 -0.197432
C35   C     C_R   0.189458 0.534393 0.978871 -0.155735
C36   C     C_R   0.288161 0.512613 0.032937 -0.180053
Cu1   Cu    Cu3+1 0.359340 0.500010 0.500010 0.926470
Cu2   Cu    Cu3+1 0.640660 0.499990 0.499990 0.924299
H1    H     H_    0.227284 0.790228 0.649317 0.140942
H2    H     H_    0.997422 0.867660 0.637462 0.121681
H3    H     H_    0.215268 0.181276 0.485261 0.173528
H4    H     H_    0.821842 0.630122 0.626179 0.138433
H5    H     H_    0.980460 0.213572 0.223468 0.149972
H6    H     H_    0.235396 0.212919 0.223625 0.153271
H7    H     H_    0.309309 0.329124 0.353028 0.196016
H8    H     H_    0.806099 0.324492 0.827681 0.147895
H9    H     H_    0.077850 0.627401 0.627816 0.121500
H10   H     H_    0.890491 0.358225 0.981115 0.140958
H11   H     H_    0.246852 0.523031 0.116940 0.138999
H12   H     H_    0.079678 0.563078 0.021300 0.149374
H13   H     H_    0.626196 0.348285 0.739819 0.180786
H14   H     H_    0.726789 0.890975 0.468978 0.178611
N1    N     N_R   0.852480 0.498790 0.499000 -0.200156
N2    N     N_R   0.148360 0.498710 0.498970 -0.196723
O1    O     O_R   0.381190 0.680360 0.500010 -0.569531
O2    O     O_R   0.618760 0.680340 0.500000 -0.577605
O3    O     O_R   0.323240 0.499990 0.650990 -0.584772
O4    O     O_R   0.560820 0.499960 0.650980 -0.584435
O5    O     O_R   0.381240 0.319660 0.500000 -0.610444
O6    O     O_R   0.618810 0.319640 0.499990 -0.603081
O7    O     O_R   0.439180 0.500040 0.349020 -0.593845
O8    O     O_R   0.676760 0.500010 0.349010 -0.593940
H15   H     H_    0.839952 0.417202 0.166851 0.155934
C37   C     C_3   0.971843 0.054500 0.514921 -0.429033
C38   C     C_3   0.006784 0.995599 0.403830 -0.810603
H16   H     H_    0.115820 0.025774 0.354821 0.257473
H17   H     H_    0.006066 0.893507 0.406347 0.250778
H18   H     H_    0.926432 0.022327 0.365083 0.232858
H19   H     H_    0.868859 0.015320 0.565663 0.199817
H20   H     H_    0.956911 0.155472 0.513397 0.206756
H21   H     H_    0.722929 0.114455 0.463485 0.174744
H22   H     H_    0.805032 0.332837 0.351019 0.195851
H23   H     H_    0.417485 0.543951 0.180431 0.156182
H24   H     H_    0.156207 0.549677 0.830475 0.151157

loop_
_geom_bond_atom_site_label_1
_geom_bond_atom_site_label_2
_ccdc_geom_bond_type
C16   C21   A    
C29   H4    S    
C31   O7    A    
C19   C20   A    
C4    C8    A    
C27   N2    A    
C23   O5    A    
C30   N2    A    
C26   C27   A    
C29   C30   A    
C1    O2    A    
C18   C19   A    
C3    C7    A    
C5    C6    A    
C15   C16   A    
C34   C35   A    
C13   H2    S    
C9    C32   A    
Cu2   O4    S    
C19   H14   S    
C35   C36   A    
C16   C17   A    
C38   H17   S    
C31   C33   S    
C20   H21   S    
C37   H20   S    
C26   H7    S    
C5    C32   A    
C12   O4    A    
C22   C28   A    
C13   C14   A    
C9    C33   A    
C32   H10   S    
C31   O8    A    
C25   H6    S    
C22   H22   S    
C23   O6    A    
C30   H9    S    
C24   C25   A    
C15   H3    S    
C25   C26   A    
C2    C4    A    
Cu1   Cu2   S    
C38   H18   S    
C14   C37   S    
C35   H12   S    
C17   C18   A    
C1    C18   S    
C10   C34   A    
C37   H19   S    
C11   H1    S    
Cu1   O5    S    
C10   C12   S    
C34   H24   S    
Cu2   O6    S    
C12   O3    A    
C21   C23   S    
C22   C24   A    
Cu1   N2    S    
C2    C36   A    
C11   C17   A    
C6    H8    S    
C9    H15   S    
C4    C5    A    
Cu1   O7    S    
C28   N1    A    
C6    C7    A    
C37   C38   S    
C2    C3    A    
C1    O1    A    
C7    H13   S    
C3    C10   A    
C11   C13   A    
Cu2   N1    S    
C29   N1    A    
C8    H23   S    
C8    C33   A    
Cu1   O1    S    
Cu2   O2    S    
C20   C21   A    
C38   H16   S    
C27   C28   A    
C24   H5    S    
C14   C15   A    
Cu1   O3    S    
C36   H11   S    
Cu2   O8    S    
