data_mof_unit_41711.cif
_audit_creation_date              2012-12-10T16:38:35-0500
_audit_creation_method            fapswitch 2.2
_symmetry_space_group_name_H-M    P1
_symmetry_Int_Tables_number       1
_space_group_crystal_system       triclinic
_cell_length_a                    10.867756
_cell_length_b                    10.859383
_cell_length_c                    17.726878
_cell_angle_alpha                 98.439285
_cell_angle_beta                  73.014463
_cell_angle_gamma                 99.088418
_cell_volume                      1964.45142936

loop_
_atom_site_label
_atom_site_type_symbol
_atom_type_description
_atom_site_fract_x
_atom_site_fract_y
_atom_site_fract_z
_atom_type_partial_charge
C1    C     C_R   0.157056 0.477945 0.518085 0.904169
C2    C     C_R   0.593644 0.367774 0.913257 0.555880
C3    C     C_R   0.668439 0.327910 0.954901 -0.317961
C4    C     C_R   0.843355 0.522857 0.483020 0.774428
C5    C     C_R   0.638480 0.350190 0.037286 -0.000047
C6    C     C_R   0.526892 0.407865 0.080173 0.008987
C7    C     C_R   0.718055 0.313572 0.077417 -0.165814
C8    C     C_R   0.690697 0.338255 0.159481 -0.286801
C9    C     C_R   0.510385 0.447010 0.162347 0.545926
C10   C     C_2   0.981125 0.540380 0.478814 0.348388
C11   C     C_2   0.022549 0.469530 0.520430 -0.425876
C12   C     C_R   0.268792 0.606218 0.843824 0.366715
C13   C     C_2   0.554835 0.970109 0.483668 0.323402
C14   C     C_2   0.455606 0.035124 0.521146 -0.422083
C15   C     C_R   0.467594 0.168033 0.517426 0.934923
C16   C     C_R   0.533145 0.833741 0.484029 0.749621
C17   C     C_R   0.564080 0.435817 0.287558 0.865456
C18   C     C_R   0.435430 0.562565 0.712848 0.835232
C19   C     C_R   0.390500 0.569249 0.800455 -0.253144
C20   C     C_R   0.589819 0.407770 0.201649 -0.142193
C21   C     C_R   0.212593 0.574122 0.921605 0.457839
C22   C     C_3   0.092446 0.601206 0.139779 0.155614
C23   C     C_R   0.463290 0.520338 0.839397 -0.231747
C24   C     C_3   0.962550 0.577946 0.202157 -0.327400
C25   C     C_3   0.953048 0.457875 0.239967 -0.724640
C26   C     C_3   0.160465 0.599071 0.376113 -0.196481
C27   C     C_3   0.776381 0.015530 0.465856 0.085923
C28   C     C_3   0.791563 0.117799 0.533005 -0.349606
C29   C     C_3   0.912891 0.110523 0.558126 -0.965356
C30   C     C_3   0.475978 0.651568 0.191158 -0.396110
C31   C     C_3   0.997788 0.509674 0.938559 -0.197484
C32   C     C_3   0.245072 0.795404 0.810494 0.147612
C33   C     C_3   0.173689 0.868719 0.887391 -0.333982
C34   C     C_R   0.411326 0.488802 0.917547 -0.038001
C35   C     C_3   0.214773 0.009606 0.886166 -1.028393
C36   C     C_3   0.215450 0.263078 0.134035 -0.307882
C37   C     C_3   0.547192 0.224922 0.815330 -0.317517
C38   C     C_R   0.284838 0.519116 0.960103 -0.212986
C39   C     C_R   0.483615 0.431031 0.955132 -0.089727
C40   C     C_R   0.440263 0.430518 0.038615 -0.183515
C41   C     C_R   0.308107 0.441197 0.076711 0.477961
C42   C     C_R   0.232892 0.491794 0.039563 0.364982
H1    H     H_    0.800629 0.264615 0.045390 0.151352
H2    H     H_    0.882203 0.570599 0.174122 0.228469
H3    H     H_    0.959630 0.375332 0.194600 0.266759
H4    H     H_    0.859643 0.444378 0.286297 0.232076
H5    H     H_    0.032657 0.463009 0.267740 0.255100
H6    H     H_    0.150595 0.495952 0.358395 0.156680
H7    H     H_    0.254656 0.627719 0.390172 0.170238
H8    H     H_    0.163569 0.646537 0.324166 0.174567
H9    H     H_    0.865050 0.025591 0.415311 0.171659
H10   H     H_    0.771430 0.921574 0.485315 0.140487
H11   H     H_    0.798287 0.211265 0.512746 0.252992
H12   H     H_    0.958380 0.393418 0.550134 0.137642
H13   H     H_    0.705533 0.106828 0.585139 0.224159
H14   H     H_    0.908870 0.017237 0.578002 0.270855
H15   H     H_    0.919274 0.183659 0.608117 0.268491
H16   H     H_    0.001029 0.126600 0.507939 0.273636
H17   H     H_    0.496482 0.666580 0.127686 0.164446
H18   H     H_    0.565735 0.676971 0.211068 0.179924
H19   H     H_    0.405288 0.715951 0.226389 0.187617
H20   H     H_    0.011187 0.415280 0.950152 0.154907
H21   H     H_    0.001580 0.509090 0.875160 0.178625
H22   H     H_    0.899436 0.529506 0.974599 0.184406
H23   H     H_    0.360997 0.989208 0.550775 0.130775
H24   H     H_    0.225418 0.830068 0.759721 0.172552
H25   H     H_    0.352097 0.815127 0.801557 0.103524
H26   H     H_    0.067436 0.848975 0.895224 0.245448
H27   H     H_    0.195696 0.838785 0.938821 0.230631
H28   H     H_    0.320062 0.031187 0.880905 0.259281
H29   H     H_    0.160733 0.060061 0.942221 0.269608
H30   H     H_    0.193581 0.043329 0.835608 0.269124
H31   H     H_    0.303897 0.214817 0.108702 0.159832
H32   H     H_    0.162493 0.225998 0.191331 0.186773
H33   H     H_    0.150414 0.240374 0.094327 0.157286
H34   H     H_    0.748728 0.303893 0.190156 0.158573
H35   H     H_    0.443080 0.239529 0.833403 0.174601
H36   H     H_    0.561516 0.145906 0.844189 0.151932
H37   H     H_    0.575203 0.198031 0.750302 0.200796
H38   H     H_    0.751606 0.280226 0.922034 0.160913
H39   H     H_    0.562451 0.510063 0.807273 0.241047
H40   H     H_    0.095169 0.689639 0.114381 0.119735
H41   H     H_    0.170995 0.614859 0.170125 0.132382
H42   H     H_    0.951990 0.658555 0.249159 0.179871
O1    O     O_3   0.500000 0.500000 0.500000 -0.488450
O2    O     O_R   0.470800 0.371790 0.332500 -0.622031
O3    O     O_R   0.380610 0.619380 0.674980 -0.619607
O4    O     O_R   0.632640 0.524780 0.317540 -0.659687
O5    O     O_R   0.515950 0.484050 0.674980 -0.633678
O6    O     O_3   0.103659 0.500455 0.078614 -0.578163
O7    O     O_3   0.059483 0.640489 0.441219 -0.613070
O8    O     O_3   0.669840 0.029988 0.438408 -0.643061
O9    O     O_3   0.420958 0.527405 0.204514 -0.591032
O10   O     O_3   0.089300 0.604162 0.961170 -0.596051
O11   O     O_3   0.198536 0.665761 0.809372 -0.619669
O12   O     O_R   0.535460 0.243030 0.556410 -0.650083
O13   O     O_3   0.247411 0.393717 0.148518 -0.558098
O14   O     O_3   0.626117 0.335663 0.832112 -0.621773
O15   O     O_R   0.437420 0.784080 0.535340 -0.664069
O16   O     O_R   0.223560 0.397520 0.472140 -0.661123
O17   O     O_R   0.803560 0.575360 0.436110 -0.625484
O18   O     O_R   0.209690 0.568800 0.556400 -0.604712
O19   O     O_R   0.763190 0.458310 0.535350 -0.669707
O20   O     O_R   0.414000 0.207090 0.472140 -0.639939
O21   O     O_R   0.613120 0.765800 0.436110 -0.631598
Zn1   Zn    Zn3+2 0.577310 0.422690 0.565550 0.956564
Zn2   Zn    Zn3+2 0.403760 0.371330 0.445150 0.978876
Zn3   Zn    Zn3+2 0.634990 0.589920 0.423760 0.959780
Zn4   Zn    Zn3+2 0.383940 0.616050 0.565540 0.977782

loop_
_geom_bond_atom_site_label_1
_geom_bond_atom_site_label_2
_ccdc_geom_bond_type
C9    O9    S    
C17   O4    A    
C41   C42   A    
O2    Zn2   S    
C1    C11   S    
C6    C9    A    
C7    C8    A    
C37   H37   S    
C8    C20   A    
C22   H40   S    
C22   C24   S    
C28   C29   S    
C38   C42   A    
C30   O9    S    
O1    Zn4   S    
C26   H8    S    
C5    C6    A    
O4    Zn3   S    
C21   O10   S    
O15   Zn4   S    
C4    O19   A    
C8    H34   S    
C17   C20   S    
C18   C19   S    
C2    C39   A    
C21   C38   A    
C35   H28   S    
C30   H18   S    
O5    Zn1   S    
C12   O11   S    
C36   O13   S    
C7    H1    S    
C15   O20   A    
O1    Zn3   S    
C25   H5    S    
C33   H27   S    
O17   Zn3   S    
C35   H29   S    
C13   C14   D    
C30   H17   S    
C31   H20   S    
C3    H38   S    
C1    O16   A    
C37   O14   S    
C28   H13   S    
C27   H9    S    
O21   Zn3   S    
C17   O2    A    
C31   H21   S    
C24   C25   S    
C10   C11   D    
C26   H7    S    
C15   O12   A    
C5    C7    A    
C26   O7    S    
C37   H35   S    
C12   C21   A    
C34   C39   A    
C42   O6    S    
C19   C23   A    
C36   H33   S    
C9    C20   A    
C23   C34   A    
C4    O17   A    
C22   O6    S    
C27   O8    S    
C11   H12   S    
C36   H32   S    
C16   O21   A    
C32   H25   S    
C40   C41   A    
C29   H15   S    
C10   O7    S    
C13   O8    S    
C24   H2    S    
C6    C40   A    
C13   C16   S    
C4    C10   S    
O1    Zn1   S    
C25   H3    S    
C39   C40   A    
C27   H10   S    
C32   H24   S    
O12   Zn1   S    
O16   Zn2   S    
C23   H39   S    
C34   C38   A    
C18   O5    A    
C31   H22   S    
C3    C5    A    
C35   H30   S    
C28   H11   S    
C16   O15   A    
O3    Zn4   S    
C29   H14   S    
C26   H6    S    
C31   O10   S    
C37   H36   S    
C18   O3    A    
C22   H41   S    
C2    C3    A    
C24   H42   S    
C32   C33   S    
C1    O18   A    
C12   C19   A    
C33   C35   S    
C14   H23   S    
O19   Zn1   S    
C41   O13   S    
C36   H31   S    
C32   O11   S    
C29   H16   S    
C2    O14   S    
C30   H19   S    
C27   C28   S    
C14   C15   S    
O18   Zn4   S    
O1    Zn2   S    
C25   H4    S    
O20   Zn2   S    
C33   H26   S    
