data_mof_unit_33098.cif
_audit_creation_date              2012-12-10T18:57:08-0500
_audit_creation_method            fapswitch 2.2
_symmetry_space_group_name_H-M    P1
_symmetry_Int_Tables_number       1
_space_group_crystal_system       triclinic
_cell_length_a                    10.665252
_cell_length_b                    9.829641
_cell_length_c                    10.727301
_cell_angle_alpha                 90.009965
_cell_angle_beta                  89.863712
_cell_angle_gamma                 89.910944
_cell_volume                      1124.59846109

loop_
_atom_site_label
_atom_site_type_symbol
_atom_type_description
_atom_site_fract_x
_atom_site_fract_y
_atom_site_fract_z
_atom_type_partial_charge
C1    C     C_R   0.260052 0.499960 0.502604 0.930867
C2    C     C_R   0.739875 0.499828 0.501878 0.948694
C3    C     C_R   0.582672 0.071845 0.427366 -0.055093
C4    C     C_R   0.417085 0.072139 0.572358 -0.055784
C5    C     C_R   0.582702 0.927874 0.427406 -0.091901
C6    C     C_R   0.417013 0.928184 0.572251 -0.035514
C7    C     C_R   0.493950 0.499434 0.260069 0.963688
C8    C     C_R   0.498198 0.499336 0.740355 0.955509
C9    C     C_R   0.457293 0.616550 0.063136 -0.054805
C10   C     C_R   0.455387 0.615872 0.935913 -0.074229
C11   C     C_R   0.471541 0.495913 0.129165 -0.218956
C12   C     C_R   0.479539 0.495424 0.871969 -0.276708
C13   C     C_R   0.460769 0.370629 0.065611 0.312965
C14   C     C_R   0.477005 0.369786 0.936783 0.366584
C15   C     C_3   0.517246 0.752818 0.928912 0.249633
C16   C     C_3   0.521015 0.751796 0.071037 0.209378
C17   C     C_R   0.065051 0.403665 0.582163 0.330118
C18   C     C_R   0.933972 0.407200 0.585249 0.329754
C19   C     C_R   0.872193 0.499488 0.506802 -0.103256
C20   C     C_R   0.127596 0.500111 0.508264 -0.097816
C21   C     C_R   0.936006 0.594702 0.434696 -0.269579
C22   C     C_R   0.064150 0.596221 0.436759 -0.286848
H1    H     H_    0.610653 0.751128 0.882532 0.155143
H2    H     H_    0.463437 0.830759 0.118573 0.109608
H3    H     H_    0.886533 0.666625 0.375935 0.186716
H4    H     H_    0.113947 0.669371 0.379511 0.177591
H5    H     H_    0.648567 0.126355 0.369164 0.146053
H6    H     H_    0.351167 0.126859 0.630537 0.189772
H7    H     H_    0.648747 0.873134 0.369373 0.152237
H8    H     H_    0.350699 0.873687 0.629972 0.166346
N1    N     N_R   0.500000 0.857200 0.500000 -0.089131
N2    N     N_R   0.500000 0.142810 0.500000 -0.099336
O1    O     O_R   0.316770 0.614620 0.499990 -0.650037
O2    O     O_R   0.683230 0.614620 0.500010 -0.636696
O3    O     O_R   0.316800 0.385290 0.500000 -0.592476
O4    O     O_R   0.683200 0.385290 0.500000 -0.593689
O5    O     O_R   0.500000 0.614690 0.316780 -0.606012
O6    O     O_R   0.500000 0.614690 0.683220 -0.614130
O7    O     O_R   0.500020 0.385360 0.316780 -0.586742
O8    O     O_R   0.499980 0.385360 0.683220 -0.558495
Zn1   Zn    Zn3+2 0.500000 0.653120 0.500000 0.959175
Zn2   Zn    Zn3+2 0.500000 0.346880 0.500000 0.997948
O9    O     O_3   0.452792 0.248413 0.129288 -0.593074
C23   C     C_3   0.330067 0.196140 0.117026 0.148347
H9    H     H_    0.322113 0.138937 0.027949 0.185766
H10   H     H_    0.256648 0.277319 0.119684 0.112995
C24   C     C_3   0.303757 0.099368 0.224555 -0.827530
H11   H     H_    0.303077 0.156452 0.313883 0.272585
H12   H     H_    0.210901 0.050498 0.211637 0.196679
H13   H     H_    0.376979 0.019281 0.228855 0.249095
O10   O     O_3   0.497914 0.247007 0.876432 -0.577569
C25   C     C_3   0.624056 0.206893 0.895536 0.153387
H14   H     H_    0.633127 0.154929 0.987132 0.166598
H15   H     H_    0.690506 0.294585 0.892365 0.125714
C26   C     C_3   0.663578 0.107839 0.793784 -0.740432
H16   H     H_    0.661829 0.159317 0.701820 0.292781
H17   H     H_    0.760294 0.070938 0.811844 0.189599
H18   H     H_    0.599376 0.019473 0.791318 0.283007
O11   O     O_3   0.437317 0.853687 0.880138 -0.786697
H19   H     H_    0.354123 0.846572 0.921511 0.330800
O12   O     O_3   0.643636 0.740107 0.116516 -0.773906
H20   H     H_    0.678062 0.833805 0.116409 0.320864
O13   O     O_3   0.133752 0.310184 0.650034 -0.783850
H21   H     H_    0.083791 0.225918 0.659279 0.331710
O14   O     O_3   0.864316 0.327359 0.665705 -0.798412
H22   H     H_    0.915398 0.305907 0.740120 0.331001

loop_
_geom_bond_atom_site_label_1
_geom_bond_atom_site_label_2
_ccdc_geom_bond_type
C3    N2    A    
C3    H5    S    
C26   H16   S    
C25   C26   S    
O7    Zn2   S    
C9    C11   A    
C9    C10   A    
C16   H2    S    
O4    Zn2   S    
C14   O10   S    
C23   C24   S    
C8    C12   S    
O1    Zn1   S    
C2    O2    A    
C15   H1    S    
C17   C18   A    
C7    O5    A    
C1    O1    A    
O11   H19   S    
C24   H12   S    
N1    Zn1   S    
C21   C22   A    
C17   O13   S    
C18   O14   S    
C7    C11   S    
C11   C13   A    
C4    N2    A    
O2    Zn1   S    
C10   C12   A    
C8    O6    A    
N2    Zn2   S    
O8    Zn2   S    
C19   C21   A    
C9    C16   S    
C12   C14   A    
C25   H15   S    
C6    N1    A    
C24   H13   S    
C5    H7    S    
C10   C15   S    
C26   H17   S    
O9    C23   S    
O5    Zn1   S    
O12   H20   S    
C5    N1    A    
C16   O12   S    
C15   C16   S    
C24   H11   S    
C13   O9    S    
C17   C20   A    
C25   H14   S    
C1    O3    A    
O6    Zn1   S    
C4    C6    A    
O14   H22   S    
C22   H4    S    
C26   H18   S    
C2    O4    A    
O3    Zn2   S    
C7    O7    A    
C18   C19   A    
C1    C20   S    
C21   H3    S    
C8    O8    A    
C4    H6    S    
C2    C19   S    
C13   C14   A    
C15   O11   S    
C6    H8    S    
C23   H10   S    
C23   H9    S    
O10   C25   S    
C20   C22   A    
O13   H21   S    
C3    C5    A    
