data_mof_unit_52020.cif
_audit_creation_date              2012-12-11T15:34:11-0500
_audit_creation_method            fapswitch 2.2
_symmetry_space_group_name_H-M    P1
_symmetry_Int_Tables_number       1
_space_group_crystal_system       triclinic
_cell_length_a                    15.059282
_cell_length_b                    15.076711
_cell_length_c                    34.925507
_cell_angle_alpha                 90.578616
_cell_angle_beta                  89.987716
_cell_angle_gamma                 60.092152
_cell_volume                      6873.16304698

loop_
_atom_site_label
_atom_site_type_symbol
_atom_type_description
_atom_site_fract_x
_atom_site_fract_y
_atom_site_fract_z
_atom_type_partial_charge
C1    C     C_R   0.302999 0.608109 0.555866 0.542460
C2    C     C_R   0.657731 0.662086 0.668625 0.033944
C3    C     C_R   0.266508 0.652271 0.265596 -0.101469
C4    C     C_R   0.202176 0.631532 0.288305 0.019660
C5    C     C_R   0.132683 0.607947 0.270810 -0.125858
C6    C     C_R   0.124518 0.609411 0.231088 -0.093086
C7    C     C_R   0.186733 0.633100 0.208390 0.039806
C8    C     C_R   0.216436 0.553939 0.352185 -0.117096
C9    C     C_R   0.237493 0.550168 0.391161 -0.120533
C10   C     C_R   0.232030 0.713353 0.387135 -0.125302
C11   C     C_R   0.211623 0.716703 0.348176 -0.124308
C12   C     C_R   0.207895 0.635069 0.330208 0.030229
C13   C     C_R   0.565845 0.726800 0.649655 -0.111714
C14   C     C_R   0.250080 0.627661 0.408571 0.020538
C15   C     C_R   0.735851 0.025714 0.943408 0.549002
C16   C     C_R   0.745985 0.722856 0.945060 0.549653
C17   C     C_R   0.038798 0.733583 0.948565 0.548293
C18   C     C_R   0.723026 0.038743 0.052828 0.543226
C19   C     C_R   0.733687 0.734884 0.054964 0.545474
C20   C     C_R   0.027774 0.744706 0.057777 0.543608
C21   C     C_R   0.553014 0.707731 0.611490 -0.127250
C22   C     C_R   0.673694 0.674922 0.787991 0.347354
C23   C     C_R   0.665314 0.669825 0.710458 0.347436
C24   C     C_R   0.762996 0.599412 0.849356 -0.118175
C25   C     C_R   0.779374 0.610053 0.887950 -0.128351
C26   C     C_R   0.627957 0.778429 0.889194 -0.126625
C27   C     C_R   0.611441 0.767662 0.850579 -0.116704
C28   C     C_R   0.681260 0.679797 0.829938 0.037279
C29   C     C_R   0.610734 0.588505 0.555192 0.543555
C30   C     C_R   0.714497 0.701441 0.907789 0.025163
C31   C     C_R   0.721992 0.074704 0.905906 0.019906
C32   C     C_R   0.633538 0.099975 0.884567 -0.122137
C33   C     C_R   0.629349 0.123271 0.845968 -0.122269
C34   C     C_R   0.712675 0.123308 0.828212 0.035296
C35   C     C_R   0.797727 0.106476 0.849975 -0.061814
C36   C     C_R   0.802662 0.081752 0.888647 -0.102484
C37   C     C_R   0.726160 0.209537 0.769769 -0.103992
C38   C     C_R   0.717197 0.222833 0.730189 -0.094408
C39   C     C_R   0.696898 0.158262 0.707124 0.052543
C40   C     C_R   0.589825 0.301007 0.553686 0.541481
C41   C     C_R   0.691919 0.076608 0.723630 -0.014029
C42   C     C_R   0.697757 0.065207 0.763188 -0.009580
C43   C     C_R   0.713183 0.132655 0.786486 0.056785
C44   C     C_R   0.573668 0.210649 0.652060 0.276124
C45   C     C_R   0.551704 0.240315 0.613908 -0.095411
C46   C     C_R   0.721556 0.216763 0.604658 -0.141028
C47   C     C_R   0.745796 0.183687 0.642318 -0.168364
C48   C     C_R   0.672197 0.181964 0.666466 0.002767
C49   C     C_R   0.623574 0.247300 0.590406 -0.028981
C50   C     C_R   0.094716 0.694664 0.912134 0.023664
C51   C     C_R   0.300629 0.609994 0.445961 0.542882
C52   C     C_R   0.147897 0.739895 0.896075 -0.102922
C53   C     C_R   0.178163 0.721691 0.857713 -0.053862
C54   C     C_R   0.153357 0.660184 0.834944 0.057755
C55   C     C_R   0.109170 0.607389 0.851726 -0.097477
C56   C     C_R   0.080464 0.624044 0.890191 -0.115930
C57   C     C_R   0.233978 0.566885 0.774871 -0.157383
C58   C     C_R   0.243237 0.561377 0.735120 -0.115956
C59   C     C_R   0.181625 0.647583 0.712923 -0.020590
C60   C     C_R   0.109966 0.738960 0.731078 -0.095929
C61   C     C_R   0.099853 0.745650 0.770959 0.273384
C62   C     C_R   0.607963 0.589621 0.445084 0.560536
C63   C     C_R   0.163614 0.658655 0.793109 0.006748
C64   C     C_R   0.198374 0.725002 0.652551 -0.115241
C65   C     C_R   0.225120 0.716616 0.614002 -0.123237
C66   C     C_R   0.241575 0.548374 0.611002 -0.111126
C67   C     C_R   0.214060 0.557189 0.649584 -0.091826
C68   C     C_R   0.195982 0.643944 0.671004 0.030772
C69   C     C_R   0.250973 0.626563 0.593244 0.013598
C70   C     C_R   0.692404 0.720605 0.091356 -0.003567
C71   C     C_R   0.600017 0.799830 0.106734 -0.104053
C72   C     C_R   0.570178 0.794840 0.144457 0.120713
C73   C     C_R   0.588706 0.301126 0.443966 0.565781
C74   C     C_R   0.633810 0.709200 0.166889 0.099877
C75   C     C_R   0.723078 0.628108 0.150814 -0.088522
C76   C     C_R   0.751773 0.633311 0.113375 -0.126859
C77   C     C_R   0.599001 0.631235 0.224680 0.239469
C78   C     C_R   0.600417 0.622593 0.264588 -0.108425
C79   C     C_R   0.614146 0.690414 0.288230 -0.017521
C80   C     C_R   0.622870 0.770084 0.272005 -0.136123
C81   C     C_R   0.624139 0.778057 0.232270 -0.140995
C82   C     C_R   0.614895 0.707632 0.208300 0.026904
C83   C     C_R   0.547132 0.743826 0.354697 -0.130677
C84   C     C_R   0.631910 0.623686 0.591735 0.021923
C85   C     C_R   0.547510 0.719111 0.393147 -0.158820
C86   C     C_R   0.706042 0.558444 0.382745 0.095850
C87   C     C_R   0.704047 0.583634 0.344134 -0.114733
C88   C     C_R   0.623124 0.674181 0.329780 0.011815
C89   C     C_R   0.624223 0.624428 0.407392 0.057605
C90   C     C_R   0.699553 0.100743 0.088082 0.021136
C91   C     C_R   0.773199 0.121174 0.104071 -0.124790
C92   C     C_R   0.761504 0.158469 0.141480 -0.095394
C93   C     C_R   0.676190 0.175612 0.163407 0.050659
C94   C     C_R   0.598216 0.164072 0.146203 -0.113188
C95   C     C_R   0.726753 0.564682 0.609721 -0.127703
C96   C     C_R   0.609639 0.127255 0.108784 -0.120088
C97   C     C_R   0.581675 0.258333 0.223906 -0.092470
C98   C     C_R   0.577182 0.263305 0.263705 -0.127740
C99   C     C_R   0.664987 0.202083 0.285425 0.026388
C100  C     C_R   0.758323 0.138654 0.266705 -0.111366
C101  C     C_R   0.762842 0.133692 0.226838 -0.108227
C102  C     C_R   0.674142 0.192330 0.205119 0.049680
C103  C     C_R   0.731675 0.210474 0.350018 -0.113898
C104  C     C_R   0.716520 0.228920 0.389575 0.069723
C105  C     C_R   0.556037 0.225908 0.384465 0.076464
C106  C     C_R   0.739528 0.583678 0.647826 -0.120271
C107  C     C_R   0.573776 0.206509 0.345177 -0.112677
C108  C     C_R   0.657743 0.205002 0.327521 -0.012956
C109  C     C_R   0.623359 0.246244 0.406503 0.065116
C110  C     C_R   0.086828 0.707025 0.093248 0.001021
C111  C     C_R   0.113804 0.609543 0.106950 -0.104405
C112  C     C_R   0.154439 0.580054 0.143786 0.113247
C113  C     C_R   0.166574 0.650150 0.167132 0.065183
C114  C     C_R   0.147187 0.744035 0.152112 -0.139680
C115  C     C_R   0.108012 0.772120 0.115464 -0.130779
C116  C     C_R   0.258711 0.653192 0.225885 -0.084620
Cr1   Cr    Cr6+3 0.421670 0.426920 0.499620 1.031986
Cr2   Cr    Cr6+3 0.427030 0.651190 0.500980 1.011854
Cr3   Cr    Cr6+3 0.651280 0.421870 0.499380 1.049576
Cr4   Cr    Cr6+3 0.910810 0.908010 0.001130 1.022509
Cr5   Cr    Cr6+3 0.682800 0.909890 0.998370 1.016832
Cr6   Cr    Cr6+3 0.908370 0.682300 0.002180 1.016865
H1    H     H_    0.789370 0.500084 0.595079 0.134396
H2    H     H_    0.871823 0.062575 0.904362 0.137762
H3    H     H_    0.821134 0.162673 0.653122 0.123055
H4    H     H_    0.721840 0.285901 0.717714 0.122021
H5    H     H_    0.738720 0.261674 0.787443 0.110094
H6    H     H_    0.562583 0.137486 0.829532 0.127376
H7    H     H_    0.679682 0.024219 0.706013 0.153353
H8    H     H_    0.690014 0.003927 0.775708 0.143246
H9    H     H_    0.475553 0.264693 0.603248 0.186089
H10   H     H_    0.862559 0.106482 0.836538 0.158255
H11   H     H_    0.479167 0.754930 0.598296 0.133623
H12   H     H_    0.778159 0.221936 0.587164 0.136403
H13   H     H_    0.160819 0.793700 0.912498 0.128856
H14   H     H_    0.039770 0.587917 0.901783 0.130964
H15   H     H_    0.209962 0.494951 0.663020 0.141689
H16   H     H_    0.300141 0.490314 0.721794 0.174073
H17   H     H_    0.282290 0.499560 0.791538 0.135961
H18   H     H_    0.215135 0.760460 0.845183 0.146199
H19   H     H_    0.061274 0.804915 0.713918 0.138863
H20   H     H_    0.185271 0.792628 0.668398 0.111329
H21   H     H_    0.846388 0.549079 0.901551 0.129425
H22   H     H_    0.231584 0.778260 0.601160 0.132140
H23   H     H_    0.090749 0.558695 0.834456 0.120646
H24   H     H_    0.260636 0.478179 0.595715 0.148022
H25   H     H_    0.553250 0.867501 0.090022 0.121565
H26   H     H_    0.823514 0.571224 0.102463 0.139592
H27   H     H_    0.764020 0.530399 0.324937 0.107889
H28   H     H_    0.591764 0.562388 0.277543 0.123461
H29   H     H_    0.633089 0.823187 0.290021 0.121515
H30   H     H_    0.811975 0.533629 0.661451 0.136958
H31   H     H_    0.636498 0.836899 0.220115 0.138246
H32   H     H_    0.484379 0.814475 0.343930 0.115814
H33   H     H_    0.484206 0.771903 0.411202 0.127495
H34   H     H_    0.773384 0.562660 0.167970 0.145120
H35   H     H_    0.842698 0.102725 0.088550 0.125573
H36   H     H_    0.551315 0.112823 0.097141 0.130006
H37   H     H_    0.519958 0.195667 0.327983 0.106704
H38   H     H_    0.504815 0.314927 0.277552 0.118646
H39   H     H_    0.512584 0.305263 0.207813 0.141682
H40   H     H_    0.501787 0.788625 0.664803 0.146536
H41   H     H_    0.821548 0.168989 0.153912 0.120098
H42   H     H_    0.826836 0.090314 0.282862 0.101964
H43   H     H_    0.834726 0.080456 0.213077 0.099699
H44   H     H_    0.798902 0.205340 0.336542 0.103048
H45   H     H_    0.531823 0.176186 0.162503 0.103735
H46   H     H_    0.099968 0.557802 0.089555 0.119719
H47   H     H_    0.088632 0.847428 0.105494 0.136078
H48   H     H_    0.202921 0.781074 0.331723 0.103284
H49   H     H_    0.817159 0.529945 0.834382 0.133626
H50   H     H_    0.322132 0.668658 0.278624 0.125824
H51   H     H_    0.306999 0.672023 0.208822 0.171933
H52   H     H_    0.082258 0.592133 0.287908 0.105694
H53   H     H_    0.066481 0.596488 0.218186 0.141421
H54   H     H_    0.213316 0.490444 0.338788 0.108253
H55   H     H_    0.250724 0.483283 0.406992 0.141250
H56   H     H_    0.156110 0.798720 0.169665 0.105878
H57   H     H_    0.240628 0.774522 0.399775 0.128748
H58   H     H_    0.576263 0.849590 0.903797 0.129487
H59   H     H_    0.547019 0.830448 0.836510 0.138633
H60   H     H_    0.569894 0.095751 0.897015 0.133585
N1    N     N_R   0.750755 0.598305 0.767487 -0.231496
N2    N     N_R   0.746491 0.595634 0.729519 -0.233789
N3    N     N_R   0.588218 0.746675 0.730935 -0.218287
N4    N     N_R   0.592609 0.749492 0.768954 -0.224589
O1    O     O_R   0.502070 0.323090 0.541280 -0.521782
O2    O     O_R   0.520720 0.641670 0.461580 -0.517312
O3    O     O_R   0.674120 0.502090 0.457500 -0.453882
O4    O     O_R   0.640110 0.338380 0.459630 -0.467381
O5    O     O_3   0.499990 0.499990 0.499990 -0.248810
O6    O     O_R   0.017640 0.822070 0.960410 -0.510075
O7    O     O_R   0.822000 0.989470 0.960340 -0.498178
O8    O     O_R   0.666920 0.007430 0.955290 -0.519684
O9    O     O_R   0.694410 0.812480 0.959650 -0.500814
O10   O     O_R   0.831550 0.656950 0.958960 -0.519977
O11   O     O_R   0.998590 0.685540 0.963930 -0.505091
O12   O     O_R   0.338340 0.520690 0.539540 -0.502189
O13   O     O_R   0.008220 0.831200 0.045060 -0.519255
O14   O     O_R   0.813270 0.997930 0.038810 -0.503787
O15   O     O_R   0.657500 0.016560 0.039940 -0.520760
O16   O     O_R   0.685680 0.820940 0.038120 -0.503175
O17   O     O_R   0.822130 0.666070 0.043610 -0.515339
O18   O     O_R   0.989860 0.694000 0.042400 -0.504150
O19   O     O_3   0.833990 0.833400 0.000560 -0.237867
O20   O     O_R   0.324760 0.674070 0.543580 -0.519264
O21   O     O_R   0.522400 0.640310 0.540110 -0.503510
O22   O     O_R   0.675940 0.500630 0.542210 -0.518696
O23   O     O_R   0.641790 0.337020 0.538150 -0.500976
O24   O     O_R   0.500260 0.324550 0.456580 -0.484299
O25   O     O_R   0.336660 0.522040 0.461020 -0.497255
O26   O     O_R   0.322940 0.675540 0.458880 -0.520802
S1    S     S_3+6 0.472529 0.220643 0.681299 -0.025507
O27   O     O_2   0.486939 0.115747 0.687378 -0.289209
O28   O     O_2   0.472108 0.268205 0.719391 -0.303772
O29   O     O_3   0.359113 0.293394 0.659893 -0.566715
H61   H     H_    0.307431 0.296066 0.678134 0.365413
S2    S     S_3+6 0.004194 0.862486 0.791648 -0.019075
O30   O     O_2   0.940554 0.842266 0.819560 -0.246110
O31   O     O_2   0.053538 0.914219 0.812529 -0.331582
O32   O     O_3   0.927350 0.940809 0.757440 -0.545542
H62   H     H_    0.960435 0.979839 0.748811 0.342350
S3    S     S_3+6 0.576651 0.546080 0.196482 -0.019731
O33   O     O_2   0.518500 0.598334 0.160962 -0.255461
O34   O     O_2   0.677329 0.454846 0.185042 -0.304457
O35   O     O_3   0.507883 0.506303 0.221529 -0.541883
H63   H     H_    0.557393 0.454084 0.239149 0.341306
N5    N     N_3   0.477663 0.877468 0.160587 -0.638900
H64   H     H_    0.441373 0.936386 0.140811 0.218193
H65   H     H_    0.427790 0.849457 0.165787 0.249350
N6    N     N_3   0.788644 0.463436 0.396009 -0.583003
H66   H     H_    0.791073 0.404639 0.379111 0.238126
H67   H     H_    0.857010 0.463964 0.391485 0.217077
N7    N     N_3   0.793859 0.233455 0.412273 -0.589832
H68   H     H_    0.856501 0.220364 0.395266 0.210914
H69   H     H_    0.821257 0.173101 0.431622 0.220670
N8    N     N_3   0.467662 0.228885 0.401565 -0.600487
H70   H     H_    0.494225 0.166004 0.419678 0.229868
H71   H     H_    0.422658 0.219755 0.380837 0.212666
N9    N     N_3   0.180709 0.480838 0.158029 -0.644415
H72   H     H_    0.164387 0.439776 0.137648 0.220863
H73   H     H_    0.260013 0.440317 0.162026 0.242654

loop_
_geom_bond_atom_site_label_1
_geom_bond_atom_site_label_2
_ccdc_geom_bond_type
C7    C116  A    
C80   H29   S    
C96   H36   S    
C55   C56   A    
C22   N4    A    
C101  C102  A    
C41   H7    S    
C53   H18   S    
C41   C42   A    
C71   H25   S    
S3    O33   D    
Cr3   O4    S    
Cr5   O19   S    
C9    C14   A    
C15   C31   S    
N5    H65   S    
C97   C98   A    
C57   C58   A    
S3    O35   S    
C13   H40   S    
C39   C41   A    
C40   O1    A    
C77   C78   A    
C52   C53   A    
C99   C108  S    
C105  C107  A    
C46   C49   A    
C26   C27   A    
C37   C38   A    
C29   O22   A    
C116  H51   S    
C10   H57   S    
C64   C68   A    
C32   H60   S    
Cr1   O24   S    
C36   H2    S    
Cr3   O5    S    
Cr5   O16   S    
C3    C116  A    
Cr4   O6    S    
C85   H33   S    
C5    C6    A    
C59   C68   S    
C3    H50   S    
C55   H23   S    
C66   C69   A    
C6    H53   S    
C16   C30   S    
C40   C49   S    
C98   C99   A    
C62   C89   S    
Cr4   O13   S    
C81   H31   S    
C57   H17   S    
Cr2   O26   S    
C34   C35   A    
C5    H52   S    
Cr6   O18   S    
C61   C63   A    
C24   H49   S    
C110  C111  A    
C79   C88   S    
C87   H27   S    
Cr5   O9    S    
Cr1   O5    S    
C38   H4    S    
C46   C47   A    
C15   O8    A    
C75   H34   S    
C77   S3    S    
C1    O12   A    
C53   C54   A    
C8    C9    A    
C114  H56   S    
C50   C52   A    
C107  C108  A    
C17   O11   A    
C103  C108  A    
C4    C12   S    
C103  C104  A    
C31   C36   A    
C97   C102  A    
C115  H47   S    
C58   H16   S    
C104  N7    S    
C66   C67   A    
C59   C60   A    
C22   C28   S    
N8    H70   S    
C1    C69   S    
C112  C113  A    
Cr6   O19   S    
C25   H21   S    
N7    H69   S    
C74   C82   S    
C51   O26   A    
C21   H11   S    
N5    H64   S    
C56   H14   S    
C57   C63   A    
C62   O3    A    
S1    O28   D    
C17   O6    A    
C103  H44   S    
C47   H3    S    
Cr3   O23   S    
C106  H30   S    
C74   C75   A    
C67   C68   A    
C18   C90   S    
C47   C48   A    
Cr3   O3    S    
C73   O24   A    
Cr1   O25   S    
C24   C25   A    
C20   O18   A    
C29   C84   S    
C100  H42   S    
Cr1   O1    S    
C91   C92   A    
C83   H32   S    
C65   H22   S    
Cr2   O2    S    
C78   C79   A    
C4    C5    A    
C112  N9    S    
C58   C59   A    
S1    O27   D    
C40   O23   A    
C2    C106  A    
C33   H6    S    
C81   C82   A    
C44   S1    S    
C32   C33   A    
C60   C61   A    
C35   C36   A    
Cr6   O17   S    
C37   C43   A    
C17   C50   S    
C101  H43   S    
C75   C76   A    
C27   H59   S    
N1    N2    A    
O32   H62   S    
C16   O10   A    
C95   C106  A    
C60   H19   S    
C46   H12   S    
N7    H68   S    
Cr2   O5    S    
S2    O31   D    
C14   C51   S    
N6    H66   S    
C21   C84   A    
C45   C49   A    
C20   O13   A    
C8    C12   A    
C90   C96   A    
C19   O17   A    
N9    H73   S    
C13   C21   A    
N6    H67   S    
C93   C94   A    
O29   H61   S    
C94   C96   A    
C1    O20   A    
C2    C13   A    
C70   C71   A    
C61   S2    S    
C11   H48   S    
C20   C110  S    
C92   H41   S    
C72   C74   A    
C83   C85   A    
C98   H38   S    
C45   H9    S    
C94   H45   S    
C97   H39   S    
N8    H71   S    
C18   O14   A    
C42   C43   A    
C86   N6    S    
C90   C91   A    
C3    C4    A    
Cr5   O8    S    
C2    C23   S    
C66   H24   S    
C9    H55   S    
C44   C45   A    
C78   H28   S    
S2    O32   S    
C62   O2    A    
C113  C114  A    
S1    O29   S    
C95   H1    S    
C25   C30   A    
C105  C109  A    
C54   C55   A    
C85   C89   A    
C111  C112  A    
Cr2   O20   S    
C86   C87   A    
C73   O4    A    
C31   C32   A    
C34   C43   S    
C24   C28   A    
Cr6   O10   S    
C80   C81   A    
C86   C89   A    
C93   C102  S    
C107  H37   S    
N9    H72   S    
C8    H54   S    
C114  C115  A    
C6    C7    A    
Cr3   O22   S    
C26   H58   S    
N3    N4    A    
Cr4   O7    S    
C29   O21   A    
C99   C100  A    
Cr4   O19   S    
C42   H8    S    
C64   C65   A    
C7    C113  S    
Cr2   O21   S    
Cr5   O15   S    
C23   N2    A    
C16   O9    A    
C72   N5    S    
C70   C76   A    
S3    O34   D    
S2    O30   D    
C38   C39   A    
C64   H20   S    
C77   C82   A    
C65   C69   A    
C35   H10   S    
C92   C93   A    
Cr4   O14   S    
C33   C34   A    
C83   C88   A    
C18   O15   A    
C23   N3    A    
C73   C109  S    
C19   O16   A    
Cr6   O11   S    
C67   H15   S    
C50   C56   A    
C91   H35   S    
C10   C11   A    
C79   C80   A    
C15   O7    A    
C51   O25   A    
C71   C72   A    
C76   H26   S    
C87   C88   A    
O35   H63   S    
C54   C63   S    
C27   C28   A    
C52   H13   S    
C105  N8    S    
C104  C109  A    
C19   C70   S    
C100  C101  A    
C111  H46   S    
C22   N1    A    
C110  C115  A    
C84   C95   A    
Cr1   O12   S    
C44   C48   A    
C11   C12   A    
C10   C14   A    
C39   C48   S    
C37   H5    S    
C26   C30   A    
