data_mof_unit_47619.cif
_audit_creation_date              2012-12-10T17:31:04-0500
_audit_creation_method            fapswitch 2.2
_symmetry_space_group_name_H-M    P1
_symmetry_Int_Tables_number       1
_space_group_crystal_system       triclinic
_cell_length_a                    12.06294
_cell_length_b                    12.895528
_cell_length_c                    15.536532
_cell_angle_alpha                 86.625099
_cell_angle_beta                  116.252677
_cell_angle_gamma                 92.782123
_cell_volume                      2163.09792246

loop_
_atom_site_label
_atom_site_type_symbol
_atom_type_description
_atom_site_fract_x
_atom_site_fract_y
_atom_site_fract_z
_atom_type_partial_charge
C1    C     C_R   0.477716 0.299668 0.498388 0.920888
C2    C     C_R   0.638988 0.969467 0.484121 -0.203119
C3    C     C_R   0.366783 0.138054 0.509976 -0.175980
C4    C     C_R   0.632237 0.862032 0.488537 -0.187052
C5    C     C_R   0.553916 0.132463 0.487659 -0.256746
C6    C     C_R   0.444504 0.867648 0.510033 -0.242355
C7    C     C_R   0.548077 0.025677 0.492134 0.178758
C8    C     C_R   0.450237 0.974428 0.505391 0.176757
C9    C     C_R   0.011023 0.615689 0.429430 -0.231671
C10   C     C_R   0.988639 0.383980 0.569021 -0.392846
C11   C     C_R   0.127663 0.602003 0.430985 0.124930
C12   C     C_R   0.522100 0.700352 0.501296 0.871994
C13   C     C_R   0.871282 0.395992 0.565681 0.149751
C14   C     C_R   0.155985 0.448194 0.528952 -0.048863
C15   C     C_R   0.845357 0.553541 0.473175 -0.018669
C16   C     C_R   0.577079 0.494875 0.680581 0.921138
C17   C     C_R   0.422859 0.503831 0.319624 0.873112
C18   C     C_R   0.036921 0.458081 0.525238 0.100112
C19   C     C_R   0.964464 0.543696 0.476445 0.089614
C20   C     C_R   0.624949 0.483394 0.784890 -0.074094
C21   C     C_R   0.374603 0.505804 0.215485 -0.063729
C22   C     C_R   0.782604 0.430561 0.942892 0.004583
C23   C     C_R   0.648940 0.464237 0.115926 -0.045131
C24   C     C_R   0.228343 0.562135 0.054891 0.016911
C25   C     C_R   0.743427 0.447703 0.843898 -0.244252
C26   C     C_R   0.263960 0.553256 0.154023 -0.231786
C27   C     C_R   0.544879 0.500750 0.824259 -0.168711
C28   C     C_R   0.449495 0.467624 0.178662 -0.268221
C29   C     C_R   0.572530 0.469021 0.918520 0.098230
C30   C     C_R   0.428507 0.491340 0.084455 0.055335
C31   C     C_R   0.696080 0.442376 0.981291 0.073329
C32   C     C_R   0.309387 0.526152 0.019179 0.152137
C33   C     C_R   0.481058 0.471758 0.952370 0.070884
C34   C     C_R   0.351630 0.474254 0.889388 -0.037177
C35   C     C_R   0.520101 0.475265 0.052570 -0.043944
C36   C     C_2   0.831665 0.313126 0.616091 0.434726
C37   C     C_2   0.165821 0.676271 0.372293 0.406720
C38   C     C_2   0.913543 0.400267 0.999885 0.349621
C39   C     C_2   0.110418 0.614817 0.993989 0.377670
C40   C     C_2   0.707793 0.497797 0.216674 0.378076
C41   C     C_2   0.293571 0.426143 0.794361 0.363103
C42   C     C_R   0.729755 0.434632 0.079780 -0.161836
C43   C     C_R   0.270725 0.512017 0.921531 -0.260590
C44   C     C_R   0.534423 0.811535 0.500787 -0.056625
C45   C     C_R   0.464707 0.188546 0.497875 -0.056744
C46   C     C_R   0.359491 0.030634 0.513635 -0.181411
H1    H     H_    0.822869 0.416779 0.130590 0.247664
H2    H     H_    0.628685 0.171640 0.476851 0.150983
H3    H     H_    0.702086 0.818758 0.481125 0.161688
H4    H     H_    0.297320 0.181308 0.517936 0.169881
H5    H     H_    0.284042 0.991696 0.523577 0.157364
H6    H     H_    0.714427 0.008410 0.474169 0.144606
H7    H     H_    0.788969 0.618960 0.434210 0.113828
H8    H     H_    0.212610 0.383095 0.568432 0.165305
H9    H     H_    0.848556 0.232676 0.609642 0.030160
H10   H     H_    0.231527 0.655468 0.347307 0.118174
H11   H     H_    0.957654 0.357104 0.966085 0.092522
H12   H     H_    0.174117 0.518275 0.871344 0.186082
H13   H     H_    0.040989 0.619414 0.020122 0.113824
H14   H     H_    0.668296 0.559408 0.238097 0.075898
H15   H     H_    0.203782 0.451363 0.740796 0.066760
H16   H     H_    0.954732 0.680695 0.388858 0.177570
H17   H     H_    0.043010 0.317024 0.607152 0.155103
H18   H     H_    0.525361 0.419223 0.225175 0.172096
H19   H     H_    0.459018 0.538953 0.779871 0.153297
H20   H     H_    0.206520 0.584344 0.183312 0.157886
H21   H     H_    0.806866 0.436152 0.813428 0.199072
H22   H     H_    0.369431 0.828493 0.520477 0.176789
N1    N     N_R   0.799120 0.480200 0.517090 -0.104825
N2    N     N_R   0.200880 0.519800 0.482910 -0.147492
O1    O     O_R   0.580150 0.341050 0.504560 -0.604041
O2    O     O_2   0.121650 0.762546 0.349083 -0.597409
O3    O     O_2   0.976217 0.428219 0.081452 -0.599584
O4    O     O_2   0.091773 0.658496 0.917121 -0.574551
O5    O     O_2   0.801934 0.457541 0.276594 -0.572758
O6    O     O_2   0.342111 0.354533 0.776915 -0.561801
O7    O     O_R   0.419850 0.658950 0.495440 -0.655140
O8    O     O_R   0.388090 0.353760 0.493600 -0.621466
O9    O     O_R   0.611910 0.646240 0.506400 -0.628085
O10   O     O_R   0.650890 0.490020 0.640860 -0.558203
O11   O     O_R   0.349110 0.509980 0.359140 -0.634111
O12   O     O_R   0.458830 0.502730 0.629890 -0.616205
O13   O     O_R   0.541170 0.497270 0.370110 -0.623395
O14   O     O_2   0.789296 0.332975 0.671003 -0.568097
Zn1   Zn    Zn3+2 0.628240 0.491510 0.507320 0.989710
Zn2   Zn    Zn3+2 0.371760 0.508490 0.492680 0.954077

loop_
_geom_bond_atom_site_label_1
_geom_bond_atom_site_label_2
_ccdc_geom_bond_type
C21   C26   A    
C40   H14   S    
C31   C42   A    
C27   C29   A    
C14   C18   A    
C2    C7    A    
C25   H21   S    
C41   H15   S    
C11   N2    A    
C7    C8    A    
C15   C19   A    
C1    O1    A    
C23   C42   A    
C30   C35   A    
C15   H7    S    
C10   C18   A    
C24   C26   A    
C20   C25   A    
C23   C40   S    
C22   C38   S    
C12   O9    A    
C29   C33   A    
C24   C39   S    
C18   C19   A    
C39   O4    D    
C11   C37   S    
C43   H12   S    
O1    Zn1   S    
C37   H10   S    
C9    C19   A    
C10   H17   S    
C22   C25   A    
O11   Zn2   S    
O8    Zn2   S    
C6    H22   S    
C6    C44   A    
C1    O8    A    
C14   N2    A    
C34   C41   S    
C3    H4    S    
C15   N1    A    
C5    H2    S    
C22   C31   A    
C9    H16   S    
C26   H20   S    
C13   C36   S    
C5    C7    A    
C6    C8    A    
C4    C44   A    
O12   Zn2   S    
C5    C45   A    
C46   H5    S    
C3    C45   A    
C17   C21   S    
C16   O10   A    
C2    C4    A    
C24   C32   A    
O10   Zn1   S    
C27   H19   S    
C38   H11   S    
C16   C20   S    
C39   H13   S    
C12   O7    A    
C16   O12   A    
C33   C34   A    
C9    C11   A    
C2    H6    S    
C28   H18   S    
C14   H8    S    
C21   C28   A    
O7    Zn2   S    
C23   C35   A    
N2    Zn2   S    
O9    Zn1   S    
N1    Zn1   S    
O13   Zn1   S    
C34   C43   A    
C10   C13   A    
C20   C27   A    
C3    C46   A    
C40   O5    D    
C4    H3    S    
C28   C30   A    
C29   C31   A    
C36   H9    S    
C41   O6    D    
C30   C32   A    
C1    C45   S    
C13   N1    A    
C36   O14   D    
C33   C35   A    
C32   C43   A    
C17   O11   A    
C42   H1    S    
C8    C46   A    
C12   C44   S    
C37   O2    D    
C17   O13   A    
C38   O3    D    
