data_mof_unit_43550.cif
_audit_creation_date              2012-12-10T18:02:07-0500
_audit_creation_method            fapswitch 2.2
_symmetry_space_group_name_H-M    P1
_symmetry_Int_Tables_number       1
_space_group_crystal_system       triclinic
_cell_length_a                    10.856018
_cell_length_b                    9.75753
_cell_length_c                    23.297895
_cell_angle_alpha                 89.679291
_cell_angle_beta                  102.313146
_cell_angle_gamma                 90.410848
_cell_volume                      2411.04483605

loop_
_atom_site_label
_atom_site_type_symbol
_atom_type_description
_atom_site_fract_x
_atom_site_fract_y
_atom_site_fract_z
_atom_type_partial_charge
C1    C     C_R   0.264594 0.499813 0.504354 0.869621
C2    C     C_R   0.735232 0.500634 0.495413 0.849552
C3    C     C_R   0.609574 0.471727 0.248230 0.447429
C4    C     C_R   0.352630 0.398991 0.735506 0.441193
C5    C     C_R   0.606572 0.476403 0.308435 -0.285298
C6    C     C_R   0.371576 0.429206 0.679132 -0.283621
C7    C     C_R   0.493282 0.498231 0.326732 -0.185085
C8    C     C_R   0.483682 0.490813 0.670708 -0.165511
C9    C     C_R   0.384999 0.531026 0.283678 0.298820
C10   C     C_R   0.577748 0.525464 0.720681 0.257958
C11   C     C_R   0.394160 0.543713 0.225240 0.255721
C12   C     C_R   0.551599 0.513682 0.776950 0.237549
C13   C     C_R   0.493421 0.479080 0.205656 0.036942
C14   C     C_R   0.442707 0.443535 0.785103 0.079633
C15   C     C_R   0.063712 0.375565 0.505624 0.229199
C16   C     C_R   0.935848 0.627439 0.494743 0.277203
C17   C     C_R   0.932789 0.376936 0.490970 0.242234
C18   C     C_R   0.067087 0.626210 0.507920 0.205088
C19   C     C_R   0.868220 0.502081 0.491156 -0.304942
C20   C     C_R   0.131542 0.500290 0.508532 -0.329799
C21   C     C_R   0.417301 0.076071 0.456887 0.328290
C22   C     C_R   0.580480 0.927319 0.545005 0.319958
C23   C     C_R   0.583777 0.077135 0.542962 0.328344
C24   C     C_R   0.422403 0.927224 0.454549 0.309484
C25   C     C_R   0.494685 0.499830 0.390377 0.923961
C26   C     C_R   0.501734 0.498790 0.609464 0.835070
C27   C     C_R   0.518614 0.329229 0.878252 0.697410
C28   C     C_R   0.354736 0.427066 0.109132 0.652345
C29   C     C_R   0.339884 0.474319 0.867150 0.694421
C30   C     C_R   0.559457 0.347215 0.125268 0.697264
C31   C     C_R   0.332093 0.449586 0.925992 -0.136973
C32   C     C_R   0.554244 0.336833 0.063902 -0.132342
C33   C     C_R   0.437181 0.388382 0.963785 -0.074972
C34   C     C_R   0.445358 0.387737 0.025059 -0.077957
C35   C     C_R   0.533647 0.328290 0.940147 -0.128581
C36   C     C_R   0.341808 0.431795 0.047808 -0.122231
C37   C     C_R   0.225746 0.487066 0.948478 0.250439
C38   C     C_R   0.653335 0.281094 0.040361 0.266603
C39   C     C_R   0.230114 0.477306 0.009181 0.261839
C40   C     C_R   0.642069 0.274247 0.978859 0.257844
Cu1   Cu    Cu3+1 0.500000 0.640660 0.500000 1.134977
Cu2   Cu    Cu3+1 0.500000 0.359340 0.500000 1.136187
H1    H     H_    0.693700 0.468065 0.341188 0.194224
H2    H     H_    0.300956 0.397826 0.641138 0.200645
N1    N     N_R   0.430336 0.411606 0.844236 -0.440712
N2    N     N_R   0.472468 0.424294 0.145301 -0.446684
N3    N     N_R   0.500000 0.852070 0.500000 -0.285442
N4    N     N_R   0.500000 0.147930 0.500000 -0.303936
O1    O     O_R   0.319640 0.618740 0.500000 -0.523260
O2    O     O_R   0.680360 0.381260 0.500000 -0.506547
O3    O     O_R   0.680360 0.618740 0.500000 -0.532865
O4    O     O_R   0.319640 0.381260 0.500000 -0.515862
O5    O     O_R   0.499960 0.618810 0.417880 -0.495829
O6    O     O_R   0.500040 0.381190 0.582120 -0.514551
O7    O     O_R   0.500040 0.618810 0.582120 -0.540306
O8    O     O_R   0.499960 0.381190 0.417880 -0.522239
O9    O     O_2   0.592357 0.252286 0.851668 -0.413372
O10   O     O_2   0.251829 0.411020 0.132195 -0.418330
O11   O     O_2   0.262380 0.564617 0.833721 -0.417668
O12   O     O_2   0.641396 0.271468 0.163718 -0.407506
Br1   Br    Br    0.067193 0.536347 0.896811 -0.159878
Br2   Br    Br    0.811902 0.225584 0.090489 -0.168628
Br3   Br    Br    0.085689 0.541933 0.037749 -0.180412
Br4   Br    Br    0.784734 0.203788 0.950377 -0.188980
S1    S     S_3+6 0.758636 0.505607 0.231040 0.115347
O13   O     O_2   0.744544 0.553121 0.168501 -0.228875
O14   O     O_2   0.824113 0.616257 0.271142 -0.219328
O15   O     O_3   0.847749 0.363726 0.242663 -0.420225
H3    H     H_    0.928407 0.390309 0.232158 0.414919
S2    S     S_3+6 0.218029 0.301156 0.741773 0.105585
O16   O     O_2   0.111520 0.396805 0.744446 -0.192529
O17   O     O_2   0.179635 0.210170 0.689036 -0.197716
O18   O     O_3   0.248322 0.203150 0.802722 -0.501004
H4    H     H_    0.165196 0.166278 0.806546 0.406532
Br5   Br    Br    0.217068 0.534813 0.297067 -0.257410
Br6   Br    Br    0.750294 0.560086 0.717294 -0.240063
Br7   Br    Br    0.296786 0.686827 0.179099 -0.209402
Br8   Br    Br    0.666667 0.591880 0.843874 -0.242283
Br9   Br    Br    0.143268 0.201869 0.531136 -0.244055
Br10  Br    Br    0.855037 0.803147 0.473384 -0.237706
Br11  Br    Br    0.848324 0.207902 0.460973 -0.260757
Br12  Br    Br    0.152518 0.798299 0.533349 -0.268363
S3    S     S_3+6 0.301286 0.163429 0.400759 0.141623
O19   O     O_2   0.336701 0.138602 0.342717 -0.183078
O20   O     O_2   0.175692 0.098202 0.401919 -0.211411
O21   O     O_3   0.273239 0.331573 0.399569 -0.495342
H5    H     H_    0.180317 0.341610 0.389368 0.379283
S4    S     S_3+6 0.672928 0.840541 0.610803 0.172194
O22   O     O_2   0.775129 0.917411 0.651266 -0.086851
O23   O     O_2   0.583098 0.801185 0.649079 -0.251696
O24   O     O_3   0.756161 0.708086 0.594867 -0.460246
H6    H     H_    0.719392 0.623765 0.607117 0.358903
S5    S     S_3+6 0.699430 0.167903 0.598673 0.147937
O25   O     O_2   0.667910 0.135397 0.657106 -0.194308
O26   O     O_2   0.826371 0.111718 0.595168 -0.180367
O27   O     O_3   0.723821 0.337427 0.601819 -0.529293
H7    H     H_    0.806648 0.350927 0.628930 0.388433
S6    S     S_3+6 0.342653 0.841637 0.386824 0.147420
O28   O     O_2   0.236724 0.911052 0.345403 -0.133159
O29   O     O_2   0.440754 0.817234 0.351267 -0.225420
O30   O     O_3   0.275738 0.694830 0.400830 -0.491395
H8    H     H_    0.189376 0.719072 0.404770 0.376979

loop_
_geom_bond_atom_site_label_1
_geom_bond_atom_site_label_2
_ccdc_geom_bond_type
C38   C40   A    
S5    O25   D    
C8    C26   S    
O18   H4    S    
C25   O8    A    
C26   O7    A    
C4    S2    S    
C28   N2    A    
O30   H8    S    
C24   S6    S    
C18   Br12  S    
C25   O5    A    
C13   N2    S    
C33   C35   A    
C12   Br8   S    
C18   C20   A    
C7    C9    A    
Cu1   Cu2   S    
Cu1   O7    S    
C11   Br7   S    
Cu2   O8    S    
C10   Br6   S    
C15   Br9   S    
C29   O11   S    
O15   H3    S    
S1    O14   D    
C30   O12   S    
C31   C33   A    
S2    O16   D    
C32   C38   A    
C2    O2    A    
C34   C36   A    
C3    C13   A    
C21   N4    A    
C27   N1    A    
C22   N3    A    
C5    H1    S    
S5    O26   D    
C6    H2    S    
C3    S1    S    
C26   O6    A    
Cu1   O1    S    
C14   N1    S    
C15   C20   A    
C37   C39   A    
C21   S3    S    
C4    C6    A    
C27   O9    S    
O24   H6    S    
C5    C7    A    
O21   H5    S    
C6    C8    A    
C27   C35   A    
C23   S5    S    
C29   N1    A    
C16   Br10  S    
C32   C34   A    
S3    O19   D    
S4    O24   S    
S1    O15   S    
O27   H7    S    
S2    O18   S    
C33   C34   A    
Cu1   N3    S    
Cu2   N4    S    
C9    C11   A    
Cu1   O5    S    
C10   C12   A    
Cu2   O2    S    
C8    C10   A    
S3    O20   D    
S4    O23   D    
S6    O28   D    
S5    O27   S    
C22   S4    S    
C15   C17   A    
C1    C20   S    
C23   N4    A    
C2    C19   S    
C24   N3    A    
C30   N2    A    
C36   C39   A    
C12   C14   A    
C3    C5    A    
C40   Br4   S    
C37   Br1   S    
C28   O10   S    
S6    O30   S    
C39   Br3   S    
S6    O29   D    
C7    C25   S    
C35   C40   A    
C29   C31   A    
Cu2   O6    S    
C30   C32   A    
C11   C13   A    
C16   C19   A    
C17   C19   A    
C17   Br11  S    
C4    C14   A    
C1    O4    A    
C2    O3    A    
C31   C37   A    
S3    O21   S    
S4    O22   D    
C28   C36   A    
C16   C18   A    
S1    O13   D    
C21   C24   A    
C22   C23   A    
S2    O17   D    
C9    Br5   S    
C1    O1    A    
Cu1   O3    S    
Cu2   O4    S    
C38   Br2   S    
