data_mof_unit_36943.cif
_audit_creation_date              2013-03-05T15:51:59-0500
_audit_creation_method            fapswitch 2.2
_symmetry_space_group_name_H-M    P1
_symmetry_Int_Tables_number       1
_space_group_crystal_system       triclinic
_cell_length_a                    18.952715
_cell_length_b                    11.038103
_cell_length_c                    18.788673
_cell_angle_alpha                 90.000181
_cell_angle_beta                  91.176358
_cell_angle_gamma                 90.001388
_cell_volume                      3929.79992934

loop_
_atom_site_label
_atom_site_type_symbol
_atom_site_description
_atom_site_fract_x
_atom_site_fract_y
_atom_site_fract_z
_atom_type_partial_charge
O1    O     O_R   0.214300 0.709080 0.827500 -0.532022
O2    O     O_R   0.785700 0.709080 0.172500 -0.532363
O3    O     O_R   0.714300 0.209080 0.827500 -0.535887
O4    O     O_R   0.285700 0.209080 0.172500 -0.535566
O5    O     O_R   0.236190 0.958390 0.823150 -0.510353
O6    O     O_R   0.763810 0.958390 0.176850 -0.511520
O7    O     O_R   0.736190 0.458390 0.823150 -0.509339
O8    O     O_R   0.263810 0.458390 0.176850 -0.508217
C1    C     C_R   0.291013 0.998988 0.861207 0.563298
C2    C     C_R   0.708989 0.998993 0.138795 0.563175
C3    C     C_R   0.787981 0.506735 0.861504 0.553282
C4    C     C_R   0.212032 0.506763 0.138497 0.553435
O9    O     O_R   0.332090 0.075280 0.831290 -0.453167
O10   O     O_R   0.667910 0.075280 0.168710 -0.453020
O11   O     O_R   0.832090 0.575280 0.831290 -0.447354
O12   O     O_R   0.167910 0.575280 0.168710 -0.447523
O13   O     O_R   0.446280 0.918040 0.826620 -0.467223
O14   O     O_R   0.553720 0.918040 0.173380 -0.467683
O15   O     O_R   0.946280 0.418040 0.826620 -0.466622
O16   O     O_R   0.053720 0.418040 0.173380 -0.466170
C5    C     C_R   0.469634 0.820469 0.855792 0.545747
C6    C     C_R   0.530361 0.820468 0.144211 0.544850
C7    C     C_R   0.969063 0.321349 0.856051 0.541603
C8    C     C_R   0.030933 0.321347 0.143951 0.542457
O17   O     O_R   0.457080 0.716270 0.831760 -0.524531
O18   O     O_R   0.542920 0.716270 0.168240 -0.524697
O19   O     O_R   0.957080 0.216270 0.831760 -0.529635
O20   O     O_R   0.042920 0.216270 0.168240 -0.529463
O21   O     O_R   0.320980 0.624440 0.823040 -0.497265
O22   O     O_R   0.679020 0.624440 0.176960 -0.496378
O23   O     O_R   0.820980 0.124440 0.823040 -0.496238
O24   O     O_R   0.179020 0.124440 0.176960 -0.497120
C9    C     C_R   0.260188 0.634976 0.850513 0.542679
C10   C     C_R   0.739811 0.634982 0.149484 0.543145
C11   C     C_R   0.759537 0.133171 0.850434 0.533927
C12   C     C_R   0.240463 0.133165 0.149568 0.533478
O25   O     O_R   0.213880 0.710510 0.665560 -0.525977
O26   O     O_R   0.786120 0.710510 0.334440 -0.518758
O27   O     O_R   0.713880 0.210510 0.665560 -0.517830
O28   O     O_R   0.286120 0.210510 0.334440 -0.525119
O29   O     O_R   0.235800 0.959720 0.673040 -0.508920
O30   O     O_R   0.764200 0.959720 0.326960 -0.506676
O31   O     O_R   0.735800 0.459720 0.673040 -0.506365
O32   O     O_R   0.264200 0.459720 0.326960 -0.508545
C13   C     C_R   0.271940 0.044306 0.645328 0.548636
C14   C     C_R   0.728881 0.046247 0.353562 0.554889
C15   C     C_R   0.771124 0.546223 0.646432 0.555776
C16   C     C_R   0.228061 0.544311 0.354670 0.549542
O33   O     O_R   0.331670 0.076720 0.669350 -0.518100
O34   O     O_R   0.668330 0.076720 0.330650 -0.524891
O35   O     O_R   0.831670 0.576720 0.669350 -0.524283
O36   O     O_R   0.168330 0.576720 0.330650 -0.517484
O37   O     O_R   0.445900 0.919370 0.676500 -0.509075
O38   O     O_R   0.554100 0.919370 0.323500 -0.511755
O39   O     O_R   0.945900 0.419370 0.676500 -0.512261
O40   O     O_R   0.054100 0.419370 0.323500 -0.509571
C17   C     C_R   0.465905 0.823065 0.644714 0.544207
C18   C     C_R   0.529037 0.823265 0.352253 0.544264
C19   C     C_R   0.970954 0.323266 0.647741 0.543440
C20   C     C_R   0.034074 0.323063 0.355278 0.543215
O41   O     O_R   0.456660 0.717710 0.669820 -0.518789
O42   O     O_R   0.543340 0.717710 0.330180 -0.523675
O43   O     O_R   0.956660 0.217710 0.669820 -0.523538
O44   O     O_R   0.043340 0.217710 0.330180 -0.518704
O45   O     O_R   0.320590 0.625770 0.672930 -0.509144
O46   O     O_R   0.679410 0.625770 0.327070 -0.510294
O47   O     O_R   0.820590 0.125770 0.672930 -0.508827
O48   O     O_R   0.179410 0.125770 0.327070 -0.507640
C21   C     C_R   0.259406 0.635933 0.644395 0.552126
C22   C     C_R   0.740130 0.638015 0.356685 0.546234
C23   C     C_R   0.759871 0.138016 0.643313 0.548037
C24   C     C_R   0.240604 0.135910 0.355600 0.553785
Cr1   Cr    Cr6+3 0.229640 0.835880 0.747370 1.011650
Cr2   Cr    Cr6+3 0.770360 0.835880 0.252630 1.014247
Cr3   Cr    Cr6+3 0.729640 0.335880 0.747370 1.015016
Cr4   Cr    Cr6+3 0.270360 0.335880 0.252630 1.012409
Cr5   Cr    Cr6+3 0.387390 0.989720 0.750850 1.065293
Cr6   Cr    Cr6+3 0.612610 0.989720 0.249150 1.061459
Cr7   Cr    Cr6+3 0.887390 0.489720 0.750850 1.063485
Cr8   Cr    Cr6+3 0.112610 0.489720 0.249150 1.067300
Cr9   Cr    Cr6+3 0.385770 0.677220 0.749340 1.016703
Cr10  Cr    Cr6+3 0.614230 0.677220 0.250660 1.014816
Cr11  Cr    Cr6+3 0.885770 0.177220 0.749340 1.014944
Cr12  Cr    Cr6+3 0.114230 0.177220 0.250660 1.016841
O49   O     O_3   0.334270 0.834280 0.749190 -0.281916
O50   O     O_3   0.665730 0.834280 0.250810 -0.279755
O51   O     O_3   0.834270 0.334280 0.749190 -0.275990
O52   O     O_3   0.165730 0.334280 0.250810 -0.278099
C25   C     C_3   0.471061 0.920107 0.028478 -0.047867
C26   C     C_3   0.528945 0.920098 0.971527 -0.047904
C27   C     C_3   0.971322 0.426786 0.028952 -0.032877
C28   C     C_3   0.028666 0.426789 0.971052 -0.032842
C29   C     C_3   0.430324 0.820578 0.987199 -0.121892
C30   C     C_3   0.569668 0.820557 0.012807 -0.121702
C31   C     C_3   0.930020 0.327423 0.988212 -0.132642
C32   C     C_3   0.069966 0.327425 0.011789 -0.132836
H1    H     H_    0.372825 0.818599 0.974981 0.113955
H2    H     H_    0.627166 0.818565 0.025024 0.113988
H3    H     H_    0.872277 0.327404 0.976880 0.095247
H4    H     H_    0.127710 0.327418 0.023118 0.095212
H5    H     H_    0.450329 0.998552 0.057500 0.182619
H6    H     H_    0.549687 0.998537 0.942505 0.182595
H7    H     H_    0.948724 0.505605 0.056502 0.175661
H8    H     H_    0.051266 0.505612 0.943506 0.175662
C33   C     C_3   0.488751 0.821721 0.931428 0.043827
C34   C     C_3   0.511241 0.821717 0.068577 0.044206
C35   C     C_3   0.987695 0.327707 0.931639 0.049950
C36   C     C_3   0.012292 0.327704 0.068363 0.049565
C37   C     C_3   0.528860 0.721182 0.971537 -0.126802
C38   C     C_3   0.471119 0.721191 0.028469 -0.126747
C39   C     C_3   0.028222 0.228453 0.971149 -0.147641
C40   C     C_3   0.971761 0.228452 0.028852 -0.147675
H9    H     H_    0.552625 0.640316 0.946469 0.130712
H10   H     H_    0.447346 0.640333 0.053541 0.130770
H11   H     H_    0.045691 0.146588 0.943144 0.133156
H12   H     H_    0.954281 0.146593 0.056858 0.133074
C41   C     C_R   0.224437 0.547252 0.066020 -0.006941
C42   C     C_R   0.775583 0.547226 0.933983 -0.006770
C43   C     C_R   0.714926 0.017441 0.060925 -0.026116
C44   C     C_R   0.285070 0.017442 0.939077 -0.026318
C45   C     C_R   0.290923 0.531401 0.036652 -0.046594
C46   C     C_R   0.709090 0.531396 0.963344 -0.046606
C47   C     C_R   0.772462 0.966597 0.025724 -0.019963
C48   C     C_R   0.227517 0.966635 0.974269 -0.019858
C49   C     C_R   0.302879 0.554342 0.965601 -0.022284
C50   C     C_R   0.697128 0.554351 0.034392 -0.022349
C51   C     C_R   0.785591 0.992353 0.954511 0.012944
C52   C     C_R   0.214392 0.992380 0.045486 0.013007
C53   C     C_R   0.181655 0.611417 0.949660 -0.154047
C54   C     C_R   0.818354 0.611423 0.050341 -0.154161
C55   C     C_R   0.675137 0.094224 0.944804 -0.172918
C56   C     C_R   0.324865 0.094200 0.055204 -0.172839
C57   C     C_R   0.170174 0.601959 0.022187 0.159822
C58   C     C_R   0.829847 0.601941 0.977817 0.159848
C59   C     C_R   0.663102 0.081055 0.017813 0.140424
C60   C     C_R   0.336898 0.081040 0.982194 0.140371
C61   C     C_3   0.338302 0.424558 0.038272 -0.210836
C62   C     C_3   0.661704 0.424561 0.961725 -0.210894
C63   C     C_3   0.848572 0.978865 0.045436 -0.239820
C64   C     C_3   0.151412 0.979029 0.954554 -0.239799
C65   C     C_3   0.351724 0.449463 0.960221 -0.205917
C66   C     C_3   0.648276 0.449479 0.039772 -0.205833
C67   C     C_3   0.862432 0.006570 0.967600 -0.240823
C68   C     C_3   0.137558 0.006707 0.032391 -0.240899
C69   C     C_R   0.247070 0.585454 0.920210 -0.027669
C70   C     C_R   0.752934 0.585463 0.079786 -0.027759
C71   C     C_R   0.739804 0.065342 0.914667 -0.030746
C72   C     C_R   0.260195 0.065330 0.085338 -0.030692
H13   H     H_    0.138998 0.645425 0.916025 0.178942
H14   H     H_    0.861006 0.645437 0.083980 0.178881
H15   H     H_    0.635912 0.141709 0.912784 0.188479
H16   H     H_    0.364093 0.141676 0.087226 0.188519
H17   H     H_    0.871261 0.892398 0.065123 0.206936
H18   H     H_    0.128668 0.892616 0.934847 0.206987
H19   H     H_    0.308636 0.339527 0.047260 0.161801
H20   H     H_    0.691366 0.339527 0.952743 0.161771
H21   H     H_    0.385487 0.438669 0.073386 0.168388
H22   H     H_    0.614524 0.438672 0.926606 0.168288
H23   H     H_    0.856874 0.056446 0.082193 0.131211
H24   H     H_    0.143156 0.056652 0.917816 0.131284
H25   H     H_    0.406744 0.478735 0.950041 0.172742
H26   H     H_    0.593257 0.478757 0.049947 0.172786
H27   H     H_    0.879265 0.100448 0.956909 0.144987
H28   H     H_    0.120769 0.100601 0.043099 0.144965
H29   H     H_    0.330892 0.377799 0.923835 0.172458
H30   H     H_    0.669101 0.377821 0.076163 0.172544
H31   H     H_    0.893181 0.936946 0.939362 0.214309
H32   H     H_    0.106769 0.937114 0.060615 0.214254
C73   C     C_R   0.492861 0.830399 0.420003 0.017972
C74   C     C_R   0.479872 0.829276 0.568893 0.019267
C75   C     C_R   0.020100 0.329259 0.431102 0.019148
C76   C     C_R   0.007125 0.330423 0.579994 0.017520
C77   C     C_R   0.476366 0.723522 0.456395 0.025315
C78   C     C_R   0.470630 0.723639 0.529129 0.042088
C79   C     C_R   0.029549 0.223688 0.470904 0.042260
C80   C     C_R   0.023801 0.223596 0.543643 0.025010
C81   C     C_R   0.483193 0.939824 0.531898 -0.158540
C82   C     C_R   0.488603 0.940461 0.457406 -0.159718
C83   C     C_R   0.011164 0.440452 0.542547 -0.159724
C84   C     C_R   0.016525 0.439813 0.468048 -0.158472
C85   C     C_3   0.511526 0.601833 0.457879 -0.270579
C86   C     C_3   0.505996 0.603848 0.537942 -0.274933
C87   C     C_3   0.994358 0.103757 0.462126 -0.274886
C88   C     C_3   0.988819 0.101769 0.542189 -0.270583
H33   H     H_    0.484575 0.024419 0.560614 0.121992
H34   H     H_    0.494897 0.025561 0.430050 0.116206
H35   H     H_    0.004710 0.525501 0.569882 0.116086
H36   H     H_    0.014864 0.524393 0.439286 0.121540
H37   H     H_    0.029654 0.032571 0.441440 0.134152
H38   H     H_    0.933631 0.105521 0.559631 0.171680
H39   H     H_    0.566704 0.605790 0.440402 0.171844
H40   H     H_    0.470765 0.532528 0.558645 0.134064
H41   H     H_    0.478593 0.530405 0.432007 0.127060
H42   H     H_    0.557814 0.611424 0.566316 0.141377
H43   H     H_    0.942548 0.111108 0.433743 0.140944
H44   H     H_    0.021836 0.030490 0.568069 0.126974
C89   C     C_R   0.240394 0.571484 0.428375 0.023823
C90   C     C_R   0.749527 0.593186 0.578148 0.017361
C91   C     C_R   0.750475 0.093290 0.421841 0.017221
C92   C     C_R   0.259582 0.071524 0.571627 0.023754
C93   C     C_R   0.180854 0.601017 0.467061 0.048114
C94   C     C_R   0.792943 0.676319 0.543792 0.020831
C95   C     C_R   0.706934 0.176140 0.456243 0.020418
C96   C     C_R   0.319097 0.101270 0.532968 0.048247
C97   C     C_R   0.182996 0.605117 0.539629 0.025665
C98   C     C_R   0.792029 0.681575 0.471174 0.048041
C99   C     C_R   0.707847 0.181324 0.528857 0.047486
C100  C     C_R   0.316992 0.105321 0.460399 0.025832
C101  C     C_R   0.303827 0.534228 0.538605 -0.163858
C102  C     C_R   0.698236 0.534478 0.464216 -0.169691
C103  C     C_R   0.801893 0.034741 0.535739 -0.169252
C104  C     C_R   0.196265 0.033895 0.461356 -0.163738
C105  C     C_R   0.301338 0.531858 0.464556 -0.166483
C106  C     C_R   0.697787 0.530207 0.538206 -0.165318
C107  C     C_R   0.802369 0.030609 0.461744 -0.165072
C108  C     C_R   0.198706 0.031626 0.535411 -0.166389
C109  C     C_3   0.135025 0.710149 0.459548 -0.273849
C110  C     C_3   0.871816 0.692601 0.546524 -0.268527
C111  C     C_3   0.628061 0.192117 0.453518 -0.268676
C112  C     C_3   0.364814 0.210535 0.540484 -0.274236
C113  C     C_3   0.135860 0.714899 0.539655 -0.268025
C114  C     C_3   0.869978 0.696379 0.466439 -0.274346
C115  C     C_3   0.629888 0.195822 0.533607 -0.274359
C116  C     C_3   0.364025 0.215222 0.460372 -0.268053
C117  C     C_R   0.246444 0.581047 0.576181 0.019415
C118  C     C_R   0.748008 0.606612 0.430353 0.024388
C119  C     C_R   0.751984 0.106555 0.569648 0.024140
C120  C     C_R   0.253598 0.080995 0.423810 0.019473
H45   H     H_    0.352695 0.510985 0.565781 0.130096
H46   H     H_    0.661037 0.480262 0.433593 0.118789
H47   H     H_    0.839153 0.980636 0.566341 0.118919
H48   H     H_    0.147445 0.010389 0.434150 0.129867
H49   H     H_    0.347130 0.502579 0.435731 0.118761
H50   H     H_    0.661819 0.468906 0.563611 0.130775
H51   H     H_    0.838488 0.969632 0.436291 0.130347
H52   H     H_    0.152918 0.002255 0.564213 0.118526
H53   H     H_    0.082247 0.690502 0.435903 0.136592
H54   H     H_    0.900481 0.612058 0.566641 0.167506
H55   H     H_    0.599502 0.111548 0.433342 0.167950
H56   H     H_    0.417597 0.191033 0.564166 0.136577
H57   H     H_    0.162976 0.787101 0.434523 0.138898
H58   H     H_    0.888170 0.779776 0.571406 0.126241
H59   H     H_    0.611641 0.279241 0.428665 0.125946
H60   H     H_    0.336776 0.287428 0.565472 0.138498
H61   H     H_    0.162298 0.797504 0.559967 0.171681
H62   H     H_    0.886023 0.785066 0.444489 0.135460
H63   H     H_    0.613755 0.284446 0.555594 0.135414
H64   H     H_    0.337538 0.297722 0.440004 0.171621
H65   H     H_    0.083574 0.696207 0.562908 0.126035
H66   H     H_    0.895573 0.616785 0.441503 0.134195
H67   H     H_    0.604397 0.116106 0.558514 0.134662
H68   H     H_    0.416341 0.196642 0.437155 0.126137
N1    N     N_R   0.104885 0.653963 0.047185 0.078301
O53   O     O_R   0.065651 0.598922 0.092420 -0.318466
O54   O     O_R   0.075346 0.741511 0.011291 -0.356239
N2    N     N_R   0.895152 0.653921 0.952827 0.078286
O55   O     O_R   0.934355 0.598928 0.907548 -0.318221
O56   O     O_R   0.924723 0.741412 0.988747 -0.356258
N3    N     N_R   0.601516 0.143528 0.044517 0.071424
O57   O     O_R   0.563614 0.099082 0.094600 -0.312050
O58   O     O_R   0.572839 0.230260 0.007171 -0.340535
N4    N     N_R   0.398484 0.143514 0.955491 0.071352
O59   O     O_R   0.436387 0.099060 0.905414 -0.312298
O60   O     O_R   0.427160 0.230251 0.992835 -0.340511

loop_
_geom_bond_atom_site_label_1
_geom_bond_atom_site_label_2
_geom_bond_distance
_ccdc_geom_bond_type
C18   O42   1.267928 A    
C103  C107  1.391247 A    
O4    C12   1.267933 A    
C99   C115  1.490682 S    
C8    O20   1.265264 A    
O39   C19   1.285815 A    
O20   Cr12  2.079551 S    
C10   C70   1.445296 S    
O29   C13   1.275386 A    
Cr11  O51   1.989521 S    
C39   C40   1.538868 S    
C38   H10   1.109138 S    
C28   C32   1.541729 S    
C41   C57   1.437295 A    
C43   C47   1.403982 A    
C78   C86   1.490155 S    
O26   C22   1.260830 A    
C50   C70   1.388156 A    
O1    C9    1.263722 A    
C64   H24   1.109331 S    
C54   C58   1.388295 A    
C85   C86   1.510227 S    
C13   C92   1.431531 S    
O7    C3    1.318517 A    
C112  H60   1.110603 S    
O5    C1    1.327095 A    
C103  H47   1.081337 S    
C32   H4    1.110611 S    
C68   H32   1.106559 S    
C91   C107  1.406379 A    
O24   C12   1.286413 A    
C77   C85   1.499451 S    
C39   H11   1.100090 S    
C55   C59   1.402736 A    
C31   C40   1.541940 S    
O33   Cr5   2.077477 S    
O26   Cr2   2.085213 S    
N1    O53   1.292392 A    
C104  H48   1.079498 S    
C31   H3    1.110608 S    
C54   C70   1.397733 A    
C55   C71   1.397463 A    
O47   C23   1.275127 A    
C83   H35   1.078240 S    
C63   H17   1.107326 S    
C81   H33   1.078473 S    
C111  H55   1.104134 S    
O21   C9    1.277462 A    
O8    Cr4   1.965719 S    
Cr8   O52   1.989270 S    
O23   Cr11  1.958191 S    
C61   H19   1.108811 S    
C80   C88   1.499282 S    
O30   C14   1.274313 A    
C45   C61   1.482244 S    
O32   Cr4   1.959411 S    
C58   N2    1.450995 S    
C1    O9    1.284197 A    
O44   Cr12  2.078367 S    
C5    O17   1.256553 A    
C2    C43   1.483739 S    
C84   H36   1.078858 S    
C29   C33   1.540134 S    
C3    O11   1.270053 A    
C116  H64   1.104476 S    
O11   Cr7   2.083197 S    
C54   H14   1.083012 S    
C4    O12   1.270051 A    
C49   C65   1.487047 S    
N2    O56   1.298713 A    
C25   C34   1.517726 S    
C90   C94   1.399136 A    
C87   H43   1.110704 S    
C15   C90   1.435534 S    
C110  C114  1.504942 S    
C86   H42   1.110955 S    
O6    Cr2   1.965719 S    
C7    O19   1.265267 A    
O3    Cr3   2.080407 S    
Cr4   O52   1.982695 S    
C53   C69   1.397704 A    
C42   C58   1.437339 A    
C56   C60   1.402735 A    
C29   C38   1.542079 S    
C48   C52   1.395255 A    
O2    C10   1.263690 A    
C110  H58   1.111125 S    
O42   Cr10  2.078367 S    
Cr5   O49   1.989228 S    
O18   Cr10  2.079551 S    
C104  C120  1.407171 A    
C77   C78   1.373113 A    
C68   H28   1.103865 S    
C91   C95   1.398934 A    
C102  C118  1.397582 A    
C112  C116  1.505855 S    
C64   H18   1.107324 S    
C106  H50   1.078770 S    
C35   C39   1.522484 S    
C95   C111  1.505061 S    
C105  H49   1.081799 S    
O34   Cr6   2.077449 S    
Cr7   O51   1.989228 S    
C33   C37   1.534213 S    
C12   C72   1.474924 S    
C75   C79   1.394189 A    
C26   C30   1.542705 S    
C109  H57   1.110598 S    
C109  C113  1.505766 S    
C19   C76   1.460211 S    
O24   Cr12  1.958206 S    
C32   C39   1.541948 S    
O9    Cr5   2.083197 S    
O30   Cr2   1.959411 S    
O22   C10   1.277463 A    
C74   C81   1.406379 A    
C60   N4    1.453859 S    
O48   Cr12  1.958792 S    
C104  C108  1.391433 A    
C6    C34   1.459392 S    
C18   C73   1.460309 S    
C62   H20   1.108794 S    
C46   C62   1.482227 S    
C2    O10   1.284179 A    
C57   N1    1.450927 S    
C27   C28   1.553442 S    
N1    O54   1.298705 A    
O16   Cr8   1.957844 S    
C98   C118  1.393790 A    
C52   C72   1.391373 A    
C51   C67   1.480308 S    
C115  H63   1.107389 S    
O27   C23   1.260882 A    
C88   H44   1.111119 S    
C111  C115  1.505007 S    
C50   C66   1.487025 S    
C32   C36   1.540252 S    
C43   C59   1.442670 A    
C36   C40   1.522488 S    
C93   C109  1.490127 S    
C21   C117  1.434243 S    
O48   C24   1.272575 A    
C44   C60   1.442649 A    
C56   C72   1.397449 A    
O41   Cr9   2.078354 S    
C46   C50   1.382024 A    
O15   C7    1.273403 A    
C87   C88   1.510241 S    
C42   C46   1.396976 A    
C45   C49   1.382022 A    
C9    C69   1.445273 S    
C15   O35   1.263015 A    
C92   C96   1.393323 A    
C66   H30   1.112587 S    
O39   Cr7   1.961576 S    
C86   H40   1.107948 S    
C62   H22   1.111312 S    
C28   C35   1.524399 S    
C47   C51   1.395212 A    
C79   C80   1.373234 A    
O3    C11   1.267954 A    
O8    C4    1.318476 A    
C7    C35   1.458087 S    
N2    O55   1.292386 A    
O25   C21   1.262698 A    
C13   O33   1.261848 A    
C102  H46   1.081463 S    
C116  H68   1.110511 S    
C107  H51   1.078792 S    
C63   C67   1.522182 S    
O36   Cr8   2.077449 S    
C101  H45   1.079332 S    
O47   Cr11  1.958772 S    
Cr2   O50   1.982695 S    
C97   C117  1.397986 A    
O32   C16   1.275417 A    
C52   C68   1.480341 S    
O35   Cr7   2.077477 S    
Cr1   O49   1.982696 S    
O2    Cr2   2.080410 S    
C31   C35   1.540253 S    
C67   H27   1.103866 S    
C8    C36   1.458113 S    
C87   H37   1.107558 S    
C76   C83   1.406458 A    
Cr3   O51   1.982696 S    
O14   Cr6   1.957844 S    
C22   C118  1.431712 S    
O21   Cr9   1.958191 S    
O27   Cr3   2.085197 S    
C61   C65   1.518592 S    
C94   C98   1.365382 A    
O37   Cr5   1.961576 S    
C56   H16   1.082118 S    
C47   C63   1.488057 S    
C53   C57   1.388282 A    
C75   C84   1.406243 A    
C110  H54   1.104532 S    
C41   C45   1.396949 A    
N3    O57   1.292247 A    
C90   C106  1.406343 A    
C114  H66   1.111779 S    
C73   C82   1.406637 A    
C40   H12   1.100105 S    
C96   C112  1.490063 S    
C85   H41   1.111328 S    
C96   C100  1.363956 A    
N4    O60   1.299484 A    
O31   Cr3   1.959413 S    
C79   C87   1.489946 S    
C17   C74   1.455909 S    
O38   C18   1.285817 A    
C49   C69   1.388178 A    
C115  H67   1.111719 S    
C19   O43   1.267925 A    
C63   H23   1.109297 S    
O25   Cr1   2.085197 S    
C30   C34   1.540129 S    
C88   H38   1.103279 S    
C93   C97   1.363975 A    
O22   Cr10  1.958206 S    
O28   C24   1.262669 A    
C25   H5    1.100133 S    
O14   C6    1.283085 A    
C20   C75   1.455994 S    
C23   C119  1.431814 S    
C27   C36   1.524405 S    
C48   C64   1.488108 S    
O5    Cr1   1.965708 S    
C64   C68   1.522124 S    
C26   C33   1.517725 S    
C27   H7    1.103363 S    
N3    O58   1.299488 A    
O17   Cr9   2.079536 S    
O37   C17   1.280529 A    
C66   H26   1.111991 S    
O7    Cr3   1.965708 S    
C17   O41   1.268450 A    
N4    O59   1.292229 A    
C74   C78   1.393954 A    
C37   H9    1.109131 S    
C100  C116  1.505391 S    
C14   O34   1.263004 A    
C30   C37   1.542071 S    
C59   N3    1.453879 S    
O40   Cr8   1.961558 S    
C89   C93   1.393447 A    
C61   H21   1.111322 S    
C16   C89   1.431446 S    
C20   O44   1.268437 A    
O1    Cr1   2.080407 S    
C65   H29   1.112599 S    
C94   C110  1.505434 S    
C26   H6    1.100137 S    
O19   Cr11  2.079536 S    
C99   C119  1.393552 A    
O15   Cr7   1.957869 S    
C101  C117  1.407068 A    
O43   Cr11  2.078354 S    
C102  C106  1.391165 A    
C37   C38   1.545934 S    
C100  C120  1.397971 A    
O46   Cr10  1.958792 S    
Cr10  O50   1.989480 S    
O13   Cr5   1.957869 S    
C85   H39   1.103384 S    
C73   C77   1.402052 A    
Cr6   O50   1.989270 S    
C14   C91   1.435729 S    
O46   C22   1.275119 A    
Cr12  O52   1.989480 S    
C95   C99   1.365273 A    
C67   H31   1.106546 S    
C98   C114  1.490835 S    
O45   C21   1.272472 A    
C113  H61   1.104638 S    
O23   C11   1.286423 A    
C97   C113  1.505519 S    
C92   C108  1.398534 A    
C108  H52   1.081807 S    
C111  H59   1.110759 S    
C55   H15   1.082123 S    
C101  C105  1.391367 A    
C11   C71   1.474929 S    
O10   Cr6   2.083178 S    
C25   C29   1.542701 S    
C65   H25   1.112009 S    
O16   C8    1.273406 A    
Cr9   O49   1.989521 S    
O4    Cr4   2.080410 S    
C109  H53   1.107557 S    
O6    C2    1.327080 A    
C28   H8    1.103364 S    
O29   Cr1   1.959413 S    
C83   C84   1.405523 A    
C82   H34   1.078544 S    
C76   C80   1.402034 A    
C16   O36   1.261852 A    
C89   C105  1.398334 A    
O40   C20   1.280587 A    
C27   C31   1.541740 S    
C34   C38   1.534197 S    
C81   C82   1.405483 A    
C6    O18   1.256550 A    
O28   Cr4   2.085213 S    
C51   C71   1.391390 A    
C62   C66   1.518577 S    
C1    C44   1.483759 S    
C30   H2    1.109270 S    
O45   Cr9   1.958772 S    
C112  H56   1.107618 S    
C103  C119  1.397772 A    
C114  H62   1.107259 S    
C4    C41   1.456879 S    
O12   Cr8   2.083178 S    
C53   H13   1.083015 S    
C25   C26   1.548129 S    
C3    C42   1.456901 S    
O31   C15   1.274178 A    
C113  H65   1.110514 S    
C5    C33   1.459415 S    
C44   C48   1.403964 A    
C29   H1    1.109280 S    
O38   Cr6   1.961558 S    
C24   C120  1.434434 S    
O13   C5    1.283088 A    
