data_mof_unit_61072.cif
_audit_creation_date              2012-10-26T21:17:29-0400
_audit_creation_method            fapswitch 2.2
_symmetry_space_group_name_H-M    P1
_symmetry_Int_Tables_number       1
_space_group_crystal_system       triclinic
_cell_length_a                    17.723174
_cell_length_b                    16.602826
_cell_length_c                    11.705778
_cell_angle_alpha                 90.000066
_cell_angle_beta                  92.938868
_cell_angle_gamma                 90.000015
_cell_volume                      3439.95090156

loop_
_atom_site_label
_atom_site_type_symbol
_atom_type_description
_atom_site_fract_x
_atom_site_fract_y
_atom_site_fract_z
_atom_type_partial_charge
C1    C     C_R   0.355397 0.500000 0.500465 0.560261
C2    C     C_R   0.114460 0.500000 0.501274 0.038206
C3    C     C_1   0.966158 0.500000 0.499598 -0.018030
C4    C     C_1   0.033842 0.500000 0.500402 -0.018030
C5    C     C_R   0.499986 0.500000 0.283814 0.570316
C6    C     C_R   0.500014 0.500000 0.716186 0.570317
C7    C     C_R   0.545523 0.830030 0.579993 0.103812
C8    C     C_R   0.454478 0.169970 0.420006 0.103813
C9    C     C_R   0.454476 0.830030 0.420008 0.103812
C10   C     C_R   0.545522 0.169970 0.579994 0.103813
C11   C     C_R   0.546387 0.744314 0.576967 0.240211
C12   C     C_R   0.644603 0.500000 0.499535 0.560261
C13   C     C_R   0.453613 0.255686 0.423032 0.240211
C14   C     C_R   0.453613 0.744314 0.423033 0.240212
C15   C     C_R   0.546387 0.255686 0.576968 0.240211
C16   C     C_1   0.500000 0.963057 0.500000 -0.030841
C17   C     C_1   0.500000 0.036943 0.500000 -0.030842
C18   C     C_1   0.499977 0.500000 0.162238 0.014890
C19   C     C_1   0.500022 0.500000 0.837762 0.014890
C20   C     C_1   0.499984 0.500000 0.059837 -0.012818
C21   C     C_1   0.500015 0.500000 0.940163 -0.012818
C22   C     C_R   0.500000 0.873787 0.500000 -0.010318
C23   C     C_R   0.767656 0.573093 0.498040 -0.112239
C24   C     C_R   0.500000 0.126213 0.500000 -0.010319
C25   C     C_R   0.846311 0.573000 0.498316 -0.103658
C26   C     C_R   0.153689 0.427000 0.501684 -0.103658
C27   C     C_R   0.153689 0.573000 0.501684 -0.103658
C28   C     C_R   0.846311 0.427000 0.498316 -0.103659
C29   C     C_3   0.555041 0.886887 0.769447 -0.288164
C30   C     C_3   0.444963 0.113114 0.230551 -0.288163
C31   C     C_3   0.444958 0.886889 0.230555 -0.288164
C32   C     C_3   0.555037 0.113115 0.769449 -0.288164
C33   C     C_R   0.232344 0.426907 0.501959 -0.112239
C34   C     C_R   0.232344 0.573093 0.501960 -0.112239
C35   C     C_R   0.767656 0.426907 0.498040 -0.112239
C36   C     C_R   0.727597 0.500000 0.498562 0.019245
C37   C     C_R   0.272402 0.500000 0.501438 0.019244
C38   C     C_R   0.885539 0.500000 0.498726 0.038206
Cu1   Cu    Cu3+1 0.500000 0.580420 0.500000 1.022549
Cu2   Cu    Cu3+1 0.500000 0.419580 0.500000 1.022549
H1    H     H_    0.876500 0.629758 0.498283 0.121566
H2    H     H_    0.505217 0.926631 0.753385 0.131362
H3    H     H_    0.595366 0.916843 0.831511 0.145158
H4    H     H_    0.536345 0.829509 0.807758 0.180388
H5    H     H_    0.381830 0.077947 0.366248 0.255385
H6    H     H_    0.494791 0.073378 0.246614 0.131363
H7    H     H_    0.463651 0.170495 0.192237 0.180391
H8    H     H_    0.404641 0.083152 0.168489 0.145152
H9    H     H_    0.381826 0.922051 0.366255 0.255385
H10   H     H_    0.494782 0.926632 0.246618 0.131364
H11   H     H_    0.404633 0.916846 0.168493 0.145157
H12   H     H_    0.123499 0.370242 0.501717 0.121566
H13   H     H_    0.463652 0.829510 0.192241 0.180389
H14   H     H_    0.618170 0.077948 0.633752 0.255386
H15   H     H_    0.505211 0.073375 0.753386 0.131363
H16   H     H_    0.536346 0.170495 0.807761 0.180390
H17   H     H_    0.595360 0.083156 0.831513 0.145155
H18   H     H_    0.123500 0.629758 0.501717 0.121566
H19   H     H_    0.876500 0.370242 0.498283 0.121566
H20   H     H_    0.738369 0.630320 0.497414 0.154501
H21   H     H_    0.261630 0.369680 0.502585 0.154501
H22   H     H_    0.261630 0.630320 0.502585 0.154502
H23   H     H_    0.738369 0.369680 0.497415 0.154502
H24   H     H_    0.618173 0.922052 0.633748 0.255385
I1    I     I_    0.626167 0.688250 0.695290 -0.321641
I2    I     I_    0.373833 0.311750 0.304710 -0.321643
I3    I     I_    0.373833 0.688250 0.304710 -0.321641
I4    I     I_    0.626167 0.311751 0.695290 -0.321642
N1    N     N_R   0.500000 0.701220 0.500000 -0.258155
N2    N     N_R   0.500000 0.298780 0.500000 -0.258155
N3    N     N_2   0.591703 0.871620 0.663965 -0.492724
N4    N     N_2   0.408299 0.128380 0.336033 -0.492723
N5    N     N_2   0.408296 0.871620 0.336037 -0.492724
N6    N     N_2   0.591701 0.128381 0.663967 -0.492723
O1    O     O_R   0.391260 0.567930 0.500000 -0.486124
O2    O     O_R   0.608740 0.432070 0.500000 -0.486124
O3    O     O_R   0.608740 0.567930 0.500000 -0.486124
O4    O     O_R   0.391260 0.432070 0.500000 -0.486124
O5    O     O_R   0.500010 0.567910 0.337200 -0.475486
O6    O     O_R   0.499990 0.432090 0.662800 -0.475487
O7    O     O_R   0.499990 0.567910 0.662800 -0.475487
O8    O     O_R   0.500010 0.432090 0.337200 -0.475487

loop_
_geom_bond_atom_site_label_1
_geom_bond_atom_site_label_2
_ccdc_geom_bond_type
C8    C13   A    
C29   H2    S    
C34   C37   A    
C35   C36   A    
H9    N5    S    
C7    C11   A    
C6    C19   S    
Cu2   N2    S    
Cu1   O3    S    
C30   H8    S    
C19   C21   T    
C10   C15   A    
C7    N3    S    
C9    C22   A    
C31   N5    S    
C13   N2    A    
C34   H22   S    
H24   N3    S    
H14   N6    S    
C28   C35   A    
C3    C38   S    
C16   C17   T    
C14   I3    S    
Cu2   O6    S    
C2    C27   A    
Cu1   O1    S    
C5    O5    A    
C32   H15   S    
C1    C37   S    
C6    O7    A    
C29   H3    S    
H5    N4    S    
C1    O4    A    
C9    N5    S    
C32   H17   S    
C13   I2    S    
C27   C34   A    
C23   H20   S    
C8    N4    S    
C17   C24   S    
C1    O1    A    
Cu2   O8    S    
C30   H7    S    
Cu1   O7    S    
C25   H1    S    
Cu1   Cu2   S    
C5    C18   S    
C10   C24   A    
C33   C37   A    
Cu2   O2    S    
Cu1   O5    S    
C2    C4    S    
C9    C14   A    
C26   H12   S    
C25   C38   A    
C26   C33   A    
C6    O6    A    
C28   C38   A    
C12   O3    A    
Cu1   N1    S    
C2    C26   A    
C31   H13   S    
C12   O2    A    
C29   H4    S    
C14   N1    A    
Cu2   O4    S    
C12   C36   S    
C31   H10   S    
C3    C4    T    
C28   H19   S    
C15   N2    A    
C16   C22   S    
C30   H6    S    
C31   H11   S    
C27   H18   S    
C30   N4    S    
C11   N1    A    
C7    C22   A    
C32   N6    S    
C5    O8    A    
C10   N6    S    
C15   I4    S    
C8    C24   A    
C18   C20   T    
C23   C25   A    
C20   C21   S    
C33   H21   S    
C23   C36   A    
C35   H23   S    
C32   H16   S    
C11   I1    S    
C29   N3    S    
