data_mof_unit_26354.cif
_audit_creation_date              2012-12-10T17:47:40-0500
_audit_creation_method            fapswitch 2.2
_symmetry_space_group_name_H-M    P1
_symmetry_Int_Tables_number       1
_space_group_crystal_system       triclinic
_cell_length_a                    10.691661
_cell_length_b                    10.759434
_cell_length_c                    9.927371
_cell_angle_alpha                 88.421493
_cell_angle_beta                  90.769333
_cell_angle_gamma                 97.834307
_cell_volume                      1130.86493684

loop_
_atom_site_label
_atom_site_type_symbol
_atom_type_description
_atom_site_fract_x
_atom_site_fract_y
_atom_site_fract_z
_atom_type_partial_charge
C1    C     C_R   0.496078 0.258905 0.502959 0.918274
C2    C     C_R   0.528626 0.060236 0.630510 0.095395
C3    C     C_R   0.493781 0.124470 0.510850 -0.077841
C4    C     C_R   0.258000 0.502718 0.499124 0.940720
C5    C     C_R   0.472911 0.061513 0.389430 -0.173653
C6    C     C_R   0.487055 0.937225 0.383726 -0.152349
C7    C     C_R   0.531014 0.876283 0.496766 -0.108673
C8    C     C_R   0.324123 0.338135 0.153478 -0.283511
C9    C     C_R   0.226696 0.259390 0.098135 0.052397
C10   C     C_R   0.208418 0.262151 0.960759 0.384081
C11   C     C_R   0.300523 0.330516 0.875807 0.211683
C12   C     C_3   0.878437 0.499986 0.500336 0.057648
C13   C     C_R   0.405576 0.418088 0.930960 0.022711
C14   C     C_R   0.409776 0.420096 0.076238 0.128110
C15   C     C_R   0.586616 0.575940 0.070157 -0.079094
C16   C     C_R   0.513356 0.740923 0.498690 0.912797
C17   C     C_R   0.587106 0.575230 0.927625 -0.082171
C18   C     C_R   0.742027 0.499130 0.500588 0.864920
C19   C     C_3   0.072703 0.502654 0.645319 -0.403815
C20   C     C_3   0.931018 0.501752 0.646508 -0.379670
C21   C     C_3   0.085239 0.624215 0.419735 0.460625
C22   C     C_3   0.055543 0.384662 0.429752 -0.371469
C23   C     C_3   0.940124 0.616885 0.418206 -0.399302
C24   C     C_3   0.121384 0.504842 0.497680 -0.006589
C25   C     C_3   0.911285 0.380690 0.432950 -0.384369
C26   C     C_R   0.530457 0.107335 0.763566 -0.105825
C27   C     C_R   0.584102 0.046983 0.871044 -0.176802
C28   C     C_R   0.646127 0.945276 0.847198 -0.106267
C29   C     C_R   0.642841 0.896606 0.718586 0.145932
C30   C     C_R   0.567733 0.942587 0.615169 0.053645
Cl1   Cl    Cl    0.138756 0.636509 0.247850 -0.578991
Cl2   Cl    Cl    0.069187 0.171754 0.897030 -0.493552
Cl3   Cl    Cl    0.276068 0.270553 0.713862 -0.597533
H1    H     H_    0.119412 0.584113 0.702154 0.218177
H2    H     H_    0.093817 0.417204 0.700969 0.259764
H3    H     H_    0.329502 0.331965 0.259730 0.241557
H4    H     H_    0.658857 0.636286 0.873910 0.157408
H5    H     H_    0.886662 0.417455 0.704713 0.213711
H6    H     H_    0.909829 0.584819 0.700302 0.224255
H7    H     H_    0.911888 0.703778 0.457060 0.194506
H8    H     H_    0.086059 0.382960 0.323454 0.230838
H9    H     H_    0.082385 0.299511 0.482681 0.234176
H10   H     H_    0.868342 0.295178 0.489899 0.192273
H11   H     H_    0.872870 0.374412 0.328192 0.207984
H12   H     H_    0.903023 0.611608 0.312897 0.213036
H13   H     H_    0.442862 0.107704 0.298573 0.178876
H14   H     H_    0.488932 0.187523 0.791525 0.206010
H15   H     H_    0.585222 0.084781 0.971123 0.157114
H16   H     H_    0.702484 0.908926 0.926645 0.169158
H17   H     H_    0.460195 0.888199 0.291643 0.196060
H18   H     H_    0.657753 0.638286 0.122753 0.141318
I1    I     I_    0.796938 0.806228 0.672700 -0.373835
I2    I     I_    0.117288 0.126658 0.227672 -0.242357
I3    I     I_    0.168637 0.797048 0.510967 -0.223699
N1    N     N_R   0.498810 0.498800 0.142780 -0.096048
N2    N     N_R   0.498760 0.498720 0.857170 -0.092754
O1    O     O_R   0.500000 0.316780 0.614690 -0.589003
O2    O     O_R   0.499990 0.316750 0.385360 -0.656786
O3    O     O_R   0.314800 0.499990 0.614670 -0.573803
O4    O     O_R   0.314790 0.499970 0.385330 -0.596352
O5    O     O_R   0.500010 0.683250 0.614640 -0.601155
O6    O     O_R   0.500000 0.683220 0.385310 -0.606584
O7    O     O_R   0.685210 0.500030 0.614670 -0.620107
O8    O     O_R   0.685200 0.500010 0.385330 -0.631556
Zn1   Zn    Zn3+2 0.500010 0.500020 0.653130 1.001510
Zn2   Zn    Zn3+2 0.499990 0.499980 0.346870 0.978846

loop_
_geom_bond_atom_site_label_1
_geom_bond_atom_site_label_2
_ccdc_geom_bond_type
C27   H15   S    
C1    C3    S    
O7    Zn1   S    
C6    C7    A    
C23   H12   S    
C15   H18   S    
C29   C30   A    
C20   H5    S    
C9    C10   A    
C21   I3    S    
C19   C20   S    
C12   C23   S    
C12   C25   S    
C2    C30   A    
C13   N2    A    
C18   O8    A    
C25   H10   S    
C14   N1    A    
C3    C5    A    
O4    Zn2   S    
C2    C26   A    
C7    C30   A    
C17   H4    S    
C1    O2    A    
O3    Zn1   S    
C11   C13   A    
C17   N2    A    
C4    O4    A    
C26   C27   A    
C22   H9    S    
C16   O6    A    
C12   C20   S    
C10   Cl2   S    
C26   H14   S    
C25   H11   S    
C7    C16   S    
C22   C25   S    
C15   N1    A    
C19   H2    S    
C2    C3    A    
C1    O1    A    
C21   C23   S    
C8    H3    S    
C5    C6    A    
C4    C24   S    
C22   C24   S    
C18   O7    A    
C22   H8    S    
C9    I2    S    
C10   C11   A    
O6    Zn2   S    
N2    Zn1   S    
O5    Zn1   S    
C11   Cl3   S    
N1    Zn2   S    
C4    O3    A    
C29   I1    S    
C5    H13   S    
C21   C24   S    
C12   C18   S    
C27   C28   A    
C15   C17   A    
C20   H6    S    
C28   C29   A    
C8    C14   A    
C19   H1    S    
C16   O5    A    
C13   C14   A    
C19   C24   S    
O2    Zn2   S    
C6    H17   S    
C23   H7    S    
O1    Zn1   S    
C8    C9    A    
C21   Cl1   S    
C28   H16   S    
O8    Zn2   S    
