data_mof_unit_53843.cif
_audit_creation_date              2012-12-10T17:23:42-0500
_audit_creation_method            fapswitch 2.2
_symmetry_space_group_name_H-M    P1
_symmetry_Int_Tables_number       1
_space_group_crystal_system       triclinic
_cell_length_a                    9.666869
_cell_length_b                    10.809793
_cell_length_c                    17.237827
_cell_angle_alpha                 95.477524
_cell_angle_beta                  86.367489
_cell_angle_gamma                 89.552611
_cell_volume                      1789.29697585

loop_
_atom_site_label
_atom_site_type_symbol
_atom_type_description
_atom_site_fract_x
_atom_site_fract_y
_atom_site_fract_z
_atom_type_partial_charge
C1    C     C_R   0.498740 0.737638 0.505990 0.789795
C2    C     C_R   0.342543 0.506711 0.776799 -0.177115
C3    C     C_R   0.401790 0.573384 0.154896 -0.163711
C4    C     C_R   0.399459 0.546893 0.231902 -0.199866
C5    C     C_R   0.648146 0.569325 0.230728 -0.149374
C6    C     C_R   0.651587 0.595870 0.152794 0.316668
C7    C     C_R   0.528241 0.591512 0.113238 0.103890
C8    C     C_2   0.443407 0.532626 0.984003 -0.207163
C9    C     C_2   0.531685 0.598395 0.028222 -0.150012
C10   C     C_R   0.523007 0.538481 0.269461 -0.090803
C11   C     C_R   0.298595 0.889190 0.614336 -0.204101
C12   C     C_R   0.482049 0.501068 0.650000 0.776329
C13   C     C_R   0.202287 0.961993 0.662644 0.329138
C14   C     C_R   0.200470 0.090432 0.661385 -0.153295
C15   C     C_R   0.296387 0.147153 0.612979 -0.229370
C16   C     C_R   0.394962 0.075568 0.563191 0.094020
C17   C     C_R   0.395059 0.944154 0.563310 0.060237
C18   C     C_R   0.497745 0.872750 0.515867 -0.077173
C19   C     C_R   0.608066 0.931321 0.479318 -0.166319
C20   C     C_R   0.611155 0.058569 0.482384 -0.152219
C21   C     C_R   0.499994 0.131221 0.517358 -0.110841
C22   C     C_R   0.879312 0.391891 0.363113 0.247136
C23   C     C_R   0.499693 0.263824 0.506354 0.833859
C24   C     C_R   0.964301 0.386301 0.293728 0.245789
C25   C     C_R   0.104365 0.371682 0.298751 -0.347684
C26   C     C_R   0.158520 0.375021 0.371522 0.170610
C27   C     C_R   0.082639 0.436916 0.437788 0.157629
C28   C     C_R   0.933675 0.440140 0.435921 0.004300
C29   C     C_R   0.920854 0.565334 0.556934 0.346809
C30   C     C_R   0.067598 0.563395 0.557213 -0.087808
C31   C     C_R   0.517347 0.509470 0.351057 0.849889
C32   C     C_R   0.472489 0.505705 0.735371 -0.040990
C33   C     C_R   0.593526 0.511709 0.776354 -0.140858
C34   C     C_R   0.584863 0.522124 0.857419 -0.117692
C35   C     C_R   0.454900 0.525703 0.898650 0.159674
C36   C     C_R   0.334072 0.515486 0.858038 -0.115858
Cu1   Cu    Cu3+1 0.359340 0.500010 0.500010 0.968952
Cu2   Cu    Cu3+1 0.640660 0.499990 0.499990 1.022290
H1    H     H_    0.695138 0.508431 0.746012 0.191527
H2    H     H_    0.692183 0.878316 0.446910 0.175050
H3    H     H_    0.300711 0.790731 0.620425 0.165982
H4    H     H_    0.127393 0.147106 0.699950 0.172648
H5    H     H_    0.295987 0.247418 0.618450 0.173134
H6    H     H_    0.700845 0.098873 0.455529 0.210477
H7    H     H_    0.300145 0.533885 0.261980 0.180313
H8    H     H_    0.167044 0.335831 0.247005 0.201943
H9    H     H_    0.117389 0.617055 0.603525 0.173634
H10   H     H_    0.743175 0.572721 0.260786 0.183616
H11   H     H_    0.612913 0.651069 0.000704 0.195705
H12   H     H_    0.233187 0.515985 0.889292 0.157944
H13   H     H_    0.304041 0.578425 0.127917 0.173766
H14   H     H_    0.247529 0.501171 0.746625 0.166660
H15   H     H_    0.361323 0.479477 0.010419 0.167996
H16   H     H_    0.679817 0.524823 0.887611 0.161382
N1    N     N_R   0.852190 0.498790 0.499250 -0.203534
N2    N     N_R   0.148060 0.498710 0.499220 -0.202329
O1    O     O_R   0.381190 0.680360 0.500010 -0.589431
O2    O     O_R   0.618760 0.680340 0.500000 -0.551032
O3    O     O_R   0.367440 0.500030 0.613600 -0.613335
O4    O     O_R   0.605010 0.500010 0.613590 -0.549840
O5    O     O_R   0.381240 0.319660 0.500000 -0.554390
O6    O     O_R   0.618810 0.319640 0.499990 -0.542926
O7    O     O_R   0.394990 0.499990 0.386410 -0.573723
O8    O     O_R   0.632560 0.499970 0.386400 -0.563323
Br1   Br    Br    0.827246 0.633501 0.102567 -0.467103
Br2   Br    Br    0.078585 0.886319 0.734308 -0.453097
Br3   Br    Br    0.825266 0.678862 0.634342 -0.455944
Br4   Br    Br    0.748713 0.259825 0.352895 -0.479718
Br5   Br    Br    0.897112 0.344225 0.191774 -0.406452
N3    N     N_3   0.265041 0.285772 0.379051 -0.487480
H17   H     H_    0.338465 0.284558 0.331666 0.226490
H18   H     H_    0.219853 0.197990 0.376423 0.220623

loop_
_geom_bond_atom_site_label_1
_geom_bond_atom_site_label_2
_ccdc_geom_bond_type
C8    H15   S    
C8    C9    D    
Cu1   O5    S    
C24   C25   A    
C34   H16   S    
C16   C21   A    
C6    Br1   S    
C1    O1    A    
C29   C30   A    
C8    C35   S    
C3    C7    A    
C19   C20   A    
C14   C15   A    
C14   H4    S    
C32   C33   A    
Cu1   O3    S    
C17   C18   A    
C1    C18   S    
C15   H5    S    
C5    C10   A    
Cu1   N2    S    
C29   Br3   S    
C1    O2    A    
C12   C32   S    
C11   C13   A    
C22   Br4   S    
C26   C27   A    
Cu1   Cu2   S    
C2    H14   S    
Cu2   O4    S    
C31   O8    A    
Cu1   O7    S    
C28   N1    A    
C33   C34   A    
C24   Br5   S    
C11   H3    S    
C6    C7    A    
Cu2   O8    S    
C13   Br2   S    
C21   C23   S    
C5    C6    A    
C26   N3    S    
C5    H10   S    
C22   C24   A    
N3    H18   S    
C19   H2    S    
Cu2   N1    S    
C4    C10   A    
C4    H7    S    
C12   O4    A    
C31   O7    A    
C30   H9    S    
C23   O5    A    
N3    H17   S    
C9    H11   S    
C20   C21   A    
C2    C32   A    
C34   C35   A    
C2    C36   A    
C27   C28   A    
C7    C9    S    
C3    H13   S    
C27   N2    A    
C18   C19   A    
C22   C28   A    
C35   C36   A    
C29   N1    A    
C13   C14   A    
C20   H6    S    
C25   C26   A    
Cu2   O2    S    
C12   O3    A    
C30   N2    A    
C25   H8    S    
C33   H1    S    
C23   O6    A    
C11   C17   A    
C3    C4    A    
C15   C16   A    
C36   H12   S    
C16   C17   A    
Cu2   O6    S    
Cu1   O1    S    
C10   C31   S    
