data_mof_unit_11339.cif
_audit_creation_date              2012-10-26T18:30:18-0400
_audit_creation_method            fapswitch 2.2
_symmetry_space_group_name_H-M    P1
_symmetry_Int_Tables_number       1
_space_group_crystal_system       triclinic
_cell_length_a                    10.733833
_cell_length_b                    12.946974
_cell_length_c                    11.863268
_cell_angle_alpha                 101.508099
_cell_angle_beta                  95.00651
_cell_angle_gamma                 94.928355
_cell_volume                      1600.29901931

loop_
_atom_site_label
_atom_site_type_symbol
_atom_type_description
_atom_site_fract_x
_atom_site_fract_y
_atom_site_fract_z
_atom_type_partial_charge
C1    C     C_R   0.506649 0.299188 0.476279 0.565104
C2    C     C_R   0.626954 0.576256 0.861410 0.137994
C3    C     C_R   0.562527 0.537494 0.158269 0.255499
C4    C     C_R   0.437473 0.462506 0.841731 0.255500
C5    C     C_R   0.555146 0.524576 0.034269 -0.012490
C6    C     C_R   0.444854 0.475423 0.965731 -0.012490
C7    C     C_R   0.259582 0.500095 0.498881 0.584137
C8    C     C_R   0.740418 0.499905 0.501119 0.584137
C9    C     C_3   0.040965 0.420794 0.547203 -0.176997
C10   C     C_3   0.959035 0.579206 0.452797 -0.176995
C11   C     C_3   0.943270 0.407133 0.440119 0.004301
C12   C     C_R   0.493351 0.700812 0.523721 0.565105
C13   C     C_3   0.056730 0.592867 0.559881 0.004301
C14   C     C_3   0.877031 0.498978 0.502935 -0.000442
C15   C     C_3   0.122969 0.501022 0.497065 -0.000442
C16   C     C_3   0.974029 0.513564 0.609498 -0.008536
C17   C     C_3   0.025971 0.486436 0.390501 -0.008535
C18   C     C_R   0.481677 0.815987 0.542464 0.014233
C19   C     C_R   0.518322 0.184013 0.457536 0.014231
C20   C     C_R   0.444317 0.006420 0.349962 -0.104150
C21   C     C_R   0.555681 0.993580 0.650038 -0.104150
C22   C     C_R   0.470254 0.113777 0.351720 0.004481
C23   C     C_R   0.570735 0.141106 0.549211 0.004884
C24   C     C_R   0.529745 0.886223 0.648280 0.004480
C25   C     C_2   0.885137 0.300237 0.374894 0.306694
C26   C     C_2   0.114863 0.699762 0.625106 0.306697
C27   C     C_2   0.947249 0.525047 0.732538 0.301875
C28   C     C_2   0.052751 0.474953 0.267461 0.301875
C29   C     C_2   0.323953 0.794952 0.367647 0.253458
C30   C     C_2   0.676046 0.205049 0.632353 0.253464
C31   C     C_2   0.547761 0.854812 0.761414 0.304868
C32   C     C_2   0.452237 0.145188 0.238586 0.304869
C33   C     C_2   0.715901 0.657881 0.829167 0.287688
C34   C     C_R   0.429264 0.858894 0.450789 0.004885
C35   C     C_2   0.284099 0.342119 0.170834 0.287688
C36   C     C_R   0.533959 0.033579 0.549749 0.035534
C37   C     C_R   0.466040 0.966421 0.450252 0.035535
C38   C     C_R   0.347886 0.437270 0.023648 0.009882
C39   C     C_R   0.652114 0.562730 0.976352 0.009883
C40   C     C_R   0.373046 0.423745 0.138590 0.137994
Cu1   Cu    Cu3+1 0.509400 0.507730 0.615930 1.107408
Cu2   Cu    Cu3+1 0.490600 0.492270 0.384070 1.107406
H1    H     H_    0.074086 0.355208 0.585417 0.162054
H2    H     H_    0.695479 0.289558 0.639011 0.139086
H3    H     H_    0.629713 0.889173 0.821657 0.112765
H4    H     H_    0.370286 0.110826 0.178343 0.112766
H5    H     H_    0.786662 0.704493 0.894679 0.147304
H6    H     H_    0.213337 0.295509 0.105321 0.147305
H7    H     H_    0.925914 0.644792 0.414583 0.162054
H8    H     H_    0.411054 0.953724 0.267966 0.172138
H9    H     H_    0.588942 0.046276 0.732035 0.172143
H10   H     H_    0.944782 0.242703 0.335771 0.150893
H11   H     H_    0.055218 0.757297 0.664229 0.150893
H12   H     H_    0.886283 0.464162 0.757544 0.134778
H13   H     H_    0.113717 0.535838 0.242456 0.134776
H14   H     H_    0.304527 0.710441 0.360980 0.139088
I1    I     I_    0.317548 0.329199 0.739776 -0.268043
I2    I     I_    0.682452 0.670801 0.260224 -0.268047
I3    I     I_    0.155535 0.444922 0.963608 -0.208218
I4    I     I_    0.844465 0.555079 0.036392 -0.208215
N1    N     N_R   0.523540 0.519360 0.790140 -0.225809
N2    N     N_R   0.476460 0.480640 0.209860 -0.225810
O1    O     O_R   0.506670 0.354460 0.582000 -0.536801
O2    O     O_2   0.228281 0.722897 0.634302 -0.466626
O3    O     O_2   0.994330 0.602143 0.805119 -0.455698
O4    O     O_2   0.005670 0.397857 0.194881 -0.455697
O5    O     O_2   0.249481 0.836973 0.312409 -0.493637
O6    O     O_2   0.750512 0.163031 0.687600 -0.493640
O7    O     O_2   0.466958 0.797513 0.792309 -0.415467
O8    O     O_2   0.533041 0.202487 0.207691 -0.415466
O9    O     O_2   0.711967 0.679432 0.734231 -0.482954
O10   O     O_2   0.288033 0.320568 0.265769 -0.482954
O11   O     O_R   0.493330 0.645540 0.418000 -0.536804
O12   O     O_R   0.490800 0.341410 0.386200 -0.389020
O13   O     O_R   0.509200 0.658590 0.613800 -0.389021
O14   O     O_R   0.324790 0.506500 0.597880 -0.446606
O15   O     O_R   0.675210 0.493500 0.402120 -0.446605
O16   O     O_R   0.308910 0.493440 0.402080 -0.505570
O17   O     O_R   0.691090 0.506560 0.597920 -0.505569
O18   O     O_2   0.771719 0.277103 0.365698 -0.466628

loop_
_geom_bond_atom_site_label_1
_geom_bond_atom_site_label_2
_ccdc_geom_bond_type
C34   C37   A    
Cu1   Cu2   S    
C19   C23   A    
Cu1   N1    S    
C27   H12   S    
C21   C36   A    
C22   C32   S    
C18   C24   A    
C1    O12   A    
C36   C37   A    
C9    C16   S    
C5    C6    A    
C11   C14   S    
C11   C25   S    
C10   C17   S    
C25   O18   D    
C40   N2    A    
C26   O2    D    
C20   H8    S    
C29   O5    D    
C2    C39   A    
C4    I1    S    
C8    O17   A    
C6    C38   A    
Cu2   N2    S    
C2    N1    A    
C16   C27   S    
C7    C15   S    
C12   O11   A    
C30   H2    S    
C35   H6    S    
C1    O1    A    
C28   H13   S    
C9    H1    S    
Cu2   O12   S    
C23   C30   S    
C19   C22   A    
C4    C6    A    
C10   C14   S    
C32   O8    D    
C1    C19   S    
C4    N1    A    
C28   O4    D    
C27   O3    D    
Cu1   O13   S    
C9    C11   S    
C21   C24   A    
C18   C34   A    
C7    O16   A    
C2    C33   S    
C20   C22   A    
C35   O10   D    
Cu2   O16   S    
C5    C39   A    
C8    O15   A    
C33   H5    S    
C14   C16   S    
C13   C26   S    
C13   C16   S    
Cu1   O1    S    
C26   H11   S    
C21   H9    S    
C3    N2    A    
C15   C17   S    
C11   C17   S    
Cu2   O11   S    
C8    C14   S    
C17   C28   S    
C32   H4    S    
C3    C5    A    
C10   C13   S    
Cu1   O17   S    
C7    O14   A    
C29   H14   S    
C13   C15   S    
C35   C40   S    
C9    C15   S    
C25   H10   S    
Cu1   O14   S    
C38   C40   A    
C20   C37   A    
C39   I4    S    
C29   C34   S    
C24   C31   S    
C33   O9    D    
C38   I3    S    
C3    I2    S    
C31   O7    D    
Cu2   O15   S    
C23   C36   A    
C31   H3    S    
C12   O13   A    
C12   C18   S    
C10   H7    S    
C30   O6    D    
