data_mof_unit_32218.cif
_audit_creation_date              2012-12-10T17:29:14-0500
_audit_creation_method            fapswitch 2.2
_symmetry_space_group_name_H-M    P1
_symmetry_Int_Tables_number       1
_space_group_crystal_system       triclinic
_cell_length_a                    12.006392
_cell_length_b                    12.904333
_cell_length_c                    13.184403
_cell_angle_alpha                 87.13602
_cell_angle_beta                  113.37143
_cell_angle_gamma                 93.177223
_cell_volume                      1871.36394309

loop_
_atom_site_label
_atom_site_type_symbol
_atom_type_description
_atom_site_fract_x
_atom_site_fract_y
_atom_site_fract_z
_atom_type_partial_charge
C1    C     C_R   0.478116 0.299947 0.499652 0.858740
C2    C     C_R   0.609949 0.509230 0.827116 -0.183377
C3    C     C_R   0.535463 0.812459 0.504357 -0.309924
C4    C     C_R   0.566717 0.495456 0.708456 0.895292
C5    C     C_R   0.468397 0.189605 0.507378 -0.037552
C6    C     C_R   0.402800 0.034721 0.579173 -0.158415
C7    C     C_R   0.401084 0.141330 0.562898 -0.223924
C8    C     C_R   0.538786 0.133140 0.469618 -0.201659
C9    C     C_R   0.540357 0.026886 0.484652 0.033449
C10   C     C_R   0.468067 0.976148 0.535948 0.069151
C11   C     C_R   0.461890 0.868188 0.542073 0.364044
C12   C     C_R   0.537588 0.531756 0.972508 -0.040195
C13   C     C_R   0.613184 0.864217 0.459912 0.463574
C14   C     C_R   0.614664 0.971609 0.450160 -0.309272
C15   C     C_R   0.000190 0.583166 0.381995 -0.400817
C16   C     C_R   0.522875 0.700597 0.503484 0.949640
C17   C     C_R   0.121753 0.576465 0.394728 0.730875
C18   C     C_R   0.163184 0.466539 0.553773 -0.150210
C19   C     C_R   0.041186 0.470375 0.543597 0.079855
C20   C     C_R   0.958797 0.529810 0.456638 -0.003643
C21   C     C_R   0.836898 0.533824 0.446521 0.025659
C22   C     C_R   0.877451 0.422175 0.604132 0.031584
C23   C     C_R   0.531273 0.478248 0.879538 -0.119996
C24   C     C_R   0.999257 0.416105 0.617507 -0.274065
C25   C     C_R   0.433402 0.504262 0.291836 0.866512
C26   C     C_R   0.265788 0.407258 0.008898 -0.144066
C27   C     C_R   0.390822 0.497512 0.173324 -0.069181
C28   C     C_R   0.708813 0.579269 0.877490 0.458807
C29   C     C_R   0.717816 0.629272 0.971938 -0.317258
C30   C     C_R   0.626232 0.614931 0.011640 0.474737
C31   C     C_3   0.639766 0.800810 0.313909 -0.251111
C32   C     C_3   0.778620 0.706108 0.787321 -0.229104
C33   C     C_3   0.537503 0.763738 0.016367 -0.328278
C34   C     C_R   0.452635 0.501927 0.019621 0.035115
C35   C     C_3   0.266913 0.813334 0.512529 -0.193231
C36   C     C_R   0.353758 0.431303 0.965186 0.033266
C37   C     C_R   0.350284 0.379235 0.873910 0.554025
C38   C     C_R   0.441609 0.398471 0.835635 -0.233392
C39   C     C_R   0.471196 0.530756 0.125535 -0.191666
C40   C     C_R   0.283749 0.441503 0.112821 -0.182484
F1    F     F_    0.159166 0.626451 0.320302 -0.675243
F2    F     F_    0.263534 0.304283 0.826425 -0.712038
H1    H     H_    0.220766 0.415488 0.149963 0.168777
H2    H     H_    0.226808 0.420024 0.619575 0.182575
H3    H     H_    0.187747 0.356388 0.966566 0.190860
H4    H     H_    0.555387 0.568628 0.177783 0.199489
H5    H     H_    0.789306 0.687773 0.007876 0.184175
H6    H     H_    0.440026 0.351804 0.768975 0.162073
H7    H     H_    0.550520 0.757266 0.285953 0.152262
H8    H     H_    0.630274 0.878038 0.270487 0.151113
H9    H     H_    0.701705 0.756229 0.290367 0.217544
H10   H     H_    0.823054 0.761860 0.854537 0.152259
H11   H     H_    0.681657 0.724902 0.740295 0.137932
H12   H     H_    0.354056 0.999176 0.626333 0.179634
H13   H     H_    0.824649 0.716167 0.729074 0.207154
H14   H     H_    0.444102 0.728919 0.975477 0.186624
H15   H     H_    0.567673 0.802372 0.953626 0.179855
H16   H     H_    0.533632 0.824663 0.071073 0.181797
H17   H     H_    0.257563 0.796617 0.427383 0.199340
H18   H     H_    0.221732 0.886576 0.509927 0.135730
H19   H     H_    0.216803 0.750467 0.539244 0.184016
H20   H     H_    0.673739 0.011564 0.415207 0.171230
H21   H     H_    0.350866 0.186225 0.596668 0.169235
H22   H     H_    0.593040 0.172245 0.428981 0.154520
H23   H     H_    0.773103 0.580095 0.380493 0.136606
H24   H     H_    0.846391 0.380787 0.662038 0.143451
H25   H     H_    0.938770 0.629052 0.313666 0.185229
H26   H     H_    0.059946 0.369500 0.685287 0.210084
N1    N     N_R   0.798200 0.480260 0.519790 -0.103851
N2    N     N_R   0.201820 0.519740 0.480210 -0.146379
O1    O     O_R   0.579910 0.341070 0.505280 -0.628346
O2    O     O_3   0.791875 0.602826 0.829967 -0.582991
O3    O     O_3   0.619937 0.688971 0.081077 -0.652378
O4    O     O_3   0.389232 0.816679 0.589900 -0.610836
O5    O     O_R   0.388440 0.353740 0.492580 -0.628647
O6    O     O_R   0.643280 0.490550 0.663120 -0.577451
O7    O     O_R   0.451810 0.503220 0.650420 -0.623529
O8    O     O_R   0.611560 0.646260 0.507420 -0.580855
O9    O     O_R   0.420090 0.658930 0.494720 -0.559579
O10   O     O_R   0.548190 0.496780 0.349580 -0.638882
O11   O     O_R   0.356720 0.509450 0.336880 -0.560337
O12   O     O_3   0.691008 0.810319 0.429567 -0.592222
Zn1   Zn    Zn3+2 0.627850 0.491540 0.508480 0.975991
Zn2   Zn    Zn3+2 0.372150 0.508460 0.491520 1.002505

loop_
_geom_bond_atom_site_label_1
_geom_bond_atom_site_label_2
_ccdc_geom_bond_type
C18   N2    A    
C35   O4    S    
C33   H16   S    
C25   O10   A    
C19   C20   A    
C32   O2    S    
C12   C23   A    
C1    O1    A    
C31   O12   S    
C29   H5    S    
C1    C5    S    
C36   C37   A    
C6    H12   S    
O9    Zn2   S    
O5    Zn2   S    
C14   H20   S    
C35   H17   S    
C18   C19   A    
C37   F2    S    
C22   H24   S    
C26   H3    S    
O8    Zn1   S    
C40   H1    S    
C32   H10   S    
C27   C39   A    
C8    C9    A    
C29   C30   A    
N2    Zn2   S    
C9    C10   A    
C32   H13   S    
C38   H6    S    
C3    C13   A    
C21   H23   S    
C33   H14   S    
C17   N2    A    
C13   C14   A    
C25   O11   A    
C28   O2    S    
C31   H7    S    
O10   Zn1   S    
O6    Zn1   S    
O1    Zn1   S    
C15   C20   A    
C34   C39   A    
C1    O5    A    
C5    C7    A    
C30   O3    S    
O7    Zn2   S    
C13   O12   S    
C21   N1    A    
C35   H18   S    
C2    C4    S    
C9    C14   A    
C37   C38   A    
N1    Zn1   S    
C18   H2    S    
C27   C40   A    
C15   H25   S    
C35   H19   S    
C7    H21   S    
C8    H22   S    
C39   H4    S    
C33   O3    S    
C22   C24   A    
C31   H8    S    
C12   C34   A    
C32   H11   S    
O11   Zn2   S    
C16   O8    A    
C26   C36   A    
C15   C17   A    
C28   C29   A    
C33   H15   S    
C22   N1    A    
C12   C30   A    
C31   H9    S    
C11   O4    S    
C6    C10   A    
C5    C8    A    
C6    C7    A    
C25   C27   S    
C23   C38   A    
C16   O9    A    
C19   C24   A    
C4    O7    A    
C26   C40   A    
C34   C36   A    
C17   F1    S    
C4    O6    A    
C3    C11   A    
C10   C11   A    
C24   H26   S    
C20   C21   A    
C2    C23   A    
C2    C28   A    
C3    C16   S    
