data_mof_unit_22695.cif
_audit_creation_date              2013-03-05T15:45:30-0500
_audit_creation_method            fapswitch 2.2
_symmetry_space_group_name_H-M    P1
_symmetry_Int_Tables_number       1
_space_group_crystal_system       triclinic
_cell_length_a                    27.640627
_cell_length_b                    10.608273
_cell_length_c                    10.04549
_cell_angle_alpha                 91.372492
_cell_angle_beta                  90.389925
_cell_angle_gamma                 89.934395
_cell_volume                      2944.61704696

loop_
_atom_site_label
_atom_site_type_symbol
_atom_site_description
_atom_site_fract_x
_atom_site_fract_y
_atom_site_fract_z
_atom_type_partial_charge
O1    O     O_R   0.499990 0.319060 0.613040 -0.599635
O2    O     O_R   0.500010 0.319100 0.386900 -0.620077
C1    C     C_R   0.500208 0.262170 0.498264 0.947753
O3    O     O_R   0.428750 0.500000 0.613050 -0.623172
O4    O     O_R   0.428760 0.500040 0.386920 -0.634485
C2    C     C_R   0.405971 0.499767 0.499255 0.867093
Zn1   Zn    Zn3+2 0.499990 0.499970 0.650990 0.941403
Zn2   Zn    Zn3+2 0.500010 0.500030 0.349010 0.935625
O5    O     O_R   0.499990 0.680900 0.613100 -0.611825
O6    O     O_R   0.500010 0.680940 0.386960 -0.588688
O7    O     O_R   0.571240 0.499960 0.613080 -0.621312
O8    O     O_R   0.571250 0.500000 0.386950 -0.635752
C3    C     C_R   0.495177 0.737025 0.501395 0.940719
C4    C     C_R   0.594005 0.500377 0.500467 0.891112
C5    C     C_R   0.176922 0.386539 0.486147 0.513531
O9    O     O_2   0.202180 0.285873 0.527561 -0.561545
N1    N     N_R   0.200835 0.497168 0.468804 -0.362316
C6    C     C_R   0.177895 0.604232 0.430734 0.497503
C7    C     C_R   0.279410 0.492841 0.365232 -0.144905
C8    C     C_R   0.329315 0.493526 0.371601 -0.221989
C9    C     C_R   0.326002 0.505010 0.613129 -0.233775
C10   C     C_R   0.275065 0.506711 0.608135 0.293425
C11   C     C_R   0.252276 0.499036 0.481767 0.248981
C12   C     C_R   0.101664 0.491998 0.433511 -0.135839
C13   C     C_R   0.126542 0.379279 0.464005 -0.107714
C14   C     C_R   0.100274 0.264057 0.467895 0.189335
C15   C     C_R   0.127620 0.604221 0.409853 -0.037999
C16   C     C_R   0.353037 0.499376 0.495295 -0.085146
H1    H     H_    0.344903 0.508606 0.707644 0.161968
C17   C     C_R   0.646887 0.503703 0.501451 -0.062569
C18   C     C_R   0.975797 0.397278 0.499608 0.001176
C19   C     C_R   0.974018 0.604661 0.398536 0.072503
C20   C     C_R   0.949679 0.503049 0.457989 0.069623
C21   C     C_R   0.953609 0.313378 0.585583 -0.196333
C22   C     C_R   0.903623 0.316306 0.609803 0.163552
C23   C     C_R   0.875311 0.410990 0.546826 -0.099781
C24   C     C_R   0.899139 0.507471 0.476769 -0.078501
C25   C     C_R   0.872553 0.608764 0.424721 -0.003652
C26   C     C_R   0.822457 0.610787 0.438020 0.483396
N2    N     N_R   0.799495 0.514630 0.499078 -0.338569
C27   C     C_R   0.824149 0.415660 0.551963 0.535140
C28   C     C_R   0.722396 0.495434 0.381985 -0.155522
C29   C     C_R   0.672271 0.490660 0.381589 -0.219392
C30   C     C_R   0.672319 0.521931 0.621845 -0.289758
C31   C     C_R   0.722799 0.528921 0.622721 0.273562
C32   C     C_R   0.747806 0.514484 0.501650 0.304410
O10   O     O_2   0.798640 0.321328 0.605080 -0.589469
C33   C     C_R   0.024991 0.384193 0.464997 -0.006702
C34   C     C_R   0.050650 0.493520 0.430942 0.036356
C35   C     C_R   0.025310 0.604770 0.397369 0.039886
C36   C     C_R   0.049238 0.265835 0.458620 0.120866
H2    H     H_    0.653472 0.475974 0.287544 0.162110
H3    H     H_    0.741730 0.483467 0.289106 0.151498
H4    H     H_    0.976557 0.249680 0.639027 0.158377
O11   O     O_2   0.203963 0.710549 0.416852 -0.532021
C37   C     C_R   0.102414 0.713101 0.369536 0.242026
H5    H     H_    0.349248 0.488847 0.279138 0.165131
H6    H     H_    0.261473 0.487357 0.269036 0.141384
C38   C     C_R   0.946216 0.703862 0.346538 -0.232469
C39   C     C_R   0.896314 0.705270 0.358925 -0.144870
O12   O     O_2   0.796581 0.707908 0.389918 -0.568215
C40   C     C_R   0.052027 0.712731 0.365803 -0.294985
H7    H     H_    0.961839 0.780193 0.292483 0.141942
H8    H     H_    0.653079 0.532802 0.715034 0.159616
H9    H     H_    0.876401 0.782960 0.316761 0.189448
H10   H     H_    0.034753 0.800380 0.341247 0.137887
C41   C     C_2   0.467282 0.931804 0.400546 0.282266
C42   C     C_2   0.483085 0.868220 0.506798 -0.433258
H11   H     H_    0.487582 0.914224 0.603808 0.147781
C43   C     C_2   0.468278 0.069645 0.410409 -0.178830
C44   C     C_2   0.499506 0.128787 0.492704 -0.366289
H12   H     H_    0.444056 0.123936 0.348247 0.163826
H13   H     H_    0.525331 0.080968 0.555664 0.145451
C45   C     C_2   0.463050 0.522279 0.925064 -0.146330
N3    N     N_2   0.500520 0.501330 0.852150 -0.192400
H14   H     H_    0.427530 0.524331 0.878753 0.154921
H15   H     H_    0.532624 0.534887 0.891055 0.177817
C46   C     C_2   0.467107 0.548236 0.072034 -0.029337
N4    N     N_2   0.500540 0.501360 0.147810 -0.080218
H16   H     H_    0.439168 0.605876 0.118252 0.123171
N5    N     N_2   0.127159 0.824148 0.331607 -0.254588
H17   H     H_    0.109712 0.906466 0.359270 0.220927
C47   C     C_3   0.140997 0.823678 0.192976 -0.697497
H18   H     H_    0.162542 0.909454 0.173345 0.237475
H19   H     H_    0.108269 0.823467 0.128028 0.210572
H20   H     H_    0.163513 0.739606 0.168160 0.251562
N6    N     N_2   0.748298 0.547507 0.745205 -0.297098
H21   H     H_    0.730468 0.512949 0.826517 0.227154
C48   C     C_3   0.765402 0.674878 0.769236 -0.762541
H22   H     H_    0.786198 0.679580 0.864185 0.242301
H23   H     H_    0.734296 0.741111 0.776779 0.241628
H24   H     H_    0.789674 0.704366 0.688218 0.261522
N7    N     N_2   0.450071 0.866805 0.282536 -0.270608
H25   H     H_    0.426084 0.794541 0.299427 0.229188
C49   C     C_3   0.439536 0.937541 0.164451 -0.794803
H26   H     H_    0.432358 0.871058 0.079568 0.236536
H27   H     H_    0.471020 0.996706 0.138562 0.253731
H28   H     H_    0.406913 0.997139 0.180127 0.234302
N8    N     N_2   0.246422 0.512609 0.726723 -0.285156
H29   H     H_    0.210675 0.537800 0.714053 0.230887
C50   C     C_3   0.267747 0.562160 0.849276 -0.800827
H30   H     H_    0.239572 0.569840 0.927408 0.239589
H31   H     H_    0.283106 0.657419 0.833785 0.245201
H32   H     H_    0.296096 0.497159 0.885947 0.240473
C51   C     C_3   0.527445 0.387908 0.106480 -0.130095
C52   C     C_3   0.494467 0.274318 0.077055 -0.848710
H33   H     H_    0.465348 0.268823 0.152175 0.266039
H34   H     H_    0.477739 0.279732 0.976787 0.255654
H35   H     H_    0.516271 0.186446 0.079372 0.227180
H36   H     H_    0.553253 0.402553 0.025317 0.123694
H37   H     H_    0.551564 0.361962 0.189799 0.212720
N9    N     N_2   0.124308 0.145171 0.471529 -0.315476
H38   H     H_    0.154869 0.134185 0.414261 0.275921
C53   C     C_3   0.125767 0.087147 0.600425 -0.721823
H39   H     H_    0.143064 0.992862 0.591083 0.250842
H40   H     H_    0.088532 0.074646 0.638862 0.216448
H41   H     H_    0.146886 0.146208 0.672637 0.276681
C54   C     C_3   0.881128 0.221398 0.703624 -0.302956
C55   C     C_3   0.916103 0.138503 0.781868 -0.952202
H42   H     H_    0.936697 0.074980 0.713342 0.259541
H43   H     H_    0.941267 0.197651 0.843244 0.265866
H44   H     H_    0.895172 0.078599 0.849961 0.267995
H45   H     H_    0.859177 0.274077 0.778780 0.239941
H46   H     H_    0.857220 0.156745 0.644688 0.251729
C56   C     C_3   0.022333 0.144295 0.417002 -0.400531
C57   C     C_3   0.996016 0.157736 0.283745 -0.851678
H47   H     H_    0.965949 0.226749 0.292288 0.270461
H48   H     H_    0.021670 0.188692 0.206422 0.259250
H49   H     H_    0.980496 0.065262 0.251696 0.239876
H50   H     H_    0.047357 0.063526 0.403510 0.218512
H51   H     H_    0.996647 0.112370 0.492677 0.197263

loop_
_geom_bond_atom_site_label_1
_geom_bond_atom_site_label_2
_geom_bond_distance
_ccdc_geom_bond_type
C51   H36   1.100896 S    
N7    H25   1.031978 S    
C1    C44   1.414879 S    
C49   H26   1.110433 S    
C12   C15   1.416435 A    
N6    H21   1.031846 S    
C15   C37   1.414295 A    
N9    C53   1.447234 S    
C53   H39   1.110322 S    
C49   H28   1.110609 S    
C37   N5    1.423942 S    
C31   C32   1.408079 A    
C30   H8    1.083472 S    
Zn1   O7    2.008419 S    
N1    C11   1.427054 S    
C45   H14   1.083991 S    
C23   C24   1.420898 A    
C31   N6    1.423522 S    
C28   H3    1.083124 S    
O4    C2    1.296167 A    
O7    C4    1.298324 A    
C46   H16   1.084427 S    
C29   H2    1.083165 S    
C5    C13   1.410590 A    
C52   H33   1.109575 S    
C5    O9    1.347772 S    
N4    C51   1.467014 S    
C5    N1    1.362972 A    
C21   C22   1.404718 A    
C28   C32   1.398693 A    
O5    C3    1.288859 A    
C54   C55   1.531828 S    
C56   H50   1.106909 S    
C33   C36   1.422864 A    
C2    C16   1.463418 S    
N8    H29   1.031120 S    
C42   H11   1.085811 S    
Zn2   N4    2.021694 S    
C18   C20   1.404100 A    
C43   C44   1.337449 D    
C48   H23   1.111586 S    
C51   H37   1.106235 S    
C38   C39   1.385820 A    
C50   H31   1.111318 S    
C9    C10   1.408596 A    
C17   C30   1.404196 A    
C23   C27   1.416198 A    
C4    C17   1.462121 S    
O3    Zn1   2.003116 S    
N9    H38   1.030181 S    
N5    C47   1.446587 S    
N5    H17   1.030336 S    
C55   H43   1.110967 S    
C7    H6    1.083454 S    
N7    C49   1.446523 S    
C26   O12   1.350564 S    
C45   N3    1.288616 D    
C40   H10   1.077834 S    
C41   C42   1.346289 D    
C36   C56   1.536987 S    
C50   H30   1.110980 S    
C12   C13   1.417493 A    
O3    C2    1.301240 A    
C26   N2    1.362463 A    
C44   H13   1.084102 S    
C46   N4    1.299315 D    
Zn1   N3    2.020410 S    
C8    C16   1.401091 A    
C57   H49   1.110845 S    
C13   C14   1.423884 A    
C9    H1    1.080477 S    
C20   C24   1.411487 A    
O1    C1    1.288558 A    
C22   C23   1.429487 A    
C7    C11   1.394777 A    
C24   C25   1.409930 A    
C56   H51   1.103129 S    
C47   H18   1.110369 S    
Zn2   O8    2.003118 S    
N1    C6    1.361658 A    
C27   O10   1.347436 S    
C18   C21   1.399812 A    
C54   H46   1.110800 S    
C48   H24   1.109252 S    
N3    H15   1.027737 S    
C19   C35   1.417887 A    
C6    O11   1.349605 S    
C25   C39   1.398624 A    
N2    C27   1.367141 A    
C47   H19   1.111718 S    
C9    C16   1.404163 A    
O8    C4    1.298462 A    
C39   H9    1.083548 S    
C21   H4    1.076541 S    
C50   H32   1.110047 S    
C18   C33   1.411640 A    
N6    C48   1.446300 S    
C56   C57   1.528751 S    
C35   C40   1.407152 A    
C37   C40   1.392991 A    
C17   C29   1.401603 A    
C28   C29   1.386456 A    
N2    C32   1.429129 S    
C14   N9    1.425898 S    
C30   C31   1.397315 A    
C55   H44   1.110641 S    
C12   C34   1.410220 A    
Zn1   O5    1.965654 S    
C33   C34   1.410418 A    
C57   H48   1.110966 S    
C10   N8    1.434913 S    
N8    C50   1.448863 S    
O1    Zn1   1.947665 S    
O2    Zn2   1.965655 S    
C6    C15   1.403962 A    
O6    C3    1.289357 A    
O4    Zn2   2.008416 S    
C53   H40   1.110896 S    
C55   H42   1.110952 S    
C49   H27   1.109523 S    
C51   C52   1.533639 S    
C38   H7    1.077988 S    
C41   C43   1.463518 S    
C19   C20   1.417449 A    
C7    C8    1.380462 A    
O2    C1    1.283948 A    
C8    H5    1.083265 S    
C14   C36   1.413239 A    
C25   C26   1.392087 A    
C52   H34   1.108155 S    
C57   H47   1.109316 S    
C54   H45   1.111602 S    
C53   H41   1.110324 S    
C47   H20   1.111331 S    
Zn2   O6    1.947664 S    
C34   C35   1.418121 A    
C45   C46   1.498820 S    
C41   N7    1.435621 S    
C10   C11   1.413899 A    
C22   C54   1.530817 S    
C43   H12   1.086537 S    
C19   C38   1.410608 A    
C48   H22   1.110392 S    
C52   H35   1.110070 S    
C3    C42   1.430807 S    
