data_mof_unit_7027.cif
_audit_creation_date              2012-12-10T18:23:04-0500
_audit_creation_method            fapswitch 2.2
_symmetry_space_group_name_H-M    P1
_symmetry_Int_Tables_number       1
_space_group_crystal_system       triclinic
_cell_length_a                    14.945121
_cell_length_b                    14.16327
_cell_length_c                    10.681349
_cell_angle_alpha                 89.722048
_cell_angle_beta                  84.811948
_cell_angle_gamma                 89.991054
_cell_volume                      2251.65116511

loop_
_atom_site_label
_atom_site_type_symbol
_atom_type_description
_atom_site_fract_x
_atom_site_fract_y
_atom_site_fract_z
_atom_type_partial_charge
C1    C     C_R   0.327423 0.499949 0.499616 0.924187
C2    C     C_R   0.672570 0.499899 0.501215 0.930899
C3    C     C_R   0.953233 0.496717 0.499911 -0.052267
C4    C     C_R   0.046807 0.497269 0.502932 -0.049290
C5    C     C_R   0.914656 0.486946 0.383139 0.065314
C6    C     C_R   0.085474 0.506375 0.619752 0.064983
C7    C     C_R   0.934788 0.513929 0.729446 0.055497
C8    C     C_R   0.065246 0.478940 0.273536 0.057923
C9    C     C_R   0.028360 0.513910 0.733124 0.045284
C10   C     C_R   0.971771 0.477183 0.270065 0.049867
C11   C     C_R   0.569617 0.798048 0.436620 0.263141
C12   C     C_R   0.433877 0.202441 0.570474 0.261542
C13   C     C_R   0.430153 0.797775 0.562578 0.269735
C14   C     C_R   0.567052 0.203269 0.430119 0.265044
C15   C     C_R   0.431857 0.898803 0.571834 -0.074130
C16   C     C_R   0.570798 0.101880 0.431422 -0.087274
C17   C     C_R   0.567873 0.899139 0.426898 -0.072634
C18   C     C_R   0.429518 0.101334 0.567396 -0.081130
C19   C     C_R   0.499883 0.949699 0.499231 -0.055755
C20   C     C_R   0.499919 0.051009 0.498982 -0.060503
C21   C     C_R   0.365978 0.950217 0.647498 0.169089
C22   C     C_R   0.641080 0.049758 0.364937 0.188554
C23   C     C_R   0.633629 0.950958 0.350981 0.175093
C24   C     C_R   0.359170 0.049189 0.634141 0.192425
C25   C     C_R   0.502275 0.500266 0.257694 0.881831
C26   C     C_R   0.495037 0.500086 0.742534 0.914204
C27   C     C_3   0.438377 0.563648 0.053005 0.066780
C28   C     C_3   0.555189 0.438659 0.948538 0.065457
C29   C     C_3   0.516925 0.586943 0.955249 0.121856
C30   C     C_3   0.476183 0.415222 0.045981 0.053973
C31   C     C_3   0.413414 0.478025 0.975771 -0.007687
C32   C     C_3   0.579605 0.524642 0.025291 0.025931
C33   C     C_3   0.492411 0.501037 0.876921 -0.095714
C34   C     C_3   0.501163 0.501016 0.124043 -0.121940
C35   C     C_R   0.819857 0.488350 0.385238 0.046076
C36   C     C_R   0.180377 0.506955 0.617175 0.035888
C37   C     C_R   0.768026 0.499183 0.498913 -0.086792
C38   C     C_R   0.232018 0.499608 0.502793 -0.077013
C39   C     C_R   0.805287 0.507807 0.611423 -0.284042
C40   C     C_R   0.194639 0.489884 0.390668 -0.296314
C41   C     C_R   0.897841 0.506286 0.614013 0.115339
C42   C     C_R   0.102143 0.488654 0.388648 0.120508
H1    H     H_    0.760765 0.515453 0.696824 0.181778
H2    H     H_    0.239061 0.482950 0.305127 0.155044
N1    N     N_R   0.500000 0.750030 0.500000 -0.145553
N2    N     N_R   0.500000 0.249970 0.500000 -0.143545
O1    O     O_R   0.367850 0.580280 0.500030 -0.594112
O2    O     O_R   0.632150 0.419720 0.499970 -0.613184
O3    O     O_R   0.632150 0.580280 0.499970 -0.602593
O4    O     O_R   0.367850 0.419720 0.500030 -0.624607
O5    O     O_R   0.499970 0.580260 0.313950 -0.613099
O6    O     O_R   0.500030 0.419740 0.686050 -0.608785
O7    O     O_R   0.500030 0.580260 0.686050 -0.619422
O8    O     O_R   0.499970 0.419740 0.313950 -0.599294
Zn1   Zn    Zn3+2 0.500000 0.607200 0.500000 0.971018
Zn2   Zn    Zn3+2 0.500000 0.392800 0.500000 0.972081
N3    N     N_3   0.321895 0.453903 0.952505 -0.483656
H3    H     H_    0.293677 0.415854 0.030249 0.189430
H4    H     H_    0.285914 0.517044 0.952219 0.189621
N4    N     N_3   0.670383 0.552419 0.046355 -0.464421
H5    H     H_    0.705341 0.490635 0.063182 0.193778
H6    H     H_    0.666300 0.593664 0.127458 0.183165
N5    N     N_3   0.376258 0.633342 0.111116 -0.441893
H7    H     H_    0.344412 0.665993 0.039266 0.182003
H8    H     H_    0.326810 0.596782 0.167253 0.175071
N6    N     N_3   0.619393 0.370908 0.890381 -0.447686
H9    H     H_    0.654383 0.341721 0.961473 0.176837
H10   H     H_    0.582702 0.315929 0.854888 0.200033
N7    N     N_3   0.538296 0.681472 0.907008 -0.443987
H11   H     H_    0.550625 0.723531 0.983703 0.187872
H12   H     H_    0.598797 0.677101 0.850069 0.199894
N8    N     N_3   0.454150 0.321755 0.097408 -0.456004
H13   H     H_    0.393420 0.326866 0.153645 0.195116
H14   H     H_    0.443419 0.277019 0.023049 0.176092
N9    N     N_3   0.773201 0.482799 0.274464 -0.487820
H15   H     H_    0.785712 0.417511 0.231192 0.209671
H16   H     H_    0.793655 0.539542 0.216012 0.202206
N10   N     N_3   0.227481 0.512433 0.727660 -0.463813
H17   H     H_    0.210012 0.453819 0.784340 0.225616
H18   H     H_    0.212820 0.576428 0.773300 0.201784
N11   N     N_3   0.876195 0.520806 0.843534 -0.469499
H19   H     H_    0.887444 0.463130 0.901346 0.188917
H20   H     H_    0.889525 0.583454 0.889633 0.184796
N12   N     N_3   0.123796 0.471707 0.159483 -0.500838
H21   H     H_    0.111407 0.408280 0.114600 0.181016
H22   H     H_    0.111687 0.528509 0.100652 0.184661
N13   N     N_3   0.064386 0.520853 0.852527 -0.508275
H23   H     H_    0.042311 0.583443 0.896542 0.174058
H24   H     H_    0.042705 0.462783 0.907740 0.175698
N14   N     N_3   0.935889 0.466125 0.151093 -0.504818
H25   H     H_    0.956672 0.523079 0.093239 0.174268
H26   H     H_    0.958885 0.402811 0.109963 0.176733
N15   N     N_2   0.645655 0.744967 0.388752 -0.246877
H27   H     H_    0.655431 0.737908 0.292600 0.238203
C43   C     C_3   0.725646 0.755221 0.455128 -0.717300
H28   H     H_    0.752909 0.827922 0.446699 0.215309
H29   H     H_    0.778156 0.705538 0.415545 0.231414
H30   H     H_    0.710045 0.738530 0.556509 0.243319
N16   N     N_2   0.374647 0.256633 0.653080 -0.238563
H31   H     H_    0.310367 0.266695 0.627949 0.250715
C44   C     C_3   0.385128 0.248507 0.786198 -0.748249
H32   H     H_    0.322322 0.222297 0.838033 0.220897
H33   H     H_    0.398522 0.318901 0.823191 0.271056
H34   H     H_    0.441667 0.200984 0.805180 0.213489
N17   N     N_2   0.353528 0.744686 0.608899 -0.243671
H35   H     H_    0.342832 0.736596 0.704939 0.244583
C45   C     C_3   0.274397 0.756251 0.540866 -0.718330
H36   H     H_    0.248539 0.829545 0.547041 0.215156
H37   H     H_    0.220559 0.708036 0.580768 0.230837
H38   H     H_    0.290538 0.738710 0.440071 0.247927
N18   N     N_2   0.632458 0.259107 0.358463 -0.241245
H39   H     H_    0.694584 0.264444 0.392528 0.246565
C46   C     C_3   0.631146 0.260952 0.222966 -0.711316
H40   H     H_    0.696196 0.236054 0.176629 0.204263
H41   H     H_    0.623114 0.334622 0.191190 0.252454
H42   H     H_    0.576323 0.216315 0.191713 0.241064
N19   N     N_2   0.308822 0.903198 0.742046 -0.321848
H43   H     H_    0.241955 0.921865 0.747760 0.230194
C47   C     C_3   0.344956 0.897187 0.862969 -0.840855
H44   H     H_    0.299402 0.854135 0.928331 0.240570
H45   H     H_    0.351164 0.968825 0.903277 0.239126
H46   H     H_    0.411971 0.862576 0.853370 0.260892
N20   N     N_2   0.721772 0.095302 0.316348 -0.313360
H47   H     H_    0.744051 0.078321 0.225111 0.228634
C48   C     C_3   0.792283 0.094036 0.400641 -0.849518
H48   H     H_    0.849904 0.137045 0.359789 0.245681
H49   H     H_    0.815615 0.020598 0.414881 0.235338
H50   H     H_    0.767726 0.124735 0.492988 0.251809
N21   N     N_2   0.689849 0.904647 0.255331 -0.319002
H51   H     H_    0.756795 0.923070 0.248387 0.231043
C49   C     C_3   0.652575 0.900176 0.135160 -0.853046
H52   H     H_    0.697187 0.857228 0.068996 0.242471
H53   H     H_    0.646717 0.972267 0.095187 0.241358
H54   H     H_    0.585234 0.866249 0.145813 0.252706
N22   N     N_2   0.278984 0.095236 0.683317 -0.313453
H55   H     H_    0.255439 0.076274 0.773580 0.228776
C50   C     C_3   0.209459 0.098661 0.597605 -0.848332
H56   H     H_    0.152117 0.141276 0.639579 0.245664
H57   H     H_    0.185278 0.026294 0.579165 0.236092
H58   H     H_    0.235407 0.132363 0.507360 0.252076

loop_
_geom_bond_atom_site_label_1
_geom_bond_atom_site_label_2
_ccdc_geom_bond_type
N6    H10   S    
N13   H23   S    
N5    H8    S    
N15   H27   S    
C27   C29   S    
N8    H14   S    
C19   C20   A    
O2    Zn2   S    
C49   H54   S    
C6    C9    A    
N11   H19   S    
N14   H25   S    
C43   H30   S    
N20   H47   S    
C39   C41   A    
C15   C19   A    
N17   C45   S    
C35   N9    S    
C17   C23   A    
C18   C24   A    
O1    Zn1   S    
C35   C37   A    
C8    C42   A    
N21   H51   S    
C29   C32   S    
N19   C47   S    
C30   C31   S    
N10   H18   S    
N3    H4    S    
C29   C33   S    
C23   N21   S    
N4    H6    S    
N7    H12   S    
C12   N16   S    
C21   N19   S    
O6    Zn2   S    
C11   C17   A    
C43   H28   S    
C48   H50   S    
C45   H36   S    
C31   C33   S    
C1    O4    A    
C18   C20   A    
C25   C34   S    
C46   H42   S    
C11   N15   S    
N22   H55   S    
N6    H9    S    
N15   C43   S    
C45   H37   S    
N11   H20   S    
C29   N7    S    
O7    Zn1   S    
C27   C34   S    
C14   N18   S    
C50   H58   S    
O8    Zn2   S    
C30   C34   S    
C27   C31   S    
C44   H32   S    
C28   C32   S    
N12   H21   S    
C12   N2    A    
N10   H17   S    
C1    O1    A    
C39   H1    S    
C2    O2    A    
O3    Zn1   S    
O4    Zn2   S    
N4    H5    S    
C14   N2    A    
C32   C34   S    
C28   N6    S    
N9    H15   S    
C25   O5    A    
C2    O3    A    
C26   O6    A    
C50   H57   S    
C26   C33   S    
N14   H26   S    
N16   H31   S    
C40   H2    S    
C16   C20   A    
N18   C46   S    
C25   O8    A    
N9    H16   S    
C10   N14   S    
C47   H45   S    
C27   N5    S    
C1    C38   S    
C24   N22   S    
C13   N17   S    
N16   C44   S    
C28   C33   S    
C44   H34   S    
C13   C15   A    
C48   H48   S    
C45   H38   S    
C14   C16   A    
C11   N1    A    
C4    C6    A    
C32   N4    S    
C12   C18   A    
C3    C4    A    
C26   O7    A    
C3    C5    A    
C13   N1    A    
C22   N20   S    
C46   H40   S    
N17   H35   S    
C47   H46   S    
N22   C50   S    
C3    C41   A    
C16   C22   A    
N18   H39   S    
C7    N11   S    
C8    N12   S    
C8    C10   A    
N12   H22   S    
N8    H13   S    
C49   H53   S    
C30   N8    S    
C47   H44   S    
C43   H29   S    
C50   H56   S    
C31   N3    S    
C28   C30   S    
C5    C10   A    
C37   C39   A    
C36   N10   S    
N19   H43   S    
C9    N13   S    
C36   C38   A    
C38   C40   A    
C2    C37   S    
N3    H3    S    
C4    C42   A    
C5    C35   A    
C40   C42   A    
C17   C19   A    
C6    C36   A    
O5    Zn1   S    
C7    C41   A    
N7    H11   S    
N20   C48   S    
N5    H7    S    
C7    C9    A    
C15   C21   A    
N1    Zn1   S    
C44   H33   S    
C21   C24   A    
N2    Zn2   S    
C48   H49   S    
N13   H24   S    
C22   C23   A    
N21   C49   S    
C49   H52   S    
C46   H41   S    
