data_mof_unit_32553.cif
_audit_creation_date              2012-12-10T18:49:27-0500
_audit_creation_method            fapswitch 2.2
_symmetry_space_group_name_H-M    P1
_symmetry_Int_Tables_number       1
_space_group_crystal_system       triclinic
_cell_length_a                    9.86896
_cell_length_b                    10.666663
_cell_length_c                    13.696431
_cell_angle_alpha                 90.422131
_cell_angle_beta                  84.981778
_cell_angle_gamma                 90.420643
_cell_volume                      1436.20982935

loop_
_atom_site_label
_atom_site_type_symbol
_atom_type_description
_atom_site_fract_x
_atom_site_fract_y
_atom_site_fract_z
_atom_type_partial_charge
C1    C     C_R   0.500832 0.739896 0.498514 0.940054
C2    C     C_R   0.920808 0.572350 0.565591 0.169953
C3    C     C_1   0.534932 0.501716 0.212704 -0.175420
C4    C     C_1   0.464991 0.501135 0.787228 -0.190338
C5    C     C_2   0.558084 0.507494 0.021621 0.397173
C6    C     C_2   0.441704 0.507097 0.978298 0.396360
C7    C     C_1   0.453659 0.503416 0.873920 -0.058446
C8    C     C_1   0.546176 0.504112 0.126004 -0.057419
C9    C     C_R   0.611909 0.937975 0.450638 0.490664
C10   C     C_R   0.392810 0.062399 0.555210 0.503664
C11   C     C_R   0.607781 0.066788 0.451373 -0.343856
C12   C     C_R   0.499391 0.260252 0.500920 0.902091
C13   C     C_R   0.393228 0.933764 0.550330 -0.354413
C14   C     C_3   0.203871 0.529555 0.979027 0.094839
C15   C     C_3   0.193849 0.667390 0.947111 -0.339440
C16   C     C_3   0.123382 0.678992 0.852711 -0.992879
C17   C     C_3   0.796475 0.528882 0.020920 0.089352
C18   C     C_3   0.809501 0.666079 0.055431 -0.367856
C19   C     C_3   0.880674 0.675936 0.149831 -0.918189
C20   C     C_3   0.837509 0.881789 0.441368 0.125945
C21   C     C_3   0.946572 0.955416 0.378968 -0.395147
C22   C     C_3   0.082613 0.953238 0.424221 -0.913319
C23   C     C_R   0.499217 0.127967 0.502908 -0.204846
C24   C     C_3   0.320979 0.164590 0.698298 0.116673
C25   C     C_3   0.281470 0.066609 0.777095 -0.389863
C26   C     C_3   0.307455 0.115511 0.878843 -0.940128
C27   C     C_R   0.502152 0.872433 0.498930 -0.198016
C28   C     C_R   0.477976 0.499739 0.685009 0.880448
C29   C     C_R   0.522008 0.499878 0.314960 0.912240
C30   C     C_R   0.935103 0.426831 0.435383 -0.169841
C31   C     C_R   0.064915 0.572803 0.564848 -0.179419
C32   C     C_R   0.079146 0.426089 0.435524 0.207175
H1    H     H_    0.885975 0.368269 0.383896 0.132206
H2    H     H_    0.204494 0.462439 0.916292 0.140196
H3    H     H_    0.137008 0.722189 0.006374 0.215784
H4    H     H_    0.296517 0.710736 0.934575 0.227693
H5    H     H_    0.184629 0.632101 0.791281 0.275645
H6    H     H_    0.113181 0.779539 0.834400 0.262170
H7    H     H_    0.020661 0.635616 0.860974 0.261300
H8    H     H_    0.889141 0.504845 0.973111 0.140188
H9    H     H_    0.794565 0.460896 0.082374 0.142225
H10   H     H_    0.867219 0.721356 0.997074 0.215889
H11   H     H_    0.707775 0.709866 0.068994 0.234486
H12   H     H_    0.114053 0.631210 0.616378 0.140974
H13   H     H_    0.818595 0.629310 0.210863 0.285112
H14   H     H_    0.893592 0.776186 0.169375 0.266001
H15   H     H_    0.982278 0.631701 0.140708 0.253432
H16   H     H_    0.873649 0.784138 0.447489 0.178808
H17   H     H_    0.826442 0.921825 0.517328 0.112109
H18   H     H_    0.960045 0.913672 0.304252 0.233883
H19   H     H_    0.914403 0.054298 0.372510 0.211064
H20   H     H_    0.072410 0.997325 0.498210 0.284527
H21   H     H_    0.160024 0.006444 0.377234 0.269584
H22   H     H_    0.118299 0.855268 0.430329 0.268130
H23   H     H_    0.687559 0.119030 0.409868 0.175277
H24   H     H_    0.263451 0.251897 0.717149 0.175712
H25   H     H_    0.430979 0.189772 0.698703 0.099696
H26   H     H_    0.171844 0.042410 0.776104 0.230808
H27   H     H_    0.341782 0.980093 0.761493 0.217046
H28   H     H_    0.416930 0.138789 0.881835 0.267515
H29   H     H_    0.278469 0.042371 0.934219 0.266320
H30   H     H_    0.245896 0.200617 0.897234 0.259564
H31   H     H_    0.309886 0.881899 0.588363 0.181707
H32   H     H_    0.126042 0.254665 0.380597 0.173309
H33   H     H_    0.137984 0.371225 0.297359 0.168128
H34   H     H_    0.860559 0.617384 0.705555 0.186579
H35   H     H_    0.875147 0.740075 0.628441 0.138645
H36   H     H_    0.110578 0.505300 0.026152 0.136770
N1    N     N_R   0.142790 0.500030 0.500020 -0.077272
N2    N     N_R   0.857210 0.499970 0.499980 -0.079869
N3    N     N_3   0.158585 0.347167 0.368406 -0.390826
N4    N     N_3   0.841226 0.647292 0.635618 -0.398958
O1    O     O_R   0.385380 0.683250 0.500010 -0.633361
O2    O     O_3   0.683507 0.512439 0.964741 -0.665085
O3    O     O_3   0.715013 0.876569 0.394426 -0.635506
O4    O     O_3   0.284034 0.122573 0.605861 -0.638849
O5    O     O_R   0.614620 0.316750 0.499990 -0.633456
O6    O     O_R   0.614710 0.683220 0.500000 -0.585969
O7    O     O_R   0.385290 0.316780 0.500000 -0.564290
O8    O     O_R   0.368830 0.499990 0.640350 -0.637997
O9    O     O_R   0.631170 0.500010 0.359650 -0.627376
O10   O     O_R   0.598160 0.499960 0.640350 -0.581383
O11   O     O_R   0.401840 0.500040 0.359650 -0.586604
O12   O     O_3   0.316256 0.511518 0.035105 -0.666239
Zn1   Zn    Zn3+2 0.346870 0.500020 0.500000 0.970861
Zn2   Zn    Zn3+2 0.653130 0.499980 0.500000 0.965908

loop_
_geom_bond_atom_site_label_1
_geom_bond_atom_site_label_2
_ccdc_geom_bond_type
C14   O12   S    
C19   H14   S    
N1    Zn1   S    
C22   H22   S    
C12   C23   S    
C20   H17   S    
C26   H29   S    
C29   O11   A    
C18   H10   S    
C5    C6    D    
C19   H15   S    
C15   C16   S    
C12   O7    A    
H35   N4    S    
H32   N3    S    
C5    O2    S    
C3    C29   S    
C4    C28   S    
C10   O4    S    
H34   N4    S    
C24   H25   S    
C32   N3    S    
O9    Zn2   S    
C16   H5    S    
O6    Zn2   S    
C21   C22   S    
C1    O6    A    
C4    C7    T    
C2    N4    S    
C15   H3    S    
C21   H18   S    
C30   N2    A    
C22   H21   S    
C6    O12   S    
C31   H12   S    
C28   O10   A    
C24   C25   S    
C3    C8    T    
C18   C19   S    
C25   C26   S    
O10   Zn2   S    
C20   O3    S    
C2    C31   A    
C17   H8    S    
C29   O9    A    
O8    Zn1   S    
C13   H31   S    
C12   O5    A    
C17   C18   S    
C9    C11   A    
O1    Zn1   S    
C20   H16   S    
O11   Zn1   S    
O5    Zn2   S    
C17   O2    S    
C25   H26   S    
N2    Zn2   S    
C15   H4    S    
C21   H19   S    
C11   H23   S    
C9    C27   A    
C22   H20   S    
C30   H1    S    
C32   N1    A    
C24   O4    S    
C10   C13   A    
C14   H2    S    
C5    C8    S    
C19   H13   S    
C6    C7    S    
C10   C23   A    
C24   H24   S    
C9    O3    S    
C1    O1    A    
C26   H30   S    
H33   N3    S    
C18   H11   S    
C30   C32   A    
C11   C23   A    
O7    Zn1   S    
C28   O8    A    
C17   H9    S    
C16   H7    S    
C31   N1    A    
C20   C21   S    
C1    C27   S    
C14   H36   S    
C14   C15   S    
C13   C27   A    
C25   H27   S    
C2    N2    A    
C26   H28   S    
C16   H6    S    
