data_mof_unit_9209.cif
_audit_creation_date              2013-03-05T15:56:50-0500
_audit_creation_method            fapswitch 2.2
_symmetry_space_group_name_H-M    P1
_symmetry_Int_Tables_number       1
_space_group_crystal_system       triclinic
_cell_length_a                    21.298636
_cell_length_b                    21.222249
_cell_length_c                    13.73486
_cell_angle_alpha                 89.360643
_cell_angle_beta                  89.711738
_cell_angle_gamma                 90.190747
_cell_volume                      6207.72413186

loop_
_atom_site_label
_atom_site_type_symbol
_atom_site_description
_atom_site_fract_x
_atom_site_fract_y
_atom_site_fract_z
_atom_type_partial_charge
O1    O     O_R   0.064880 0.435140 0.582280 -0.547242
O2    O     O_R   0.935120 0.564860 0.417720 -0.547246
O3    O     O_R   0.935120 0.564860 0.582280 -0.577925
O4    O     O_R   0.064880 0.435140 0.417720 -0.577920
O5    O     O_R   0.935120 0.435140 0.417720 -0.594158
O6    O     O_R   0.064880 0.564860 0.582280 -0.594155
O7    O     O_R   0.064880 0.564860 0.417720 -0.580735
O8    O     O_R   0.935120 0.435140 0.582280 -0.580727
O9    O     O_R   0.564880 0.935140 0.582280 -0.547280
O10   O     O_R   0.435120 0.064860 0.417720 -0.547279
O11   O     O_R   0.435120 0.064860 0.582280 -0.577988
O12   O     O_R   0.564880 0.935140 0.417720 -0.577986
O13   O     O_R   0.435120 0.935140 0.417720 -0.594125
O14   O     O_R   0.564880 0.064860 0.582280 -0.594128
O15   O     O_R   0.564880 0.064860 0.417720 -0.580641
O16   O     O_R   0.435120 0.935140 0.582280 -0.580645
C1    C     C_R   0.086767 0.415657 0.500246 0.894350
C2    C     C_R   0.913233 0.584342 0.499754 0.894348
C3    C     C_R   0.913901 0.415102 0.500375 0.891548
C4    C     C_R   0.086099 0.584898 0.499624 0.891545
C5    C     C_R   0.586768 0.915659 0.500246 0.894368
C6    C     C_R   0.413231 0.084341 0.499754 0.894372
C7    C     C_R   0.413900 0.915104 0.500375 0.891563
C8    C     C_R   0.586101 0.084895 0.499625 0.891564
Cu1   Cu    Cu3+1 0.000000 0.500000 0.597420 1.001835
Cu2   Cu    Cu3+1 0.000000 0.500000 0.402580 1.001832
Cu3   Cu    Cu3+1 0.500000 0.000000 0.597420 1.001798
Cu4   Cu    Cu3+1 0.500000 0.000000 0.402580 1.001800
C9    C     C_R   0.122177 0.689910 0.541831 -0.263300
C10   C     C_R   0.877820 0.310093 0.458157 -0.263295
C11   C     C_R   0.869310 0.681836 0.562879 -0.235536
C12   C     C_R   0.130691 0.318165 0.437119 -0.235531
C13   C     C_R   0.622190 0.189896 0.541865 -0.263180
C14   C     C_R   0.377814 0.810100 0.458147 -0.263176
C15   C     C_R   0.369305 0.181831 0.562884 -0.235587
C16   C     C_R   0.630693 0.818167 0.437119 -0.235586
C17   C     C_R   0.135123 0.632172 0.499129 -0.143119
C18   C     C_R   0.864877 0.367827 0.500871 -0.143140
C19   C     C_R   0.863820 0.631439 0.499187 -0.141151
C20   C     C_R   0.136180 0.368561 0.500813 -0.141153
C21   C     C_R   0.635129 0.132166 0.499135 -0.143175
C22   C     C_R   0.364872 0.867833 0.500865 -0.143189
C23   C     C_R   0.363817 0.131435 0.499188 -0.141117
C24   C     C_R   0.636183 0.868564 0.500812 -0.141118
C25   C     C_R   0.194114 0.619579 0.458212 0.336289
C26   C     C_R   0.805888 0.380418 0.541797 0.336298
C27   C     C_R   0.812262 0.626705 0.436031 0.380849
C28   C     C_R   0.187736 0.373293 0.563972 0.380853
C29   C     C_R   0.694118 0.119573 0.458213 0.336261
C30   C     C_R   0.305880 0.880429 0.541774 0.336250
C31   C     C_R   0.312260 0.126702 0.436030 0.380879
C32   C     C_R   0.687741 0.873299 0.563966 0.380870
C33   C     C_R   0.240514 0.666880 0.458195 -0.015069
C34   C     C_R   0.759488 0.333117 0.541815 -0.015042
C35   C     C_R   0.766530 0.674410 0.435923 -0.015210
C36   C     C_R   0.233468 0.325588 0.564080 -0.015213
C37   C     C_R   0.740522 0.166870 0.458209 -0.014870
C38   C     C_R   0.259475 0.833132 0.541778 -0.014871
C39   C     C_R   0.266526 0.174406 0.435924 -0.015166
C40   C     C_R   0.733474 0.825595 0.564072 -0.015167
C41   C     C_R   0.226924 0.726153 0.500000 -0.022283
C42   C     C_R   0.773076 0.273847 0.499999 -0.022291
C43   C     C_R   0.772794 0.726003 0.499938 -0.019453
C44   C     C_R   0.227205 0.273997 0.500061 -0.019451
C45   C     C_R   0.726936 0.226139 0.500030 -0.022341
C46   C     C_R   0.273064 0.773860 0.499969 -0.022346
C47   C     C_R   0.272789 0.225997 0.499943 -0.019455
C48   C     C_R   0.727210 0.774003 0.500057 -0.019456
C49   C     C_R   0.167343 0.737637 0.542292 0.034224
C50   C     C_R   0.832654 0.262366 0.457695 0.034212
C51   C     C_R   0.824512 0.729593 0.563961 0.041199
C52   C     C_R   0.175489 0.270408 0.436036 0.041198
C53   C     C_R   0.667359 0.237620 0.542338 0.034121
C54   C     C_R   0.332644 0.762377 0.457674 0.034110
C55   C     C_R   0.324506 0.229586 0.563968 0.041170
C56   C     C_R   0.675492 0.770412 0.436034 0.041172
C57   C     C_R   0.300074 0.656371 0.417391 -0.202778
C58   C     C_R   0.699931 0.343623 0.582629 -0.202769
C59   C     C_R   0.714703 0.671757 0.373257 -0.158654
C60   C     C_R   0.285294 0.328240 0.626749 -0.158648
C61   C     C_R   0.800082 0.156361 0.417403 -0.202715
C62   C     C_R   0.199913 0.843645 0.582570 -0.202712
C63   C     C_R   0.214700 0.171753 0.373257 -0.158691
C64   C     C_R   0.785302 0.828249 0.626737 -0.158692
C65   C     C_R   0.845684 0.203425 0.416242 0.355530
C66   C     C_R   0.154310 0.796581 0.583731 0.355507
C67   C     C_R   0.169572 0.218956 0.372859 0.371646
C68   C     C_R   0.830430 0.781046 0.627135 0.371648
C69   C     C_R   0.345674 0.703436 0.416222 0.355790
C70   C     C_R   0.654331 0.296558 0.583800 0.355761
C71   C     C_R   0.669576 0.718960 0.372859 0.371634
C72   C     C_R   0.330421 0.281037 0.627146 0.371632
H1    H     H_    0.076103 0.697175 0.573435 0.207815
H2    H     H_    0.923893 0.302830 0.426544 0.207822
H3    H     H_    0.909709 0.683782 0.610332 0.213717
H4    H     H_    0.090293 0.316220 0.389663 0.213720
H5    H     H_    0.576117 0.197160 0.573477 0.207833
H6    H     H_    0.423889 0.802834 0.426544 0.207831
H7    H     H_    0.409703 0.183776 0.610339 0.213736
H8    H     H_    0.590294 0.816221 0.389666 0.213735
H9    H     H_    0.311935 0.611596 0.385423 0.230915
H10   H     H_    0.688071 0.388397 0.614603 0.230908
H11   H     H_    0.708578 0.633142 0.323446 0.232115
H12   H     H_    0.291418 0.366854 0.676561 0.232117
H13   H     H_    0.811944 0.111585 0.385437 0.230856
H14   H     H_    0.188048 0.888424 0.614524 0.230864
H15   H     H_    0.208575 0.133139 0.323445 0.232091
H16   H     H_    0.791428 0.866865 0.676547 0.232092
C73   C     C_R   0.051489 0.520382 0.792234 0.049047
C74   C     C_R   0.948509 0.479622 0.207766 0.049046
C75   C     C_R   0.948870 0.478468 0.793899 0.027515
C76   C     C_R   0.051128 0.521535 0.206100 0.027516
C77   C     C_R   0.551541 0.020250 0.792232 0.048993
C78   C     C_R   0.448457 0.979753 0.207768 0.048996
C79   C     C_R   0.448814 0.978596 0.793895 0.027546
C80   C     C_R   0.551186 0.021402 0.206105 0.027544
N1    N     N_R   0.000000 0.500000 0.743810 -0.196573
N2    N     N_R   0.000000 0.500000 0.256190 -0.196571
N3    N     N_R   0.500000 0.000000 0.743810 -0.196598
N4    N     N_R   0.500000 0.000000 0.256190 -0.196599
C81   C     C_R   0.947816 0.475406 0.897302 -0.036528
C82   C     C_R   0.052179 0.524603 0.102698 -0.036525
C83   C     C_R   0.052923 0.522836 0.895494 -0.036814
C84   C     C_R   0.947072 0.477174 0.104506 -0.036827
C85   C     C_R   0.447747 0.975539 0.897300 -0.036549
C86   C     C_R   0.552250 0.024462 0.102700 -0.036542
C87   C     C_R   0.552986 0.022692 0.895494 -0.036871
C88   C     C_R   0.447010 0.977313 0.104507 -0.036882
C89   C     C_R   0.000074 0.499808 0.948366 0.029109
C90   C     C_R   0.999920 0.500200 0.051633 0.029112
C91   C     C_R   0.500074 0.999804 0.948366 0.029133
C92   C     C_R   0.499922 0.000198 0.051634 0.029134
C93   C     C_R   0.896173 0.448607 0.949985 0.080139
C94   C     C_R   0.103815 0.551411 0.050015 0.080136
C95   C     C_R   0.105439 0.548126 0.946082 0.075115
C96   C     C_R   0.894550 0.451894 0.053919 0.075110
C97   C     C_R   0.396028 0.948883 0.949984 0.080107
C98   C     C_R   0.603967 0.051121 0.050016 0.080102
C99   C     C_R   0.605578 0.047832 0.946082 0.075074
C100  C     C_R   0.394416 0.952175 0.053918 0.075071
H17   H     H_    0.090899 0.535470 0.748689 0.173924
H18   H     H_    0.909100 0.464531 0.251312 0.173931
H19   H     H_    0.908867 0.464262 0.751884 0.166492
H20   H     H_    0.091132 0.535740 0.248115 0.166489
H21   H     H_    0.590985 0.035246 0.748678 0.174066
H22   H     H_    0.409012 0.964757 0.251323 0.174075
H23   H     H_    0.408776 0.964488 0.751872 0.166498
H24   H     H_    0.591225 0.035507 0.248128 0.166508
Cl1   Cl    Cl    0.209657 0.543440 0.412079 -0.637530
Cl2   Cl    Cl    0.790346 0.456555 0.587941 -0.637558
Cl3   Cl    Cl    0.803846 0.559466 0.361249 -0.610139
Cl4   Cl    Cl    0.196151 0.440530 0.638759 -0.610092
Cl5   Cl    Cl    0.709655 0.043439 0.412058 -0.637780
Cl6   Cl    Cl    0.290340 0.956567 0.587916 -0.637770
Cl7   Cl    Cl    0.303845 0.059464 0.361245 -0.610614
Cl8   Cl    Cl    0.696157 0.940538 0.638747 -0.610596
Cl9   Cl    Cl    0.918598 0.185952 0.361409 -0.546176
Cl10  Cl    Cl    0.081392 0.814059 0.638545 -0.546180
Cl11  Cl    Cl    0.106244 0.211102 0.291410 -0.529135
Cl12  Cl    Cl    0.893760 0.788902 0.708581 -0.529142
Cl13  Cl    Cl    0.418588 0.685962 0.361392 -0.545972
Cl14  Cl    Cl    0.581421 0.314029 0.638644 -0.545994
Cl15  Cl    Cl    0.606246 0.711105 0.291411 -0.529025
Cl16  Cl    Cl    0.393749 0.288890 0.708597 -0.529024
C101  C     C_3   0.845190 0.412334 0.896222 -0.443586
C102  C     C_3   0.791348 0.455637 0.863975 -0.337418
C103  C     C_3   0.735453 0.417181 0.828517 -0.715887
H25   H     H_    0.750536 0.384178 0.770863 0.261990
H26   H     H_    0.714541 0.389650 0.889907 0.241830
H27   H     H_    0.699137 0.449233 0.798369 0.272416
H28   H     H_    0.775626 0.485611 0.925181 0.226765
H29   H     H_    0.807586 0.487549 0.804363 0.256182
H30   H     H_    0.864938 0.387328 0.832531 0.198506
H31   H     H_    0.826837 0.372897 0.941782 0.208268
C104  C     C_3   0.154787 0.587697 0.103781 -0.443596
C105  C     C_3   0.208642 0.544410 0.136022 -0.337444
C106  C     C_3   0.264515 0.582880 0.171516 -0.715948
H32   H     H_    0.285407 0.610450 0.110153 0.241840
H33   H     H_    0.249417 0.615846 0.229212 0.262005
H34   H     H_    0.300849 0.550832 0.201624 0.272420
H35   H     H_    0.192411 0.512478 0.195613 0.256178
H36   H     H_    0.224383 0.514458 0.074804 0.226776
H37   H     H_    0.173128 0.627143 0.058225 0.208268
H38   H     H_    0.135033 0.612694 0.167476 0.198513
C107  C     C_3   0.163147 0.571227 0.888830 -0.426820
C108  C     C_3   0.152626 0.637186 0.844364 -0.352382
C109  C     C_3   0.207019 0.656625 0.777649 -0.761288
H39   H     H_    0.251978 0.655793 0.818268 0.253499
H40   H     H_    0.210238 0.624256 0.714785 0.276139
H41   H     H_    0.199172 0.705212 0.749593 0.248345
H42   H     H_    0.108538 0.638645 0.801616 0.237083
H43   H     H_    0.148194 0.672197 0.903506 0.226931
H44   H     H_    0.206001 0.572347 0.933944 0.213456
H45   H     H_    0.175834 0.536732 0.831924 0.231843
C110  C     C_3   0.836832 0.428815 0.111170 -0.426803
C111  C     C_3   0.847324 0.362853 0.155641 -0.352399
C112  C     C_3   0.792944 0.343460 0.222415 -0.761199
H46   H     H_    0.789780 0.375836 0.285280 0.276149
H47   H     H_    0.747965 0.344329 0.181846 0.253516
H48   H     H_    0.800763 0.294868 0.250466 0.248315
H49   H     H_    0.851706 0.327831 0.096503 0.226903
H50   H     H_    0.891431 0.361366 0.198343 0.237081
H51   H     H_    0.824160 0.463318 0.168072 0.231860
H52   H     H_    0.793977 0.427713 0.066056 0.213449
C113  C     C_3   0.344929 0.912758 0.896227 -0.443444
C114  C     C_3   0.291203 0.956215 0.863988 -0.337406
C115  C     C_3   0.235144 0.917924 0.828694 -0.715434
H53   H     H_    0.250073 0.884780 0.771132 0.262071
H54   H     H_    0.214148 0.890551 0.890183 0.241735
H55   H     H_    0.198932 0.950074 0.798478 0.272302
H56   H     H_    0.275626 0.986298 0.925161 0.226701
H57   H     H_    0.307511 0.988028 0.804292 0.256108
H58   H     H_    0.364596 0.887690 0.832533 0.198530
H59   H     H_    0.326468 0.873369 0.941791 0.208210
C116  C     C_3   0.655066 0.087243 0.103776 -0.443437
C117  C     C_3   0.708792 0.043782 0.135996 -0.337460
C118  C     C_3   0.764854 0.082068 0.171282 -0.715441
H60   H     H_    0.785835 0.109451 0.109792 0.241743
H61   H     H_    0.749937 0.115198 0.228868 0.262095
H62   H     H_    0.801070 0.049910 0.201464 0.272301
H63   H     H_    0.692490 0.011966 0.195691 0.256122
H64   H     H_    0.724362 0.013705 0.074813 0.226713
H65   H     H_    0.673522 0.126636 0.058218 0.208214
H66   H     H_    0.635403 0.112303 0.167479 0.198541
C119  C     C_3   0.663359 0.070749 0.888822 -0.426647
C120  C     C_3   0.653043 0.136732 0.844314 -0.352674
C121  C     C_3   0.707377 0.155886 0.777283 -0.760901
H67   H     H_    0.752427 0.154864 0.817657 0.253619
H68   H     H_    0.710303 0.123465 0.714446 0.276330
H69   H     H_    0.699695 0.204495 0.749203 0.248091
H70   H     H_    0.608865 0.138372 0.801799 0.237085
H71   H     H_    0.648901 0.171803 0.903427 0.226795
H72   H     H_    0.706223 0.071747 0.933927 0.213401
H73   H     H_    0.675934 0.036196 0.831941 0.232005
C122  C     C_3   0.336630 0.929270 0.111177 -0.426622
C123  C     C_3   0.346930 0.863287 0.155698 -0.352680
C124  C     C_3   0.292606 0.844165 0.222771 -0.760834
H74   H     H_    0.289714 0.876594 0.285604 0.276335
H75   H     H_    0.247542 0.845204 0.182431 0.253624
H76   H     H_    0.300273 0.795554 0.250856 0.248064
H77   H     H_    0.351042 0.828205 0.096592 0.226766
H78   H     H_    0.391122 0.861634 0.198182 0.237075
H79   H     H_    0.324060 0.963831 0.168051 0.232015
H80   H     H_    0.293766 0.928276 0.066070 0.213390

loop_
_geom_bond_atom_site_label_1
_geom_bond_atom_site_label_2
_geom_bond_distance
_ccdc_geom_bond_type
C78   C88   1.420296 A    
C63   C67   1.390580 A    
C10   C18   1.392156 A    
C102  H29   1.109890 S    
C101  C102  1.535838 S    
C8    C21   1.445564 S    
O5    Cu2   1.955891 S    
C75   C81   1.421049 A    
C57   H9    1.081366 S    
C14   C22   1.392150 A    
C107  H45   1.109847 S    
C116  C117  1.535900 S    
C115  H54   1.110956 S    
C59   H11   1.081369 S    
C116  H66   1.109944 S    
C74   N2    1.357462 A    
C107  C108  1.538502 S    
C47   C55   1.415303 A    
C73   N1    1.357452 A    
C12   C52   1.394417 A    
C97   C113  1.527260 S    
C113  C114  1.535919 S    
O10   C6    1.290022 A    
C118  H62   1.110414 S    
C105  H36   1.110835 S    
C57   C69   1.390758 A    
C7    C22   1.445562 S    
C87   C99   1.426279 A    
O12   Cu4   1.963827 S    
C119  H73   1.109873 S    
C13   C53   1.394643 A    
C54   C69   1.407978 A    
C29   Cl5   1.773784 S    
C39   C63   1.404521 A    
C53   C70   1.407980 A    
C78   N4    1.357459 A    
C38   C62   1.403766 A    
C120  H71   1.110911 S    
O6    Cu1   1.955888 S    
C110  H51   1.109855 S    
O14   C8    1.287112 A    
C120  H70   1.110335 S    
C46   C54   1.415970 A    
C79   H23   1.075672 S    
C111  C112  1.526339 S    
C108  H43   1.110861 S    
C29   C37   1.406322 A    
C123  C124  1.526394 S    
O13   C7    1.287111 A    
O3    C2    1.291975 A    
C74   H18   1.074100 S    
C123  H78   1.110359 S    
C108  H42   1.110296 S    
C112  H47   1.110775 S    
C20   C28   1.406831 A    
C117  H63   1.109910 S    
C82   C94   1.426689 A    
C109  H41   1.110196 S    
C16   C56   1.394414 A    
C74   C84   1.420273 A    
C77   N3    1.357446 A    
C33   C41   1.418681 A    
C41   C46   1.408607 A    
C38   C46   1.418681 A    
C104  C105  1.535824 S    
C62   H14   1.081364 S    
C67   Cl11  1.765334 S    
C106  H33   1.110009 S    
C35   C43   1.418238 A    
C115  H55   1.110418 S    
C122  C123  1.538566 S    
C36   C44   1.418238 A    
O13   Cu4   1.955891 S    
C120  C121  1.526374 S    
O11   Cu3   1.963827 S    
O14   Cu3   1.955888 S    
C15   C23   1.394260 A    
C10   C50   1.394655 A    
C59   C71   1.390575 A    
C75   H19   1.075619 S    
C39   C47   1.418238 A    
C72   Cl16  1.765336 S    
O16   Cu3   1.960630 S    
C12   C20   1.394261 A    
C27   C35   1.407220 A    
C113  H58   1.109954 S    
C102  H28   1.110857 S    
C80   C86   1.421069 A    
C124  H74   1.111406 S    
C83   C89   1.418925 A    
O1    Cu1   1.965607 S    
O8    Cu1   1.960630 S    
C42   C50   1.415967 A    
C71   Cl15  1.765336 S    
C112  H46   1.111363 S    
C65   Cl9   1.764845 S    
C15   H7    1.082993 S    
C114  H56   1.110944 S    
C69   Cl13  1.764840 S    
C9    H1    1.083242 S    
C103  H27   1.110349 S    
C9    C49   1.394656 A    
C105  H35   1.109883 S    
C97   C100  1.430256 A    
C61   H13   1.081367 S    
C98   C116  1.527238 S    
O8    C3    1.290385 A    
C109  H40   1.111334 S    
C94   C104  1.527134 S    
C84   C96   1.426217 A    
C115  H53   1.110073 S    
C30   C38   1.406320 A    
C44   C47   1.409564 A    
C64   C68   1.390578 A    
O3    Cu1   1.963827 S    
C117  C118  1.526089 S    
C78   H22   1.074166 S    
C96   C110  1.532022 S    
C103  H26   1.110938 S    
Cu4   N4    2.010646 S    
C45   C53   1.415970 A    
C81   C89   1.418125 A    
C103  H25   1.110011 S    
C80   H24   1.075674 S    
C114  C115  1.526133 S    
C73   C83   1.420272 A    
C73   H17   1.074100 S    
C110  H52   1.106107 S    
C34   C42   1.418679 A    
C85   C97   1.426801 A    
Cu1   Cu2   2.676099 S    
C62   C66   1.390771 A    
C82   C90   1.418120 A    
O12   C5    1.291974 A    
C58   C70   1.390761 A    
C80   N4    1.360231 A    
C111  H49   1.110889 S    
C83   C95   1.426212 A    
C77   H21   1.074167 S    
C1    C20   1.453810 S    
C123  H77   1.110944 S    
C60   C72   1.390574 A    
C112  H48   1.110195 S    
C33   C57   1.403758 A    
C2    C19   1.453809 S    
C76   C82   1.421046 A    
C3    C18   1.445572 S    
C93   C101  1.527144 S    
C93   C96   1.430238 A    
C5    C24   1.453809 S    
C35   C59   1.404521 A    
C85   C91   1.418213 A    
C121  H67   1.110786 S    
C60   H12   1.081368 S    
C100  C122  1.532093 S    
C86   C92   1.418212 A    
C106  H34   1.110348 S    
C31   Cl7   1.776564 S    
C26   C34   1.406320 A    
C119  C120  1.538557 S    
C84   C90   1.418922 A    
O2    Cu2   1.965607 S    
O15   C8    1.290391 A    
C68   Cl12  1.765334 S    
C51   C68   1.407993 A    
C66   Cl10  1.764844 S    
C122  H79   1.109884 S    
C43   C51   1.415303 A    
C55   C72   1.407991 A    
C22   C30   1.401549 A    
C77   C87   1.420293 A    
O4    C1    1.291977 A    
C30   Cl6   1.773784 S    
C88   C92   1.418988 A    
C105  C106  1.525983 S    
C26   Cl2   1.773798 S    
C70   Cl14  1.764842 S    
C113  H59   1.108456 S    
C106  H32   1.110930 S    
O16   C7    1.290391 A    
C79   N3    1.360247 A    
C124  H75   1.110813 S    
C102  C103  1.526010 S    
C9    C17   1.392154 A    
C37   C61   1.403765 A    
C15   C55   1.394411 A    
C48   C56   1.415303 A    
C17   C25   1.401545 A    
C91   C92   1.418478 A    
C52   C67   1.407992 A    
C119  H72   1.106152 S    
O9    Cu3   1.965607 S    
C19   C27   1.406829 A    
C89   C90   1.418465 A    
O10   Cu4   1.965607 S    
C28   C36   1.407218 A    
C43   C48   1.409565 A    
C86   C98   1.426785 A    
C42   C45   1.408607 A    
C121  H68   1.111376 S    
C104  H37   1.108394 S    
Cu2   N2    2.010646 S    
C107  H44   1.106096 S    
O2    C2    1.290022 A    
C116  H65   1.108444 S    
C24   C32   1.406831 A    
O4    Cu2   1.963827 S    
C16   H8    1.082992 S    
C94   C95   1.430239 A    
O5    C3    1.287121 A    
Cu3   N3    2.010646 S    
C118  H61   1.110071 S    
C21   C29   1.401552 A    
O6    C4    1.287121 A    
O11   C6    1.291975 A    
O1    C1    1.290022 A    
C36   C60   1.404522 A    
C75   N1    1.360202 A    
C99   C119  1.532086 S    
C41   C49   1.415963 A    
C76   H20   1.075624 S    
C28   Cl4   1.776563 S    
C101  H31   1.108399 S    
C13   C21   1.392149 A    
C109  H39   1.110754 S    
C10   H2    1.083244 S    
C76   N2    1.360190 A    
C4    C17   1.445569 S    
C40   C64   1.404523 A    
O9    C5    1.290023 A    
O15   Cu4   1.960627 S    
O7    Cu2   1.960627 S    
C23   C31   1.406833 A    
C11   H3    1.082992 S    
C79   C85   1.421072 A    
C118  H60   1.110959 S    
C11   C51   1.394419 A    
C12   H4    1.082992 S    
C14   H6    1.083250 S    
C34   C58   1.403759 A    
C63   H15   1.081369 S    
C25   Cl1   1.773801 S    
C44   C52   1.415304 A    
C88   C100  1.426292 A    
C32   Cl8   1.776562 S    
C87   C91   1.418993 A    
C122  H80   1.106164 S    
C18   C26   1.401544 A    
C117  H64   1.110920 S    
C16   C24   1.394258 A    
C98   C99   1.430257 A    
C27   Cl3   1.776562 S    
C56   C71   1.407992 A    
C25   C33   1.406320 A    
C110  C111  1.538507 S    
C114  H57   1.109917 S    
C64   H16   1.081370 S    
C121  H69   1.110223 S    
C31   C39   1.407221 A    
C40   C48   1.418238 A    
C32   C40   1.407219 A    
O7    C4    1.290385 A    
C124  H76   1.110228 S    
Cu1   N1    2.010646 S    
Cu3   Cu4   2.676099 S    
C11   C19   1.394262 A    
C14   C54   1.394646 A    
C58   H10   1.081365 S    
C13   H5    1.083249 S    
C81   C93   1.426703 A    
C108  C109  1.526319 S    
C50   C65   1.407989 A    
C101  H30   1.109931 S    
C95   C107  1.532015 S    
C6    C23   1.453806 S    
C61   C65   1.390772 A    
C49   C66   1.407987 A    
C111  H50   1.110317 S    
C104  H38   1.109926 S    
C37   C45   1.418682 A    
