data_mof_unit_36650.cif
_audit_creation_date              2012-12-10T17:31:08-0500
_audit_creation_method            fapswitch 2.2
_symmetry_space_group_name_H-M    P1
_symmetry_Int_Tables_number       1
_space_group_crystal_system       triclinic
_cell_length_a                    12.074069
_cell_length_b                    12.895603
_cell_length_c                    15.474098
_cell_angle_alpha                 86.247319
_cell_angle_beta                  115.942819
_cell_angle_gamma                 93.874883
_cell_volume                      2159.88352965

loop_
_atom_site_label
_atom_site_type_symbol
_atom_type_description
_atom_site_fract_x
_atom_site_fract_y
_atom_site_fract_z
_atom_type_partial_charge
C1    C     C_R   0.477577 0.299608 0.499599 0.901024
C2    C     C_R   0.522385 0.700398 0.500311 0.904017
C3    C     C_R   0.640863 0.423306 0.116121 -0.218952
C4    C     C_R   0.348745 0.415342 0.891765 -0.211884
C5    C     C_R   0.728627 0.422094 0.080938 -0.205133
C6    C     C_R   0.261164 0.418333 0.927027 -0.199339
C7    C     C_R   0.536038 0.811831 0.500585 -0.077050
C8    C     C_R   0.463817 0.188198 0.499031 -0.074799
C9    C     C_R   0.336323 0.030862 0.468209 0.002761
C10   C     C_R   0.663436 0.969213 0.531063 0.002756
C11   C     C_R   0.348668 0.138023 0.474530 -0.218476
C12   C     C_R   0.651131 0.862038 0.524875 -0.218535
C13   C     C_R   0.568013 0.132399 0.519885 -0.259790
C14   C     C_R   0.431800 0.867635 0.479597 -0.258538
C15   C     C_R   0.558559 0.025724 0.512865 0.111807
C16   C     C_R   0.441210 0.974335 0.486462 0.112119
C17   C     C_R   0.009505 0.605672 0.413552 -0.095077
C18   C     C_R   0.990463 0.394274 0.586441 -0.087928
C19   C     C_R   0.128881 0.594171 0.423318 -0.013738
C20   C     C_R   0.871285 0.406092 0.576977 -0.014735
C21   C     C_R   0.159304 0.452702 0.535904 0.058380
C22   C     C_R   0.840283 0.546714 0.463484 0.051740
C23   C     C_R   0.576807 0.493354 0.680869 0.879720
C24   C     C_R   0.422760 0.503107 0.319172 0.879147
C25   C     C_R   0.038412 0.460646 0.531378 -0.024527
C26   C     C_R   0.961407 0.539084 0.468371 -0.026794
C27   C     C_R   0.623584 0.476141 0.785730 -0.115522
C28   C     C_R   0.372706 0.489346 0.214932 -0.114843
C29   C     C_R   0.783493 0.446885 0.947976 -0.231384
C30   C     C_R   0.209319 0.452047 0.056863 -0.230835
C31   C     C_R   0.749717 0.467206 0.849988 0.000298
C32   C     C_R   0.245615 0.475876 0.152705 0.000335
C33   C     C_R   0.535109 0.463315 0.821260 -0.253550
C34   C     C_R   0.459261 0.479455 0.179226 -0.256873
C35   C     C_R   0.567050 0.439730 0.918091 0.092978
C36   C     C_R   0.424859 0.448648 0.086138 0.090659
C37   C     C_R   0.693521 0.435181 0.982516 0.154713
C38   C     C_R   0.297852 0.439059 0.023161 0.150720
C39   C     C_R   0.476227 0.428890 0.953069 0.069591
C40   C     C_R   0.514469 0.433453 0.052961 0.074199
H1    H     H_    0.824719 0.415445 0.131240 0.167629
H2    H     H_    0.164384 0.408086 0.878118 0.169534
H3    H     H_    0.835065 0.355707 0.618333 0.143429
H4    H     H_    0.165250 0.644820 0.382227 0.144356
H5    H     H_    0.554849 0.498284 0.224896 0.170792
H6    H     H_    0.440441 0.476533 0.772697 0.169852
H7    H     H_    0.880293 0.442428 0.997719 0.142417
H8    H     H_    0.111958 0.443529 0.008484 0.142464
H9    H     H_    0.673944 0.413878 0.193147 0.152436
H10   H     H_    0.314436 0.399725 0.816571 0.161683
H11   H     H_    0.342865 0.827208 0.458898 0.171376
H12   H     H_    0.656975 0.172803 0.540677 0.171318
H13   H     H_    0.731487 0.817762 0.540559 0.172648
H14   H     H_    0.268316 0.182310 0.458829 0.172291
N1    N     N_R   0.799120 0.480200 0.517090 -0.126124
N2    N     N_R   0.200880 0.519800 0.482910 -0.125449
O1    O     O_R   0.580150 0.341050 0.504560 -0.631056
O2    O     O_R   0.419850 0.658950 0.495440 -0.629062
O3    O     O_R   0.388090 0.353760 0.493600 -0.616892
O4    O     O_R   0.611910 0.646240 0.506400 -0.616258
O5    O     O_R   0.650890 0.490020 0.640860 -0.607595
O6    O     O_R   0.349110 0.509980 0.359140 -0.608482
O7    O     O_R   0.458830 0.502730 0.629890 -0.615213
O8    O     O_R   0.541170 0.497270 0.370110 -0.616661
Zn1   Zn    Zn3+2 0.628240 0.491510 0.507320 0.960070
Zn2   Zn    Zn3+2 0.371760 0.508490 0.492680 0.961249
C41   C     C_1   0.942351 0.686830 0.345398 0.164041
N3    N     N_1   0.890015 0.752145 0.290419 -0.164210
C42   C     C_1   0.057590 0.313136 0.654656 0.140853
N4    N     N_1   0.109810 0.247781 0.709639 -0.175445
C43   C     C_1   0.150509 0.486230 0.183920 0.184682
N5    N     N_1   0.074075 0.494541 0.208727 -0.227212
C44   C     C_1   0.846757 0.481721 0.819099 0.180855
N6    N     N_1   0.924769 0.493543 0.794614 -0.224222
C45   C     C_1   0.215260 0.981714 0.442374 0.150280
N7    N     N_1   0.118451 0.942437 0.421759 -0.179946
C46   C     C_1   0.784459 0.018394 0.556761 0.149947
N8    N     N_1   0.881230 0.057705 0.577266 -0.178061
C47   C     C_1   0.756975 0.624205 0.402867 0.239374
N9    N     N_1   0.689738 0.686271 0.354142 -0.195616
C48   C     C_1   0.241358 0.373572 0.594761 0.227073
N10   N     N_1   0.307382 0.309995 0.641943 -0.201811

loop_
_geom_bond_atom_site_label_1
_geom_bond_atom_site_label_2
_ccdc_geom_bond_type
C19   N2    A    
C8    C13   A    
C5    C37   A    
C1    C8    S    
C44   N6    T    
C2    C7    S    
C48   N10   T    
C3    H9    S    
C46   N8    T    
C27   C33   A    
C29   H7    S    
C17   C26   A    
C30   H8    S    
C35   C37   A    
C9    C16   A    
C22   C47   S    
C10   C15   A    
C1    O3    A    
O3    Zn2   S    
C2    O4    A    
C31   C44   S    
C15   C16   A    
C30   C38   A    
C5    H1    S    
C17   C19   A    
O2    Zn2   S    
C7    C14   A    
C6    C38   A    
C23   C27   S    
C34   C36   A    
C12   H13   S    
C18   C42   S    
C23   O7    A    
O7    Zn2   S    
C28   C34   A    
C24   O8    A    
C33   H6    S    
C18   C25   A    
C20   N1    A    
N1    Zn1   S    
C10   C46   S    
C32   C43   S    
C7    C12   A    
C17   C41   S    
O6    Zn2   S    
C27   C31   A    
C41   N3    T    
C36   C40   A    
C4    C6    A    
C39   C40   A    
C25   C26   A    
C4    H10   S    
C35   C39   A    
C45   N7    T    
C1    O1    A    
C13   H12   S    
C14   H11   S    
C4    C39   A    
C28   C32   A    
C34   H5    S    
C9    C11   A    
C11   H14   S    
C10   C12   A    
C21   C48   S    
O4    Zn1   S    
C13   C15   A    
C6    H2    S    
C14   C16   A    
C20   H3    S    
C19   H4    S    
C21   C25   A    
C24   O6    A    
C24   C28   S    
O1    Zn1   S    
C3    C5    A    
C3    C40   A    
C21   N2    A    
C2    O2    A    
C22   N1    A    
O8    Zn1   S    
C36   C38   A    
C43   N5    T    
C29   C31   A    
C30   C32   A    
C8    C11   A    
N2    Zn2   S    
C33   C35   A    
C18   C20   A    
C42   N4    T    
C47   N9    T    
O5    Zn1   S    
C23   O5    A    
C22   C26   A    
C29   C37   A    
C9    C45   S    
