data_mof_unit_36604.cif
_audit_creation_date              2012-12-10T17:48:48-0500
_audit_creation_method            fapswitch 2.2
_symmetry_space_group_name_H-M    P1
_symmetry_Int_Tables_number       1
_space_group_crystal_system       triclinic
_cell_length_a                    15.750933
_cell_length_b                    10.674165
_cell_length_c                    9.969938
_cell_angle_alpha                 87.292499
_cell_angle_beta                  90.780875
_cell_angle_gamma                 93.118312
_cell_volume                      1671.77321222

loop_
_atom_site_label
_atom_site_type_symbol
_atom_type_description
_atom_site_fract_x
_atom_site_fract_y
_atom_site_fract_z
_atom_type_partial_charge
C1    C     C_R   0.507165 0.260650 0.504373 0.997368
C2    C     C_R   0.427292 0.021775 0.851042 -0.326699
C3    C     C_R   0.380092 0.914731 0.810120 0.609280
C4    C     C_R   0.338508 0.500605 0.499348 0.994491
C5    C     C_R   0.394489 0.868121 0.684699 0.571115
C6    C     C_R   0.454404 0.930584 0.596661 -0.234744
C7    C     C_R   0.484816 0.051716 0.623781 -0.161524
C8    C     C_R   0.518916 0.127477 0.514849 -0.135830
C9    C     C_R   0.547473 0.073378 0.400108 0.516162
C10   C     C_R   0.533904 0.946327 0.385053 -0.151324
C11   C     C_R   0.488695 0.873689 0.486181 -0.069179
C12   C     C_3   0.949890 0.434185 0.630757 -0.480486
C13   C     C_R   0.357517 0.387064 0.138090 -0.176287
C14   C     C_R   0.280724 0.377428 0.064169 -0.327790
C15   C     C_R   0.286190 0.359503 0.927010 0.633666
C16   C     C_R   0.495827 0.739798 0.495876 0.915153
C17   C     C_R   0.364580 0.375352 0.865157 0.502542
C18   C     C_R   0.433280 0.439570 0.929131 -0.019970
C19   C     C_R   0.431484 0.442675 0.072777 0.018746
C20   C     C_R   0.564183 0.556303 0.071109 0.054455
C21   C     C_R   0.563782 0.559671 0.928163 0.008027
C22   C     C_R   0.661418 0.501506 0.500823 0.849419
C23   C     C_3   0.917451 0.514721 0.506207 -0.449502
C24   C     C_3   0.048517 0.429054 0.625418 1.035206
C25   C     C_3   0.044742 0.460105 0.371785 0.241339
C26   C     C_3   0.946600 0.451425 0.377593 1.061739
C27   C     C_1   0.750282 0.506782 0.503347 -0.065959
C28   C     C_3   0.083043 0.512812 0.503628 -0.499962
C29   C     C_2   0.920020 0.476803 0.764368 0.768657
C30   C     C_2   0.924088 0.734950 0.390609 0.672736
C31   C     C_2   0.422660 0.064335 0.989783 0.595371
C32   C     C_2   0.567783 0.895903 0.261682 0.515648
C33   C     C_2   0.367196 0.278966 0.233801 0.528837
C34   C     C_3   0.956691 0.653859 0.508189 0.177471
C35   C     C_2   0.197955 0.362723 0.133739 0.790359
C36   C     C_2   0.632775 0.634684 0.858106 0.476813
C37   C     C_3   0.056346 0.650435 0.516796 1.132037
C38   C     C_1   0.825605 0.511429 0.505666 0.208379
C39   C     C_1   0.174607 0.509315 0.500283 0.309609
C40   C     C_1   0.249734 0.505114 0.498494 -0.000183
C41   C     C_R   0.480405 0.089523 0.757915 0.597601
F1    F     F_    0.087037 0.467892 0.743749 -0.533211
F2    F     F_    0.918235 0.325825 0.381027 -0.601324
F3    F     F_    0.912227 0.507017 0.262103 -0.544255
F4    F     F_    0.084889 0.693785 0.639448 -0.508549
F5    F     F_    0.096336 0.728739 0.419109 -0.529577
F6    F     F_    0.928828 0.709422 0.621442 -0.617175
F7    F     F_    0.588181 0.145156 0.301511 -0.644781
F8    F     F_    0.535670 0.180431 0.803735 -0.622053
F9    F     F_    0.323902 0.850779 0.893655 -0.504796
F10   F     F_    0.348240 0.763949 0.648058 -0.593502
F11   F     F_    0.069212 0.305666 0.610755 -0.561947
F12   F     F_    0.218229 0.313595 0.855907 -0.490145
F13   F     F_    0.373840 0.312336 0.753111 -0.611434
F14   F     F_    0.071790 0.535314 0.261570 -0.527988
H1    H     H_    0.922313 0.336364 0.622626 0.273241
H2    H     H_    0.623701 0.673505 0.757589 0.101383
H3    H     H_    0.615482 0.603773 0.125358 0.173622
H4    H     H_    0.067316 0.364548 0.358616 0.181273
H5    H     H_    0.947864 0.561399 0.806914 0.199831
H6    H     H_    0.863417 0.777280 0.399665 0.058153
H7    H     H_    0.462080 0.144986 0.019445 0.068232
H8    H     H_    0.634322 0.914161 0.236895 0.101798
H9    H     H_    0.418472 0.217457 0.220348 0.108108
H10   H     H_    0.195714 0.375758 0.240552 0.051666
N1    N     N_R   0.499210 0.498800 0.142780 -0.100181
N2    N     N_R   0.499180 0.498720 0.857170 -0.110516
O1    O     O_R   0.500000 0.316780 0.614690 -0.496562
O2    O     O_2   0.962088 0.750725 0.284682 -0.382404
O3    O     O_2   0.375371 0.010475 0.072497 -0.449327
O4    O     O_2   0.520530 0.842313 0.182136 -0.519199
O5    O     O_2   0.316675 0.253203 0.324083 -0.567484
O6    O     O_2   0.131608 0.338775 0.073118 -0.384921
O7    O     O_2   0.701058 0.657007 0.913947 -0.510047
O8    O     O_R   0.499990 0.316750 0.385360 -0.612480
O9    O     O_R   0.377150 0.500020 0.614720 -0.527012
O10   O     O_R   0.377140 0.499990 0.385380 -0.619689
O11   O     O_R   0.500010 0.683250 0.614640 -0.650868
O12   O     O_R   0.500000 0.683220 0.385310 -0.588381
O13   O     O_R   0.622860 0.500010 0.614620 -0.634802
O14   O     O_R   0.622850 0.499980 0.385280 -0.605336
O15   O     O_2   0.865136 0.414810 0.827196 -0.478651
Zn1   Zn    Zn3+2 0.500010 0.500020 0.653130 1.076990
Zn2   Zn    Zn3+2 0.499990 0.499980 0.346870 1.051509

loop_
_geom_bond_atom_site_label_1
_geom_bond_atom_site_label_2
_ccdc_geom_bond_type
C24   F11   S    
N2    Zn1   S    
C12   C29   S    
C34   C37   S    
C24   F1    S    
C30   O2    D    
C26   F3    S    
C7    C8    A    
C21   C36   S    
C25   C28   S    
C12   C23   S    
C15   F12   S    
C20   N1    A    
O12   Zn2   S    
O8    Zn2   S    
C35   H10   S    
C27   C38   T    
C1    C8    S    
C1    O1    A    
C19   N1    A    
C18   C19   A    
C23   C26   S    
C33   O5    D    
O11   Zn1   S    
C31   O3    D    
C4    C40   S    
C8    C9    A    
C9    C10   A    
C13   C14   A    
C21   N2    A    
C31   H7    S    
O13   Zn1   S    
O9    Zn1   S    
C41   F8    S    
C3    F9    S    
C26   F2    S    
C32   O4    D    
C30   C34   S    
C1    O8    A    
C22   O14   A    
C24   C28   S    
C36   H2    S    
C14   C35   S    
C13   C19   A    
C28   C39   S    
C18   N2    A    
C2    C31   S    
C13   C33   S    
C11   C16   S    
C29   H5    S    
C23   C34   S    
C17   C18   A    
C12   H1    S    
C36   O7    D    
C22   C27   S    
C20   H3    S    
C6    C11   A    
O14   Zn2   S    
C15   C17   A    
C35   O6    D    
O1    Zn1   S    
C25   F14   S    
C32   H8    S    
C3    C5    A    
C6    C7    A    
C23   C38   S    
C12   C24   S    
O10   Zn2   S    
C16   O12   A    
C2    C3    A    
C25   C26   S    
C22   O13   A    
C29   O15   D    
C5    C6    A    
C28   C37   S    
C33   H9    S    
C16   O11   A    
C7    C41   A    
C4    O9    A    
C10   C11   A    
N1    Zn2   S    
C39   C40   T    
C10   C32   S    
C4    O10   A    
C20   C21   A    
C9    F7    S    
C30   H6    S    
C2    C41   A    
C14   C15   A    
C5    F10   S    
C34   F6    S    
C25   H4    S    
C37   F5    S    
C37   F4    S    
C17   F13   S    
