data_mof_unit_15075.cif
_audit_creation_date              2012-12-11T14:19:34-0500
_audit_creation_method            fapswitch 2.2
_symmetry_space_group_name_H-M    P1
_symmetry_Int_Tables_number       1
_space_group_crystal_system       triclinic
_cell_length_a                    19.397865
_cell_length_b                    7.246168
_cell_length_c                    17.726126
_cell_angle_alpha                 90.01949
_cell_angle_beta                  107.696534
_cell_angle_gamma                 89.977541
_cell_volume                      2373.68512174

loop_
_atom_site_label
_atom_site_type_symbol
_atom_type_description
_atom_site_fract_x
_atom_site_fract_y
_atom_site_fract_z
_atom_type_partial_charge
O1    O     O_R   0.414820 0.494320 0.416790 -0.540234
O2    O     O_R   0.585180 0.994320 0.583210 -0.540140
O3    O     O_R   0.560270 0.819500 0.430140 -0.543288
O4    O     O_R   0.439730 0.319500 0.569860 -0.543355
C1    C     C_R   0.581460 0.655500 0.415051 0.708126
C2    C     C_R   0.418549 0.155588 0.584971 0.707789
O5    O     O_R   0.413840 0.823740 0.407440 -0.538084
O6    O     O_R   0.586160 0.323740 0.592560 -0.538023
O7    O     O_R   0.437710 0.998590 0.560350 -0.539197
O8    O     O_R   0.562290 0.498590 0.439650 -0.539185
C3    C     C_R   0.387584 0.654933 0.385269 0.733365
C4    C     C_R   0.612417 0.154924 0.614731 0.733741
O9    O     O_3   0.508000 0.662290 0.550200 -0.380149
O10   O     O_3   0.492000 0.162290 0.449800 -0.380168
V1    V     V_3+5 0.498520 0.935380 0.490690 1.395454
V2    V     V_3+5 0.501480 0.435380 0.509310 1.395515
C5    C     C_2   0.785285 0.271769 0.788504 -0.130064
C6    C     C_2   0.214711 0.771751 0.211481 -0.131822
C7    C     C_2   0.820427 0.113491 0.817072 -0.304819
C8    C     C_2   0.179576 0.613479 0.182924 -0.306221
H1    H     H_    0.807209 0.401965 0.815744 0.141169
H2    H     H_    0.192780 0.901933 0.184233 0.140946
H3    H     H_    0.800244 0.981887 0.790547 0.129839
H4    H     H_    0.199765 0.481888 0.209457 0.129636
C9    C     C_2   0.717421 0.284560 0.720422 -0.136105
C10   C     C_2   0.282575 0.784562 0.279563 -0.136968
C11   C     C_2   0.679335 0.138468 0.682555 -0.303771
C12   C     C_2   0.320668 0.638479 0.317443 -0.303993
H5    H     H_    0.697131 0.999399 0.700898 0.131995
H6    H     H_    0.302877 0.499408 0.299109 0.131861
C13   C     C_R   0.322256 0.298413 0.633478 -0.198505
C14   C     C_R   0.678067 0.797936 0.367098 -0.198507
C15   C     C_R   0.368577 0.148659 0.633793 -0.076999
C16   C     C_R   0.631706 0.648304 0.366566 -0.077247
C17   C     C_R   0.366517 0.993256 0.680537 -0.220247
C18   C     C_R   0.634335 0.492310 0.320342 -0.216970
C19   C     C_R   0.319866 0.988520 0.727588 0.100810
C20   C     C_R   0.681669 0.486824 0.274096 0.099093
C21   C     C_R   0.273156 0.139106 0.726431 0.044282
C22   C     C_R   0.728489 0.637312 0.275540 0.044294
C23   C     C_R   0.273964 0.293467 0.678576 0.036323
C24   C     C_R   0.727041 0.792239 0.322818 0.036124
C25   C     C_R   0.319280 0.835896 0.775974 -0.192028
C26   C     C_R   0.682966 0.333293 0.226410 -0.207078
C27   C     C_R   0.272973 0.832082 0.822851 -0.175254
C28   C     C_R   0.729986 0.328598 0.180381 -0.152525
C29   C     C_R   0.225696 0.979720 0.821421 0.115570
C30   C     C_R   0.776950 0.476758 0.181655 0.120597
C31   C     C_R   0.225624 0.134787 0.773024 0.005929
C32   C     C_R   0.776619 0.632476 0.229678 -0.000726
C33   C     C_R   0.177792 0.284082 0.770802 0.018629
C34   C     C_R   0.824425 0.782057 0.232003 0.011657
C35   C     C_R   0.177465 0.437802 0.720988 0.289656
C36   C     C_R   0.825999 0.933902 0.283630 0.292951
C37   C     C_R   0.226390 0.440555 0.676004 -0.223621
C38   C     C_R   0.775343 0.938108 0.326629 -0.218318
C39   C     C_R   0.178156 0.973498 0.867160 -0.219452
C40   C     C_R   0.824438 0.470470 0.135953 -0.181943
C41   C     C_R   0.130434 0.120121 0.865768 -0.077141
C42   C     C_R   0.870243 0.619893 0.135112 -0.085004
C43   C     C_R   0.130469 0.274058 0.817540 -0.205827
C44   C     C_R   0.869189 0.775502 0.182201 -0.217663
H7    H     H_    0.322888 0.417961 0.596912 0.123115
H8    H     H_    0.677107 0.917748 0.403440 0.123306
H9    H     H_    0.273443 0.712182 0.859531 0.124447
H10   H     H_    0.730062 0.208038 0.144209 0.130829
H11   H     H_    0.178706 0.854541 0.904439 0.119751
H12   H     H_    0.824600 0.350212 0.099579 0.125071
H13   H     H_    0.092280 0.383930 0.815905 0.144027
H14   H     H_    0.903770 0.890531 0.179394 0.141319
H15   H     H_    0.228266 0.557957 0.638984 0.137709
H16   H     H_    0.773844 0.053051 0.365003 0.136089
O11   O     O_R   0.937810 0.773680 0.060480 -0.537519
O12   O     O_R   0.062190 0.273680 0.939520 -0.538244
O13   O     O_R   0.086190 0.439740 0.092580 -0.541815
O14   O     O_R   0.913810 0.939740 0.907420 -0.541419
C45   C     C_R   0.112469 0.608310 0.114759 0.731523
C46   C     C_R   0.887532 0.108319 0.885239 0.733727
O15   O     O_R   0.939760 0.444210 0.069890 -0.541054
O16   O     O_R   0.060240 0.944210 0.930110 -0.542138
O17   O     O_R   0.914790 0.269640 0.916760 -0.536391
O18   O     O_R   0.085210 0.769640 0.083240 -0.536774
C47   C     C_R   0.919196 0.612478 0.085014 0.695356
C48   C     C_R   0.080854 0.112414 0.915075 0.697024
O19   O     O_3   0.992050 0.601530 0.949880 -0.378989
O20   O     O_3   0.007950 0.101530 0.050120 -0.379109
V3    V     V_3+5 0.001480 0.328340 0.009300 1.399878
V4    V     V_3+5 0.998520 0.828340 0.990700 1.397925
N1    N     N_2   0.128294 0.587494 0.717547 -0.519795
H17   H     H_    0.130430 0.644275 0.771501 0.254070
C49   C     C_3   0.113098 0.718422 0.652866 -0.525649
H18   H     H_    0.066857 0.807086 0.654418 0.199171
H19   H     H_    0.098062 0.644801 0.595170 0.199203
H20   H     H_    0.160671 0.808641 0.658693 0.198895
N2    N     N_2   0.879267 0.077054 0.292668 -0.515640
H21   H     H_    0.929478 0.030838 0.292577 0.248528
C50   C     C_3   0.884767 0.223315 0.349993 -0.539613
H22   H     H_    0.927193 0.322858 0.346433 0.197146
H23   H     H_    0.899934 0.165362 0.410863 0.188438
H24   H     H_    0.833180 0.300585 0.337141 0.214406
H25   H     H_    0.698168 0.422789 0.701460 0.138782
H26   H     H_    0.301820 0.922794 0.298515 0.138599
H27   H     H_    0.402137 0.877395 0.681396 0.127865
H28   H     H_    0.598732 0.376416 0.319367 0.127868
H29   H     H_    0.354626 0.719170 0.777529 0.131503
H30   H     H_    0.647670 0.216498 0.224797 0.133873

loop_
_geom_bond_atom_site_label_1
_geom_bond_atom_site_label_2
_ccdc_geom_bond_type
C20   C22   A    
O4    V2    S    
C11   H5    S    
N2    H21   S    
O1    C3    A    
O16   C48   A    
O2    C4    A    
C2    O7    A    
O15   V3    S    
C50   H22   S    
C21   C23   A    
O5    C3    A    
C8    C45   S    
C45   O18   A    
C17   C19   A    
O14   C46   A    
C28   H10   S    
C17   H27   S    
O13   V3    S    
C42   C47   S    
C22   C32   A    
C39   C41   A    
C49   H19   S    
C40   C42   A    
C44   H14   S    
C42   C44   A    
C25   H29   S    
C27   C29   A    
C23   C37   A    
C9    H25   S    
C24   C38   A    
C27   H9    S    
C8    H4    S    
C26   C28   A    
C31   C33   A    
C6    C10   S    
C32   C34   A    
C13   C15   A    
O12   V3    S    
N1    C49   S    
O14   V4    S    
C16   C18   A    
C30   C32   A    
O6    V2    S    
C39   H11   S    
C50   H23   S    
C34   C36   A    
C28   C30   A    
C35   C37   A    
C36   C38   A    
C41   C43   A    
C4    C11   S    
C13   H7    S    
C41   C48   S    
C14   H8    S    
C29   C31   A    
C49   H18   S    
O20   V3    S    
C5    C7    D    
O5    V1    S    
C38   H16   S    
C5    H1    S    
C33   C35   A    
C14   C16   A    
C19   C25   A    
C7    C46   S    
C7    H3    S    
O11   V4    S    
C20   C26   A    
C29   C39   A    
C25   C27   A    
O6    C4    A    
C1    C16   S    
O1    V2    S    
O2    V1    S    
O13   C45   A    
C36   N2    S    
O17   V3    S    
O4    C2    A    
C21   C31   A    
C35   N1    S    
C18   C20   A    
C50   H24   S    
O3    V1    S    
O19   V4    S    
C43   H13   S    
C13   C23   A    
C6    H2    S    
O12   C48   A    
O3    C1    A    
N2    C50   S    
C30   C40   A    
C26   H30   S    
C9    C11   D    
C10   C12   D    
C2    C15   S    
C18   H28   S    
C5    C9    S    
C12   H6    S    
O7    V1    S    
C1    O8    A    
O16   V4    S    
O8    V2    S    
C10   H26   S    
C49   H20   S    
O15   C47   A    
C33   C43   A    
C46   O17   A    
C40   H12   S    
C3    C12   S    
O18   V4    S    
C22   C24   A    
C15   C17   A    
C6    C8    D    
C19   C21   A    
O9    V2    S    
C14   C24   A    
O10   V1    S    
C34   C44   A    
N1    H17   S    
O11   C47   A    
C37   H15   S    
