data_mof_unit_25032.cif
_audit_creation_date              2012-10-26T20:43:34-0400
_audit_creation_method            fapswitch 2.2
_symmetry_space_group_name_H-M    P1
_symmetry_Int_Tables_number       1
_space_group_crystal_system       triclinic
_cell_length_a                    10.806517
_cell_length_b                    9.507703
_cell_length_c                    23.513283
_cell_angle_alpha                 89.933277
_cell_angle_beta                  89.8656
_cell_angle_gamma                 89.925213
_cell_volume                      2415.86555111

loop_
_atom_site_label
_atom_site_type_symbol
_atom_type_description
_atom_site_fract_x
_atom_site_fract_y
_atom_site_fract_z
_atom_type_partial_charge
C1    C     C_R   0.262191 0.500317 0.500073 0.602461
C2    C     C_R   0.502320 0.371800 0.701850 -0.175357
C3    C     C_R   0.501337 0.369566 0.238751 0.054900
C4    C     C_R   0.503797 0.369658 0.761451 0.057603
C5    C     C_R   0.499991 0.498889 0.208848 0.256733
C6    C     C_R   0.505761 0.499053 0.791176 0.255519
C7    C     C_R   0.064956 0.406274 0.463177 0.223438
C8    C     C_R   0.934724 0.596325 0.533216 0.210029
C9    C     C_R   0.935936 0.408150 0.462032 0.226411
C10   C     C_R   0.063557 0.602595 0.530773 0.210047
C11   C     C_R   0.871314 0.501094 0.498160 -0.065876
C12   C     C_R   0.737635 0.499994 0.499611 0.580163
C13   C     C_R   0.128260 0.502252 0.498283 -0.064979
C14   C     C_R   0.424087 0.074635 0.464333 0.018326
C15   C     C_R   0.575867 0.925318 0.535706 0.025154
C16   C     C_R   0.575889 0.074236 0.535693 0.026211
C17   C     C_R   0.424135 0.925750 0.464308 0.004416
C18   C     C_R   0.499044 0.500026 0.390863 0.521726
C19   C     C_R   0.500790 0.499918 0.609146 0.555620
C20   C     C_R   0.615243 0.507190 0.880627 0.439714
C21   C     C_R   0.390612 0.504956 0.119375 0.440190
C22   C     C_R   0.394009 0.505285 0.880235 0.442023
C23   C     C_R   0.497922 0.626081 0.238749 -0.084645
C24   C     C_R   0.611847 0.506910 0.119803 0.440889
C25   C     C_R   0.390814 0.507338 0.939860 0.039141
C26   C     C_R   0.615035 0.509133 0.060168 0.039954
C27   C     C_R   0.503353 0.508609 0.970003 -0.021350
C28   C     C_R   0.502498 0.508520 0.030016 -0.021356
C29   C     C_R   0.616741 0.509305 0.940275 0.040180
C30   C     C_R   0.389107 0.507156 0.059735 0.039965
C31   C     C_R   0.278305 0.507111 0.969916 -0.112168
C32   C     C_R   0.727531 0.510941 0.030106 -0.112435
C33   C     C_R   0.277460 0.507016 0.029251 -0.112439
C34   C     C_R   0.507054 0.626164 0.761096 -0.084643
C35   C     C_R   0.728375 0.511026 0.970765 -0.112062
C36   C     C_2   0.503312 0.230424 0.210072 0.263594
C37   C     C_2   0.503102 0.230585 0.790334 0.268596
C38   C     C_3   0.173200 0.361654 0.381323 -0.081055
C39   C     C_3   0.855194 0.618312 0.622181 -0.078961
C40   C     C_3   0.832908 0.383941 0.378223 -0.074956
C41   C     C_3   0.121883 0.831070 0.541034 -0.047055
C42   C     C_R   0.497377 0.626753 0.297919 -0.151231
C43   C     C_R   0.505691 0.626698 0.701931 -0.147938
C44   C     C_R   0.498949 0.499696 0.328237 -0.019779
C45   C     C_R   0.502828 0.499574 0.671778 -0.003256
C46   C     C_R   0.500830 0.371855 0.298341 -0.197035
Cu1   Cu    Cu3+1 0.500000 0.640660 0.500000 0.967702
Cu2   Cu    Cu3+1 0.500000 0.359340 0.500000 0.973695
H1    H     H_    0.190592 0.506336 0.947722 0.171147
H2    H     H_    0.500608 0.273093 0.678839 0.112756
H3    H     H_    0.363324 0.130912 0.435777 0.134633
H4    H     H_    0.636600 0.868937 0.564298 0.140016
H5    H     H_    0.636655 0.130265 0.564266 0.114556
H6    H     H_    0.363410 0.869726 0.435718 0.105360
H7    H     H_    0.504562 0.135038 0.235503 0.086366
H8    H     H_    0.500275 0.135143 0.765061 0.087749
H9    H     H_    0.252908 0.297403 0.366778 0.134191
H10   H     H_    0.101420 0.355087 0.347878 0.139841
H11   H     H_    0.206482 0.472109 0.385265 0.086960
H12   H     H_    0.815242 0.511634 0.052303 0.170496
H13   H     H_    0.801303 0.519177 0.617950 0.102680
H14   H     H_    0.802073 0.689157 0.650689 0.139993
H15   H     H_    0.945977 0.596827 0.642710 0.165638
H16   H     H_    0.907501 0.445706 0.357271 0.096653
H17   H     H_    0.754246 0.454852 0.387939 0.121480
H18   H     H_    0.799743 0.304578 0.347277 0.153226
H19   H     H_    0.027976 0.877564 0.545340 0.168870
H20   H     H_    0.187163 0.900236 0.564202 0.143034
H21   H     H_    0.150719 0.830710 0.495506 0.106343
H22   H     H_    0.189123 0.506176 0.051108 0.170312
H23   H     H_    0.816710 0.511776 0.948905 0.170889
H24   H     H_    0.496835 0.724969 0.215844 0.131877
H25   H     H_    0.508660 0.725107 0.783860 0.132626
H26   H     H_    0.495818 0.726828 0.319865 0.133811
H27   H     H_    0.506646 0.726738 0.679858 0.133287
H28   H     H_    0.502028 0.273197 0.321489 0.111047
N1    N     N_R   0.505035 0.503753 0.852089 -0.370272
N2    N     N_R   0.500839 0.503439 0.147931 -0.369442
N3    N     N_R   0.500000 0.852070 0.500000 -0.228343
N4    N     N_R   0.500000 0.147930 0.500000 -0.225812
O1    O     O_R   0.319640 0.618740 0.500000 -0.486122
O2    O     O_2   0.283108 0.503329 0.148679 -0.484447
O3    O     O_2   0.287323 0.503832 0.850533 -0.474655
O4    O     O_2   0.718514 0.507209 0.149524 -0.483730
O5    O     O_2   0.503506 0.219351 0.158372 -0.467267
O6    O     O_2   0.505936 0.219628 0.842029 -0.466983
O7    O     O_3   0.128213 0.304019 0.432779 -0.529341
O8    O     O_3   0.870729 0.685873 0.569221 -0.556158
O9    O     O_3   0.874372 0.313354 0.427550 -0.513571
O10   O     O_3   0.127008 0.695422 0.565437 -0.534291
O11   O     O_R   0.680360 0.381260 0.500000 -0.474343
O12   O     O_R   0.680360 0.618740 0.500000 -0.469691
O13   O     O_R   0.319640 0.381260 0.500000 -0.467123
O14   O     O_R   0.499960 0.618810 0.417880 -0.515261
O15   O     O_R   0.500040 0.381190 0.582120 -0.514722
O16   O     O_R   0.500040 0.618810 0.582120 -0.497351
O17   O     O_R   0.499960 0.381190 0.417880 -0.510267
O18   O     O_2   0.722732 0.507481 0.851308 -0.482470

loop_
_geom_bond_atom_site_label_1
_geom_bond_atom_site_label_2
_ccdc_geom_bond_type
C25   C31   A    
C26   C32   A    
Cu2   O15   S    
C27   C29   A    
Cu1   O12   S    
C12   O11   A    
Cu1   N3    S    
C46   H28   S    
C41   H19   S    
Cu2   O17   S    
C23   C42   A    
C20   N1    A    
C24   C26   A    
C1    O1    A    
C15   C16   A    
C17   N3    A    
C16   H5    S    
C2    H2    S    
C38   H10   S    
C37   H8    S    
C7    O7    S    
C14   H3    S    
C22   C25   A    
C21   N2    A    
Cu1   O16   S    
C31   C33   A    
C18   O17   A    
C14   N4    A    
C40   O9    S    
C41   O10   S    
C35   H23   S    
C40   H18   S    
C14   C17   A    
C42   C44   A    
C39   O8    S    
C31   H1    S    
C44   C46   A    
C41   H20   S    
C20   C29   A    
C2    C45   A    
C43   H27   S    
C39   H13   S    
C15   N3    A    
C42   H26   S    
Cu2   O13   S    
C32   C35   A    
C37   O6    D    
C4    C6    A    
C9    O9    S    
C6    N1    S    
Cu2   O11   S    
C6    C34   A    
C8    O8    S    
C2    C4    A    
C18   C44   S    
C38   H9    S    
C43   C45   A    
Cu1   Cu2   S    
C5    C23   A    
C15   H4    S    
C4    C37   S    
C9    C11   A    
C33   H22   S    
C24   N2    A    
C40   H17   S    
C18   O14   A    
C1    C13   S    
C32   H12   S    
C19   O15   A    
C41   H21   S    
C7    C9    A    
C39   H14   S    
C30   C33   A    
C23   H24   S    
C12   O12   A    
C8    C10   A    
C34   C43   A    
C22   N1    A    
C3    C5    A    
C10   C13   A    
C11   C12   S    
C19   C45   S    
C36   O5    D    
C25   C27   A    
C39   H15   S    
C21   C30   A    
C29   C35   A    
C3    C46   A    
C26   C28   A    
C40   H16   S    
C38   O7    S    
C22   O3    S    
Cu2   N4    S    
C28   C30   A    
C24   O4    S    
C36   H7    S    
C3    C36   S    
C8    C11   A    
Cu1   O14   S    
Cu1   O1    S    
C34   H25   S    
C38   H11   S    
C7    C13   A    
C20   O18   S    
C21   O2    S    
C10   O10   S    
C1    O13   A    
C27   C28   A    
C16   N4    A    
C5    N2    S    
C17   H6    S    
C19   O16   A    
