data_mof_unit_51354.cif
_audit_creation_date              2012-12-10T17:39:09-0500
_audit_creation_method            fapswitch 2.2
_symmetry_space_group_name_H-M    P1
_symmetry_Int_Tables_number       1
_space_group_crystal_system       triclinic
_cell_length_a                    12.115037
_cell_length_b                    12.89155
_cell_length_c                    23.382225
_cell_angle_alpha                 92.630668
_cell_angle_beta                  86.677277
_cell_angle_gamma                 93.268662
_cell_volume                      3636.47820575

loop_
_atom_site_label
_atom_site_type_symbol
_atom_type_description
_atom_site_fract_x
_atom_site_fract_y
_atom_site_fract_z
_atom_type_partial_charge
C1    C     C_R   0.521427 0.700080 0.498200 0.879760
C2    C     C_R   0.591629 0.479481 0.292743 -0.311903
C3    C     C_R   0.399035 0.504616 0.765939 0.550052
C4    C     C_R   0.591868 0.485364 0.233141 0.535905
C5    C     C_R   0.500411 0.505419 0.792041 0.248020
C6    C     C_R   0.504352 0.532189 0.209615 0.256954
C7    C     C_R   0.465118 0.188526 0.502129 -0.058169
C8    C     C_R   0.532767 0.811264 0.494950 -0.058340
C9    C     C_R   0.642069 0.967845 0.474145 -0.193734
C10   C     C_R   0.353394 0.031711 0.519678 -0.204535
C11   C     C_R   0.633036 0.860667 0.475838 -0.227512
C12   C     C_R   0.478219 0.299865 0.501000 0.897903
C13   C     C_R   0.362276 0.138999 0.517135 -0.181956
C14   C     C_R   0.439619 0.868283 0.509199 -0.236611
C15   C     C_R   0.558183 0.131304 0.488837 -0.246799
C16   C     C_R   0.500381 0.500025 0.610576 0.912002
C17   C     C_R   0.500314 0.503433 0.389587 0.900011
C18   C     C_R   0.446924 0.974691 0.506232 0.173156
C19   C     C_R   0.549569 0.024820 0.489741 0.179278
C20   C     C_R   0.952886 0.394327 0.450443 -0.316333
C21   C     C_R   0.044629 0.582901 0.561573 -0.318461
C22   C     C_R   0.839173 0.407493 0.452573 0.223335
C23   C     C_R   0.600482 0.501107 0.759371 -0.194150
C24   C     C_R   0.159696 0.580881 0.553519 0.215420
C25   C     C_R   0.858671 0.540342 0.525858 0.554421
C26   C     C_R   0.140741 0.459035 0.474662 0.556107
C27   C     C_R   0.975253 0.529195 0.523327 -0.088692
C28   C     C_R   0.023359 0.460939 0.482143 -0.092002
C29   C     C_R   0.463196 0.440609 0.121380 0.522978
C30   C     C_R   0.534576 0.600900 0.880537 0.537668
C31   C     C_R   0.531356 0.618485 0.120423 0.545099
C32   C     C_R   0.467728 0.422670 0.881813 0.543697
C33   C     C_R   0.531481 0.616582 0.060615 -0.026061
C34   C     C_R   0.418693 0.573122 0.244548 -0.186580
C35   C     C_R   0.465099 0.425527 0.941599 -0.021813
C36   C     C_R   0.497287 0.523460 0.031157 -0.018081
C37   C     C_R   0.498666 0.518867 0.970989 -0.019354
C38   C     C_R   0.462240 0.434705 0.061713 -0.015605
C39   C     C_R   0.533944 0.607478 0.940347 -0.025608
C40   C     C_R   0.566010 0.704576 0.029712 -0.154884
C41   C     C_R   0.429842 0.337728 0.972476 -0.159537
C42   C     C_R   0.567189 0.700073 0.970057 -0.152215
C43   C     C_R   0.428324 0.342310 0.032071 -0.161759
C44   C     C_3   0.200812 0.440539 0.379298 0.130207
C45   C     C_R   0.600814 0.498225 0.700018 -0.196563
C46   C     C_3   0.111902 0.405045 0.337343 -0.442586
C47   C     C_3   0.147486 0.434256 0.276151 -0.902237
C48   C     C_3   0.809141 0.708622 0.547532 0.125211
C49   C     C_3   0.894367 0.785169 0.574953 -0.423586
C50   C     C_3   0.867712 0.897860 0.567110 -0.909668
C51   C     C_3   0.212958 0.449290 0.782377 0.101419
C52   C     C_3   0.123119 0.514570 0.761024 -0.346089
C53   C     C_3   0.028674 0.446095 0.736622 -0.932982
C54   C     C_3   0.707220 0.351239 0.205675 0.104212
C55   C     C_3   0.825981 0.351155 0.224736 -0.358786
C56   C     C_R   0.418160 0.565241 0.303503 -0.253355
C57   C     C_3   0.860477 0.240826 0.232321 -0.901283
C58   C     C_R   0.500752 0.500214 0.672988 -0.093297
C59   C     C_R   0.502411 0.514844 0.327742 -0.097701
C60   C     C_R   0.400414 0.503855 0.705962 -0.322303
H1    H     H_    0.592553 0.776925 0.051463 0.191857
H2    H     H_    0.352551 0.599302 0.330027 0.158596
H3    H     H_    0.323579 0.506954 0.685073 0.188231
H4    H     H_    0.660435 0.446889 0.311481 0.190745
H5    H     H_    0.638068 0.169123 0.477980 0.192496
H6    H     H_    0.360891 0.830303 0.522470 0.186083
H7    H     H_    0.289769 0.182986 0.527752 0.175436
H8    H     H_    0.703531 0.816887 0.461511 0.152752
H9    H     H_    0.720447 0.005937 0.460157 0.153883
H10   H     H_    0.274143 0.993539 0.532092 0.153055
H11   H     H_    0.279894 0.414605 0.358848 0.203672
H12   H     H_    0.403505 0.265295 0.950741 0.193114
H13   H     H_    0.206363 0.527229 0.383600 0.111169
H14   H     H_    0.096465 0.319279 0.337929 0.249545
H15   H     H_    0.034088 0.443901 0.349389 0.232682
H16   H     H_    0.163205 0.519786 0.274211 0.258925
H17   H     H_    0.080720 0.409542 0.247086 0.270190
H18   H     H_    0.223714 0.394969 0.260956 0.288439
H19   H     H_    0.726778 0.736885 0.561521 0.201524
H20   H     H_    0.819670 0.711946 0.499914 0.109565
H21   H     H_    0.895586 0.772131 0.621571 0.252508
H22   H     H_    0.977744 0.774099 0.554182 0.228524
H23   H     H_    0.985389 0.331634 0.423543 0.210414
H24   H     H_    0.868428 0.913506 0.520773 0.258290
H25   H     H_    0.931117 0.951006 0.587225 0.272747
H26   H     H_    0.785236 0.914146 0.587758 0.275023
H27   H     H_    0.177395 0.407312 0.820213 0.180031
H28   H     H_    0.236814 0.387562 0.749697 0.131559
H29   H     H_    0.089585 0.564512 0.797213 0.240518
H30   H     H_    0.158980 0.566299 0.727293 0.246358
H31   H     H_    0.059927 0.397931 0.699167 0.269636
H32   H     H_    0.964551 0.495846 0.722307 0.273719
H33   H     H_    0.990172 0.394463 0.769838 0.266842
H34   H     H_    0.010412 0.626653 0.598179 0.207058
H35   H     H_    0.702609 0.307080 0.163860 0.179338
H36   H     H_    0.649253 0.308574 0.236441 0.146345
H37   H     H_    0.883409 0.388637 0.192047 0.237969
H38   H     H_    0.833207 0.396791 0.265925 0.237163
H39   H     H_    0.804173 0.201573 0.264780 0.285949
H40   H     H_    0.946085 0.243604 0.247115 0.270836
H41   H     H_    0.858326 0.195025 0.190952 0.265979
H42   H     H_    0.594431 0.769143 0.947353 0.193107
H43   H     H_    0.401058 0.273225 0.054760 0.192408
H44   H     H_    0.677991 0.500537 0.780198 0.162222
H45   H     H_    0.351846 0.609599 0.225801 0.159987
H46   H     H_    0.679266 0.495538 0.675446 0.196062
I1    I     I_    0.249556 0.682473 0.609828 -0.412031
I2    I     I_    0.750017 0.309096 0.394694 -0.460564
N1    N     N_R   0.498421 0.531079 0.149079 -0.339223
N2    N     N_R   0.501667 0.509610 0.852894 -0.338631
N3    N     N_R   0.207800 0.519350 0.510590 -0.158980
N4    N     N_R   0.792200 0.480650 0.489410 -0.155621
O1    O     O_R   0.421690 0.658830 0.502820 -0.602300
O2    O     O_2   0.566896 0.684906 0.850124 -0.545646
O3    O     O_2   0.564855 0.706136 0.149772 -0.549947
O4    O     O_2   0.436846 0.333985 0.852608 -0.569635
O5    O     O_3   0.186739 0.391975 0.432862 -0.634741
O6    O     O_3   0.811749 0.606594 0.567738 -0.642294
O7    O     O_3   0.302740 0.515526 0.800671 -0.639214
O8    O     O_3   0.680265 0.454694 0.197017 -0.647331
O9    O     O_R   0.578310 0.341170 0.497180 -0.602347
O10   O     O_R   0.609320 0.646410 0.496030 -0.643853
O11   O     O_R   0.390680 0.353590 0.503970 -0.595470
O12   O     O_R   0.406170 0.506240 0.587240 -0.602031
O13   O     O_R   0.593830 0.493760 0.412760 -0.592075
O14   O     O_R   0.593790 0.493820 0.580450 -0.589129
O15   O     O_R   0.406210 0.506180 0.419550 -0.633622
O16   O     O_2   0.429870 0.356699 0.151703 -0.582992
Zn1   Zn    Zn3+2 0.374720 0.508290 0.504530 0.996013
Zn2   Zn    Zn3+2 0.625280 0.491710 0.495470 0.997428

loop_
_geom_bond_atom_site_label_1
_geom_bond_atom_site_label_2
_ccdc_geom_bond_type
C34   C56   A    
C23   C45   A    
C54   O8    S    
C1    C8    S    
C14   C18   A    
C52   H30   S    
C26   O5    S    
O9    Zn2   S    
C25   O6    S    
C50   H24   S    
C45   H46   S    
C15   C19   A    
O1    Zn1   S    
C30   N2    A    
C60   H3    S    
C48   H19   S    
C29   N1    A    
C36   C37   A    
C35   C37   A    
C9    H9    S    
C47   H16   S    
C30   O2    S    
C5    N2    S    
O14   Zn2   S    
C58   C60   A    
C15   H5    S    
C33   C36   A    
C44   H11   S    
C18   C19   A    
C49   H21   S    
C1    O10   A    
C50   H25   S    
C46   C47   S    
O13   Zn2   S    
C9    C19   A    
C12   O9    A    
C2    H4    S    
C29   C38   A    
C53   H31   S    
C51   O7    S    
C31   C33   A    
C54   H36   S    
C25   N4    A    
C3    C60   A    
C40   C42   A    
C21   C27   A    
O11   Zn1   S    
C41   C43   A    
C52   H29   S    
C24   N3    A    
C1    O1    A    
C42   H42   S    
C31   O3    S    
C46   H15   S    
C44   C46   S    
C39   C42   A    
C14   H6    S    
C7    C12   S    
C45   C58   A    
C33   C40   A    
C53   H33   S    
C51   C52   S    
C32   C35   A    
C4    C6    A    
C51   H27   S    
C2    C59   A    
C17   O15   A    
C48   O6    S    
C20   C28   A    
C57   H40   S    
C40   H1    S    
C6    C34   A    
C49   H22   S    
C29   O16   S    
C2    C4    A    
O15   Zn1   S    
C23   H44   S    
C5    C23   A    
C55   H37   S    
C53   H32   S    
C31   N1    A    
C24   I1    S    
C16   C58   S    
C52   C53   S    
C32   O4    S    
C9    C11   A    
C54   H35   S    
C3    O7    S    
C17   C59   S    
C41   H12   S    
C10   H10   S    
C48   C49   S    
C20   C22   A    
C22   N4    A    
C55   C57   S    
C6    N1    S    
C56   H2    S    
C20   H23   S    
C47   H17   S    
C46   H14   S    
C11   H8    S    
N3    Zn1   S    
C13   H7    S    
C30   C39   A    
C54   C55   S    
C8    C14   A    
C34   H45   S    
C3    C5    A    
C10   C13   A    
C51   H28   S    
C25   C27   A    
C57   H41   S    
C26   C28   A    
C56   C59   A    
C48   H20   S    
C36   C38   A    
C16   O12   A    
C38   C43   A    
C37   C39   A    
C17   O13   A    
C12   O11   A    
C44   O5    S    
C10   C18   A    
C8    C11   A    
C22   I2    S    
C55   H38   S    
C7    C15   A    
O12   Zn1   S    
C44   H13   S    
C35   C41   A    
C43   H43   S    
C50   H26   S    
C21   H34   S    
C7    C13   A    
C49   C50   S    
C32   N2    A    
C21   C24   A    
C27   C28   A    
C4    O8    S    
C47   H18   S    
N4    Zn2   S    
C16   O14   A    
C26   N3    A    
O10   Zn2   S    
C57   H39   S    
