data_mof_unit_15318.cif
_audit_creation_date              2012-12-11T15:14:48-0500
_audit_creation_method            fapswitch 2.2
_symmetry_space_group_name_H-M    P1
_symmetry_Int_Tables_number       1
_space_group_crystal_system       triclinic
_cell_length_a                    22.233972
_cell_length_b                    7.22912
_cell_length_c                    19.254658
_cell_angle_alpha                 90.000357
_cell_angle_beta                  99.155136
_cell_angle_gamma                 89.999791
_cell_volume                      3055.41598342

loop_
_atom_site_label
_atom_site_type_symbol
_atom_type_description
_atom_site_fract_x
_atom_site_fract_y
_atom_site_fract_z
_atom_type_partial_charge
O1    O     O_R   0.448470 0.506130 0.415700 -0.532134
O2    O     O_R   0.551530 0.006130 0.584300 -0.532130
O3    O     O_R   0.436320 0.174490 0.555800 -0.534454
O4    O     O_R   0.563680 0.674490 0.444200 -0.534464
C1    C     C_R   0.421126 0.344370 0.575167 0.704809
C2    C     C_R   0.578874 0.844369 0.424833 0.704817
O5    O     O_R   0.441350 0.176340 0.414480 -0.534862
O6    O     O_R   0.558650 0.676340 0.585520 -0.534862
O7    O     O_R   0.556600 0.007100 0.441970 -0.531919
O8    O     O_R   0.443400 0.507100 0.558030 -0.531927
C3    C     C_R   0.427128 0.344910 0.389058 0.685658
C4    C     C_R   0.572872 0.844910 0.610943 0.685674
O9    O     O_3   0.537810 0.339550 0.509190 -0.372191
O10   O     O_3   0.462190 0.839550 0.490810 -0.372196
V1    V     V_3+5 0.492990 0.064280 0.498300 1.431194
V2    V     V_3+5 0.507010 0.564280 0.501700 1.431173
C5    C     C_R   0.871294 0.950389 0.691898 -0.114542
C6    C     C_R   0.128706 0.450415 0.308102 -0.114566
H1    H     H_    0.784662 0.910253 0.575231 0.112174
H2    H     H_    0.215339 0.410307 0.424769 0.112251
C7    C     C_R   0.886287 0.941577 0.820218 -0.162345
C8    C     C_R   0.113713 0.441580 0.179782 -0.162322
C9    C     C_R   0.589852 0.841951 0.740283 -0.255036
C10   C     C_R   0.410147 0.341921 0.259717 -0.255020
C11   C     C_R   0.626359 0.852743 0.806177 0.038344
C12   C     C_R   0.373640 0.352702 0.193823 0.038298
C13   C     C_R   0.689574 0.875350 0.810836 -0.150798
C14   C     C_R   0.310426 0.375324 0.189164 -0.150801
C15   C     C_R   0.717739 0.886112 0.749908 0.063349
C16   C     C_R   0.282261 0.386109 0.250092 0.063349
C17   C     C_R   0.679372 0.875131 0.682950 0.066631
C18   C     C_R   0.320628 0.375141 0.317050 0.066637
C19   C     C_R   0.782569 0.908808 0.753402 0.094697
C20   C     C_R   0.217432 0.408814 0.246598 0.094704
C21   C     C_R   0.807422 0.923770 0.689679 -0.000627
C22   C     C_R   0.192579 0.423793 0.310320 -0.000626
C23   C     C_R   0.768057 0.907423 0.624931 -0.175148
C24   C     C_R   0.231944 0.407460 0.375069 -0.175183
C25   C     C_R   0.705706 0.884662 0.621699 -0.169917
C26   C     C_R   0.294295 0.384693 0.378301 -0.169931
C27   C     C_R   0.823611 0.914546 0.818070 -0.296034
C28   C     C_R   0.176389 0.414544 0.181930 -0.296039
C29   C     C_R   0.909921 0.965643 0.757554 0.441464
C30   C     C_R   0.090079 0.465658 0.242445 0.441443
C31   C     C_R   0.615244 0.853590 0.678614 -0.075762
C32   C     C_R   0.384756 0.353587 0.321386 -0.075756
H3    H     H_    0.808633 0.897958 0.868189 0.123222
H4    H     H_    0.191367 0.397947 0.131810 0.123226
H5    H     H_    0.540972 0.825369 0.736838 0.101790
H6    H     H_    0.459027 0.325327 0.263163 0.101772
H7    H     H_    0.715418 0.885491 0.862875 0.151614
H8    H     H_    0.284581 0.385454 0.137125 0.151631
H9    H     H_    0.678107 0.874086 0.570171 0.100247
H10   H     H_    0.321894 0.374128 0.429829 0.100254
C33   C     C_3   0.775971 0.944211 0.316468 -0.127625
C34   C     C_3   0.224603 0.449957 0.684002 -0.128010
C35   C     C_3   0.770383 0.072589 0.251208 -0.130895
C36   C     C_3   0.231077 0.573790 0.750563 -0.130930
H11   H     H_    0.786779 0.217678 0.251273 0.120531
H12   H     H_    0.215867 0.719849 0.751952 0.119971
H13   H     H_    0.796695 0.982958 0.370815 0.121139
H14   H     H_    0.204350 0.493468 0.630040 0.121090
H15   H     H_    0.664295 0.102432 0.210906 0.119113
H16   H     H_    0.337324 0.594121 0.791474 0.119672
C37   C     C_1   0.875435 0.940269 0.121472 -0.163679
C38   C     C_1   0.124566 0.440264 0.878530 -0.163654
C39   C     C_1   0.625106 0.854022 0.379423 -0.179495
C40   C     C_1   0.374893 0.354024 0.620577 -0.179490
C41   C     C_3   0.797838 0.784372 0.272865 -0.135341
C42   C     C_3   0.201279 0.288901 0.725836 -0.134825
C43   C     C_3   0.791626 0.912559 0.208234 0.155684
C44   C     C_3   0.208376 0.412546 0.791768 0.155774
C45   C     C_3   0.730880 0.721299 0.250528 -0.141446
C46   C     C_3   0.267663 0.220085 0.747703 -0.141760
C47   C     C_3   0.709620 0.881339 0.293494 0.156016
C48   C     C_3   0.290380 0.381340 0.706506 0.155823
C49   C     C_3   0.725284 0.849679 0.185283 -0.124192
C50   C     C_3   0.274144 0.343920 0.814250 -0.124313
C51   C     C_3   0.703438 0.009516 0.228863 -0.138098
C52   C     C_3   0.297447 0.504974 0.772439 -0.137344
C53   C     C_1   0.837579 0.928914 0.160437 -0.040699
C54   C     C_1   0.162423 0.428906 0.839565 -0.040631
C55   C     C_1   0.663363 0.865173 0.340942 -0.056153
C56   C     C_1   0.336636 0.365174 0.659057 -0.056122
H17   H     H_    0.704546 0.810918 0.130943 0.142052
H18   H     H_    0.294410 0.300394 0.868205 0.141428
H19   H     H_    0.714494 0.576200 0.250460 0.115009
H20   H     H_    0.282862 0.074017 0.746317 0.114792
H21   H     H_    0.837022 0.691551 0.290773 0.129247
H22   H     H_    0.161361 0.199844 0.706853 0.129607
O11   O     O_R   0.056650 0.288730 0.942060 -0.534427
O12   O     O_R   0.943350 0.788730 0.057940 -0.534422
O13   O     O_R   0.058660 0.616870 0.085540 -0.544918
O14   O     O_R   0.941340 0.116870 0.914460 -0.544916
C57   C     C_R   0.072433 0.448781 0.111405 0.754998
C58   C     C_R   0.927568 0.948781 0.888595 0.755017
O15   O     O_R   0.063700 0.618520 0.944220 -0.529331
O16   O     O_R   0.936300 0.118520 0.055780 -0.529343
O17   O     O_R   0.948460 0.787610 0.915680 -0.530999
O18   O     O_R   0.051540 0.287610 0.084320 -0.531005
C59   C     C_R   0.078817 0.450031 0.924534 0.703905
C60   C     C_R   0.921183 0.950032 0.075466 0.703899
O19   O     O_3   0.962230 0.453430 0.990860 -0.375915
O20   O     O_3   0.037770 0.953430 0.009140 -0.375919
V3    V     V_3+5 0.007010 0.728750 0.001700 1.453281
V4    V     V_3+5 0.992990 0.228750 0.998300 1.453260
O21   O     O_3   0.971966 0.993883 0.760902 -0.537341
C61   C     C_3   0.982964 0.185572 0.756535 -0.159457
H23   H     H_    0.965594 0.263984 0.798921 0.117140
H24   H     H_    0.962749 0.242145 0.704333 0.138341
H25   H     H_    0.032898 0.208207 0.763035 0.158066
O22   O     O_3   0.028034 0.493899 0.239097 -0.537399
C62   C     C_3   0.017035 0.685589 0.243461 -0.159487
H26   H     H_    0.034408 0.763996 0.201075 0.117131
H27   H     H_    0.037248 0.742167 0.295663 0.138401
H28   H     H_    0.967101 0.708223 0.236957 0.158160
C63   C     C_2   0.898561 0.964553 0.626250 0.424961
H29   H     H_    0.874366 0.032842 0.579993 0.023096
O23   O     O_2   0.948902 0.900390 0.623313 -0.489223
C64   C     C_2   0.101439 0.464589 0.373749 0.425027
H30   H     H_    0.125633 0.532889 0.420004 0.023118
O24   O     O_2   0.051099 0.400420 0.376688 -0.489228
C65   C     C_2   0.597355 0.840965 0.870129 0.381742
H31   H     H_    0.548342 0.824112 0.865286 0.045815
O25   O     O_2   0.627567 0.849753 0.928841 -0.530430
C66   C     C_2   0.402643 0.340893 0.129872 0.381824
H32   H     H_    0.451656 0.324028 0.134715 0.045806
O26   O     O_2   0.372431 0.349668 0.071159 -0.530302

loop_
_geom_bond_atom_site_label_1
_geom_bond_atom_site_label_2
_ccdc_geom_bond_type
C16   C18   A    
C39   C55   T    
C66   H32   S    
C9    C31   A    
C13   C15   A    
H16   C52   S    
C8    C57   S    
C35   C51   S    
O1    C3    A    
O2    C4    A    
C48   C56   S    
C2    O7    A    
C65   H31   S    
H15   C51   S    
C12   C14   A    
O5    C3    A    
C46   C48   S    
C34   C48   S    
C21   C23   A    
C10   C12   A    
C63   O23   D    
C36   C44   S    
C50   C52   S    
C9    H5    S    
C36   H12   S    
C58   O17   A    
C15   C19   A    
C61   H23   S    
C12   C66   S    
C41   C43   S    
O22   C62   S    
C44   C50   S    
H1    C23   S    
O13   V3    S    
C7    C29   A    
C45   H19   S    
C61   H24   S    
C14   C16   A    
C20   C28   A    
C42   C46   S    
O21   C61   S    
C41   C45   S    
C36   C52   S    
C62   H28   S    
C33   C47   S    
C50   H18   S    
O5    V1    S    
C49   H17   S    
O13   C57   A    
C15   C17   A    
C45   C47   S    
C38   C59   S    
C42   H22   S    
C37   C60   S    
O11   C59   A    
C1    C40   S    
C41   H21   S    
O20   V3    S    
C13   H7    S    
C49   C51   S    
C10   H6    S    
O17   V3    S    
C8    C30   A    
C16   C20   A    
C40   C56   T    
O4    C2    A    
C57   O18   A    
C29   O21   S    
O16   C60   A    
O4    V2    S    
C5    C29   A    
C6    C30   A    
C38   C54   T    
H2    C24   S    
C37   C53   T    
O6    C4    A    
C27   H3    S    
O1    V2    S    
C28   H4    S    
C35   C43   S    
O14   C58   A    
O2    V1    S    
C11   C65   S    
C43   C53   S    
C33   C41   S    
C7    C27   A    
C30   O22   S    
C2    C39   S    
C34   C42   S    
C33   C35   S    
C46   C50   S    
C34   H14   S    
C35   H11   S    
C6    C64   S    
C43   C49   S    
O3    V1    S    
C64   H30   S    
C64   O24   D    
C62   H26   S    
O14   V4    S    
C66   O26   D    
C18   C32   A    
C48   C52   S    
C4    C31   S    
O3    C1    A    
C7    C58   S    
O12   C60   A    
O18   V4    S    
C11   C13   A    
C26   H10   S    
O16   V4    S    
C61   H25   S    
C19   C27   A    
O11   V4    S    
O7    V1    S    
O15   V3    S    
C1    O8    A    
C23   C25   A    
O8    V2    S    
C63   H29   S    
C24   C26   A    
C14   H8    S    
C47   C55   S    
C25   H9    S    
C47   C51   S    
C33   H13   S    
C22   C24   A    
C19   C21   A    
C34   C36   S    
O19   V4    S    
C20   C22   A    
C18   C26   A    
C44   C54   S    
C65   O25   D    
O12   V3    S    
C9    C11   A    
O6    V2    S    
C17   C31   A    
O9    V2    S    
C8    C28   A    
C17   C25   A    
C45   C49   S    
O10   V1    S    
C3    C32   S    
C42   C44   S    
C5    C21   A    
C46   H20   S    
C6    C22   A    
O15   C59   A    
C5    C63   S    
C10   C32   A    
C62   H27   S    
