data_mof_unit_29190.cif
_audit_creation_date              2012-12-11T14:30:10-0500
_audit_creation_method            fapswitch 2.2
_symmetry_space_group_name_H-M    P1
_symmetry_Int_Tables_number       1
_space_group_crystal_system       monoclinic
_cell_length_a                    12.65332
_cell_length_b                    12.653321
_cell_length_c                    27.062965
_cell_angle_alpha                 90.0
_cell_angle_beta                  90.0
_cell_angle_gamma                 120.000209
_cell_volume                      3752.44305247

loop_
_atom_site_label
_atom_site_type_symbol
_atom_type_description
_atom_site_fract_x
_atom_site_fract_y
_atom_site_fract_z
_atom_type_partial_charge
C1    C     C_R   0.558635 0.455942 0.822408 0.546052
C2    C     C_R   0.455942 0.558634 0.177592 0.546052
C3    C     C_R   0.005119 0.311737 0.474419 -0.124244
C4    C     C_R   0.306634 0.994911 0.025585 -0.124245
C5    C     C_R   0.688262 0.693384 0.474419 -0.124244
C6    C     C_R   0.311722 0.005087 0.525585 -0.124245
C7    C     C_R   0.994885 0.306620 0.974418 -0.124244
C8    C     C_R   0.693365 0.688279 0.525585 -0.124245
C9    C     C_R   0.311737 0.005117 0.974419 -0.124244
C10   C     C_R   0.994912 0.306634 0.525585 -0.124245
C11   C     C_R   0.693381 0.688264 0.974418 -0.124244
C12   C     C_R   0.441365 0.897307 0.322408 0.546051
C13   C     C_R   0.102692 0.544058 0.177592 0.546052
C14   C     C_R   0.992958 0.498405 0.974219 0.063161
C15   C     C_R   0.505444 0.007035 0.525782 0.063161
C16   C     C_R   0.501595 0.494552 0.974219 0.063161
C17   C     C_R   0.992965 0.498410 0.525782 0.063161
C18   C     C_R   0.505448 0.007043 0.974219 0.063161
C19   C     C_R   0.501590 0.494556 0.525782 0.063161
C20   C     C_R   0.498405 0.992957 0.474219 0.063161
C21   C     C_R   0.897307 0.441366 0.677592 0.546052
C22   C     C_R   0.007036 0.505445 0.025782 0.063161
C23   C     C_R   0.494552 0.501596 0.474219 0.063161
C24   C     C_R   0.498410 0.992965 0.025782 0.063161
C25   C     C_R   0.007043 0.505448 0.474219 0.063161
C26   C     C_R   0.494555 0.501591 0.025782 0.063161
C27   C     C_R   0.990685 0.689506 0.974394 -0.124367
C28   C     C_R   0.698829 0.009331 0.525605 -0.124367
C29   C     C_R   0.310493 0.301179 0.974394 -0.124368
C30   C     C_R   0.990670 0.689498 0.525605 -0.124367
C31   C     C_R   0.698821 0.009316 0.974394 -0.124368
C32   C     C_R   0.544058 0.102693 0.822408 0.546051
C33   C     C_R   0.310501 0.301171 0.525605 -0.124367
C34   C     C_R   0.689507 0.990687 0.474394 -0.124368
C35   C     C_R   0.009329 0.698828 0.025605 -0.124367
C36   C     C_R   0.301179 0.310493 0.474394 -0.124368
C37   C     C_R   0.689499 0.990671 0.025605 -0.124367
C38   C     C_R   0.009314 0.698820 0.474394 -0.124368
C39   C     C_R   0.301171 0.310500 0.025605 -0.124368
C40   C     C_R   0.959755 0.576621 0.897297 -0.135256
C41   C     C_R   0.616869 0.040250 0.602703 -0.135255
C42   C     C_R   0.423379 0.383134 0.897297 -0.135256
C43   C     C_R   0.558634 0.455942 0.677592 0.546052
C44   C     C_R   0.959751 0.576620 0.602703 -0.135255
C45   C     C_R   0.616865 0.040245 0.897297 -0.135255
C46   C     C_R   0.423380 0.383130 0.602703 -0.135255
C47   C     C_R   0.576621 0.959756 0.397297 -0.135256
C48   C     C_R   0.040249 0.616869 0.102703 -0.135255
C49   C     C_R   0.383134 0.423379 0.397297 -0.135256
C50   C     C_R   0.576620 0.959751 0.102703 -0.135255
C51   C     C_R   0.040244 0.616865 0.397297 -0.135256
C52   C     C_R   0.383131 0.423380 0.102703 -0.135255
C53   C     C_R   0.049474 0.524378 0.127804 -0.004983
C54   C     C_R   0.897307 0.441365 0.822408 0.546051
C55   C     C_R   0.474901 0.950522 0.372197 -0.004982
C56   C     C_R   0.475621 0.525096 0.127804 -0.004983
C57   C     C_R   0.049478 0.524379 0.372197 -0.004982
C58   C     C_R   0.474904 0.950526 0.127804 -0.004983
C59   C     C_R   0.475621 0.525100 0.372197 -0.004982
C60   C     C_R   0.524378 0.049474 0.627804 -0.004983
C61   C     C_R   0.950522 0.474901 0.872197 -0.004982
C62   C     C_R   0.525095 0.475622 0.627804 -0.004983
C63   C     C_R   0.524379 0.049478 0.872197 -0.004982
C64   C     C_R   0.950526 0.474905 0.627804 -0.004983
C65   C     C_R   0.544058 0.102692 0.677592 0.546052
C66   C     C_R   0.525099 0.475621 0.872197 -0.004982
C67   C     C_R   0.982541 0.589678 0.948351 0.016773
C68   C     C_R   0.607139 0.017463 0.551649 0.016772
C69   C     C_R   0.410322 0.392863 0.948351 0.016773
C70   C     C_R   0.982537 0.589676 0.551649 0.016772
C71   C     C_R   0.607137 0.017460 0.948351 0.016773
C72   C     C_R   0.410323 0.392861 0.551649 0.016772
C73   C     C_R   0.589678 0.982542 0.448351 0.016773
C74   C     C_R   0.017463 0.607139 0.051649 0.016772
C75   C     C_R   0.392863 0.410322 0.448351 0.016773
C76   C     C_R   0.455942 0.558635 0.322408 0.546051
C77   C     C_R   0.589677 0.982538 0.051649 0.016772
C78   C     C_R   0.017459 0.607136 0.448351 0.016773
C79   C     C_R   0.392860 0.410323 0.051649 0.016772
C80   C     C_R   0.971204 0.390406 0.897871 -0.128094
C81   C     C_R   0.419197 0.028781 0.602131 -0.128096
C82   C     C_R   0.609595 0.580797 0.897871 -0.128094
C83   C     C_R   0.971219 0.390416 0.602131 -0.128096
C84   C     C_R   0.419203 0.028798 0.897872 -0.128094
C85   C     C_R   0.609584 0.580804 0.602131 -0.128096
C86   C     C_R   0.390405 0.971201 0.397871 -0.128094
C87   C     C_R   0.441366 0.897307 0.177592 0.546052
C88   C     C_R   0.028783 0.419197 0.102130 -0.128096
C89   C     C_R   0.580796 0.609596 0.397872 -0.128094
C90   C     C_R   0.390416 0.971218 0.102131 -0.128096
C91   C     C_R   0.028799 0.419203 0.397871 -0.128094
C92   C     C_R   0.580803 0.609585 0.102131 -0.128096
C93   C     C_R   0.988074 0.399019 0.948653 0.013965
C94   C     C_R   0.410938 0.011909 0.551349 0.013966
C95   C     C_R   0.600982 0.589054 0.948653 0.013965
C96   C     C_R   0.988091 0.399029 0.551349 0.013966
C97   C     C_R   0.410946 0.011928 0.948653 0.013965
C98   C     C_R   0.102693 0.544058 0.322408 0.546051
C99   C     C_R   0.600970 0.589063 0.551349 0.013966
C100  C     C_R   0.399018 0.988071 0.448653 0.013965
C101  C     C_R   0.011911 0.410939 0.051349 0.013966
C102  C     C_R   0.589053 0.600983 0.448653 0.013965
C103  C     C_R   0.399029 0.988090 0.051349 0.013966
C104  C     C_R   0.011929 0.410946 0.448653 0.013965
C105  C     C_R   0.589062 0.600972 0.051349 0.013966
C106  C     C_R   0.005091 0.311724 0.025584 -0.124245
C107  C     C_R   0.306618 0.994880 0.474419 -0.124244
C108  C     C_R   0.688277 0.693367 0.025584 -0.124245
Cr1   Cr    Cr6+3 0.487630 0.241180 0.750000 1.008713
Cr2   Cr    Cr6+3 0.753550 0.512370 0.750000 1.008713
Cr3   Cr    Cr6+3 0.758820 0.246450 0.750000 1.008712
Cr4   Cr    Cr6+3 0.241180 0.487630 0.250000 1.008713
Cr5   Cr    Cr6+3 0.512370 0.753550 0.250000 1.008713
Cr6   Cr    Cr6+3 0.246450 0.758820 0.250000 1.008712
H1    H     H_    0.056117 0.698270 0.122282 0.118456
H2    H     H_    0.698263 0.056105 0.877717 0.118453
H3    H     H_    0.943882 0.642152 0.622282 0.118456
H4    H     H_    0.357841 0.301737 0.877717 0.118452
H5    H     H_    0.016944 0.777433 0.044844 0.093829
H6    H     H_    0.760501 0.983081 0.455155 0.093827
H7    H     H_    0.222565 0.239510 0.044843 0.093829
H8    H     H_    0.016920 0.777420 0.455155 0.093828
H9    H     H_    0.760489 0.983056 0.044843 0.093829
H10   H     H_    0.222578 0.239498 0.455155 0.093828
H11   H     H_    0.777435 0.016948 0.544843 0.093829
H12   H     H_    0.642159 0.943897 0.377717 0.118452
H13   H     H_    0.983078 0.760500 0.955155 0.093828
H14   H     H_    0.239511 0.222564 0.544843 0.093829
H15   H     H_    0.777422 0.016923 0.955155 0.093828
H16   H     H_    0.983053 0.760488 0.544843 0.093829
H17   H     H_    0.239499 0.222577 0.955155 0.093827
H18   H     H_    0.035022 0.346853 0.120958 0.128967
H19   H     H_    0.311817 0.964954 0.379045 0.128969
H20   H     H_    0.653147 0.688168 0.120958 0.128967
H21   H     H_    0.035045 0.346862 0.379045 0.128968
H22   H     H_    0.311833 0.964979 0.120958 0.128967
H23   H     H_    0.301729 0.357847 0.122282 0.118456
H24   H     H_    0.653137 0.688184 0.379045 0.128968
H25   H     H_    0.346852 0.035019 0.620958 0.128966
H26   H     H_    0.964958 0.311819 0.879045 0.128968
H27   H     H_    0.688167 0.653148 0.620958 0.128967
H28   H     H_    0.346862 0.035044 0.879045 0.128968
H29   H     H_    0.964980 0.311833 0.620958 0.128967
H30   H     H_    0.688182 0.653138 0.879045 0.128968
H31   H     H_    0.009495 0.239029 0.044935 0.092905
H32   H     H_    0.229514 0.990468 0.455069 0.092905
H33   H     H_    0.760973 0.770466 0.044935 0.092905
H34   H     H_    0.056103 0.698262 0.377717 0.118452
H35   H     H_    0.009531 0.239045 0.455069 0.092905
H36   H     H_    0.229535 0.990507 0.044935 0.092906
H37   H     H_    0.760954 0.770488 0.455069 0.092905
H38   H     H_    0.239026 0.009490 0.544935 0.092905
H39   H     H_    0.990473 0.229517 0.955068 0.092905
H40   H     H_    0.770464 0.760975 0.544936 0.092905
H41   H     H_    0.239044 0.009529 0.955069 0.092905
H42   H     H_    0.990509 0.229536 0.544935 0.092905
H43   H     H_    0.770485 0.760956 0.955068 0.092905
H44   H     H_    0.642153 0.943882 0.122282 0.118456
H45   H     H_    0.301738 0.357841 0.377717 0.118452
H46   H     H_    0.698271 0.056119 0.622282 0.118456
H47   H     H_    0.943895 0.642158 0.877717 0.118453
H48   H     H_    0.357847 0.301729 0.622282 0.118456
O1    O     O_R   0.460870 0.120930 0.805240 -0.522762
O2    O     O_R   0.120930 0.460870 0.194760 -0.522761
O3    O     O_R   0.539130 0.660060 0.305240 -0.522762
O4    O     O_R   0.339940 0.879070 0.194760 -0.522761
O5    O     O_R   0.498910 0.350470 0.801870 -0.500413
O6    O     O_R   0.851560 0.501090 0.698130 -0.500413
O7    O     O_R   0.649530 0.148440 0.801870 -0.500413
O8    O     O_R   0.498910 0.350470 0.698130 -0.500413
O9    O     O_R   0.851560 0.501090 0.801870 -0.500413
O10   O     O_R   0.649530 0.148440 0.698130 -0.500413
O11   O     O_R   0.350470 0.498910 0.301870 -0.500412
O12   O     O_R   0.660060 0.539130 0.694760 -0.522761
O13   O     O_R   0.501090 0.851560 0.198130 -0.500413
O14   O     O_R   0.148440 0.649530 0.301870 -0.500413
O15   O     O_R   0.350470 0.498910 0.198130 -0.500413
O16   O     O_R   0.501090 0.851560 0.301870 -0.500413
O17   O     O_R   0.148440 0.649530 0.198130 -0.500413
O18   O     O_3   0.666667 0.333333 0.750000 -0.230057
O19   O     O_3   0.333333 0.666667 0.250000 -0.230057
O20   O     O_R   0.879070 0.339940 0.805240 -0.522762
O21   O     O_R   0.460870 0.120930 0.694760 -0.522761
O22   O     O_R   0.660060 0.539130 0.805240 -0.522762
O23   O     O_R   0.879070 0.339940 0.694760 -0.522761
O24   O     O_R   0.120930 0.460870 0.305240 -0.522762
O25   O     O_R   0.539130 0.660060 0.194760 -0.522761
O26   O     O_R   0.339940 0.879070 0.305240 -0.522762

loop_
_geom_bond_atom_site_label_1
_geom_bond_atom_site_label_2
_ccdc_geom_bond_type
C3    C104  A    
C12   O16   A    
C32   O7    A    
C4    C103  A    
C35   C74   A    
C89   C102  A    
C45   C71   A    
C35   H5    S    
C4    H36   S    
C45   H2    S    
C91   C104  A    
C58   C87   S    
C15   C94   A    
C88   C101  A    
Cr3   O20   S    
C64   C83   A    
Cr1   O8    S    
C44   C64   A    
C106  H31   S    
C46   C62   A    
C18   C24   A    
C84   C97   A    
C44   H3    S    
C76   O11   A    
C28   C68   A    
C8    C99   A    
Cr4   O24   S    
C43   O12   A    
C87   O4    A    
C1    O5    A    
C61   C80   A    
Cr5   O25   S    
C32   O1    A    
C101  C106  A    
C33   C36   A    
Cr6   O26   S    
C30   C38   A    
Cr3   O10   S    
C59   C89   A    
C2    O25   A    
C21   C64   S    
Cr1   O5    S    
C33   C72   A    
C30   C70   A    
C37   H9    S    
C27   H13   S    
C1    O22   A    
Cr5   O19   S    
C6    C94   A    
C40   C67   A    
C7    H39   S    
C6    C107  A    
C49   C75   A    
C44   C70   A    
C51   C57   A    
C18   C97   A    
C10   C96   A    
C52   C79   A    
C8    H40   S    
C14   C93   A    
C46   C72   A    
Cr5   O13   S    
C108  H33   S    
C6    H38   S    
Cr2   O9    S    
Cr1   O21   S    
C31   C71   A    
Cr4   O11   S    
Cr2   O22   S    
C17   C70   A    
C34   H6    S    
C19   C72   A    
C15   C20   A    
Cr2   O6    S    
C7    C93   A    
C26   C105  A    
C62   C85   A    
C43   O8    A    
Cr6   O4    S    
C41   C68   A    
C29   C69   A    
Cr2   O12   S    
C16   C26   A    
C48   C53   A    
Cr4   O2    S    
C105  C108  A    
Cr5   O3    S    
Cr3   O23   S    
C3    H35   S    
C65   O10   A    
C25   C78   A    
C50   C58   A    
C48   C74   A    
C42   C66   A    
C47   C73   A    
C82   H30   S    
Cr1   O1    S    
C10   H42   S    
C107  H32   S    
C19   C99   A    
C42   H4    S    
C38   C78   A    
C27   C35   A    
C30   H16   S    
C37   C77   A    
C45   C63   A    
C33   H14   S    
C50   H44   S    
C40   C61   A    
C31   C37   A    
Cr3   O7    S    
C39   C79   A    
C52   H23   S    
C19   C23   A    
C13   C53   S    
C85   C99   A    
C36   C75   A    
C66   C82   A    
C41   H46   S    
C98   O14   A    
C60   C81   A    
C24   C77   A    
C86   H19   S    
C20   C100  A    
Cr2   O18   S    
C14   C67   A    
C29   C39   A    
C54   O20   A    
C1    C66   S    
C7    C106  A    
C76   O3    A    
C17   C96   A    
C58   C90   A    
C38   H8    S    
C90   H22   S    
C48   H1    S    
C2    O15   A    
C60   C65   S    
C89   H24   S    
C22   C101  A    
Cr3   O18   S    
C84   H28   S    
C22   C74   A    
C85   H27   S    
C47   H12   S    
C50   C77   A    
C86   C100  A    
C28   H11   S    
C11   H43   S    
C13   O2    A    
C47   C55   A    
C65   O21   A    
C11   C95   A    
C18   C71   A    
C81   H25   S    
C5    C102  A    
C5    H37   S    
C100  C107  A    
C9    C97   A    
C82   C95   A    
C57   C91   A    
C36   H10   S    
C21   O6    A    
C54   O9    A    
C92   H20   S    
C16   C69   A    
C41   C60   A    
C23   C75   A    
C39   H7    S    
C5    C8    A    
C25   C104  A    
C21   O23   A    
Cr4   O19   S    
C54   C61   S    
C32   C63   S    
Cr6   O19   S    
C87   O13   A    
C15   C68   A    
C26   C79   A    
C49   C59   A    
C63   C84   A    
C24   C103  A    
C17   C25   A    
C14   C22   A    
C55   C86   A    
C80   C93   A    
C51   C78   A    
C40   H47   S    
C31   H15   S    
C3    C10   A    
C80   H26   S    
C83   H29   S    
C81   C94   A    
C16   C95   A    
Cr1   O18   S    
C29   H17   S    
C51   H34   S    
C83   C96   A    
C13   O17   A    
C20   C73   A    
Cr5   O16   S    
C53   C88   A    
C42   C69   A    
C57   C98   S    
C90   C103  A    
C12   C55   S    
C27   C67   A    
C34   C73   A    
C28   C34   A    
C23   C102  A    
C92   C105  A    
C56   C92   A    
C91   H21   S    
C9    H41   S    
C98   O24   A    
Cr6   O17   S    
C46   H48   S    
C11   C108  A    
Cr6   O14   S    
C88   H18   S    
C49   H45   S    
C2    C56   S    
C4    C9    A    
C59   C76   S    
C52   C56   A    
C43   C62   S    
Cr4   O15   S    
C12   O26   A    
