data_mof_unit_59813.cif
_audit_creation_date              2012-12-10T20:51:41-0500
_audit_creation_method            fapswitch 2.2
_symmetry_space_group_name_H-M    P1
_symmetry_Int_Tables_number       1
_space_group_crystal_system       triclinic
_cell_length_a                    8.095362
_cell_length_b                    8.937021
_cell_length_c                    16.790444
_cell_angle_alpha                 89.538241
_cell_angle_beta                  95.298872
_cell_angle_gamma                 90.019314
_cell_volume                      1209.53144974

loop_
_atom_site_label
_atom_site_type_symbol
_atom_type_description
_atom_site_fract_x
_atom_site_fract_y
_atom_site_fract_z
_atom_type_partial_charge
C1    C     C_R   0.499962 0.217939 0.500026 0.936425
C2    C     C_R   0.500040 0.782061 0.499989 0.935266
C3    C     C_R   0.522787 0.501010 0.654152 0.904792
C4    C     C_R   0.477176 0.500176 0.345770 0.902545
C5    C     C_R   0.539016 0.523013 0.740460 -0.085603
C6    C     C_R   0.461078 0.489444 0.258716 -0.107865
C7    C     C_R   0.404674 0.586964 0.774744 -0.310287
C8    C     C_R   0.600066 0.442991 0.221575 -0.313358
C9    C     C_R   0.412743 0.612061 0.856507 0.079642
C10   C     C_R   0.593725 0.433562 0.138847 0.116905
C11   C     C_R   0.556439 0.569176 0.904662 0.287320
C12   C     C_R   0.446535 0.474809 0.092625 0.226207
C13   C     C_R   0.695647 0.513801 0.870946 0.019959
C14   C     C_R   0.303105 0.512061 0.129107 0.001268
C15   C     C_R   0.687480 0.489347 0.788076 0.024224
C16   C     C_R   0.310133 0.520920 0.212529 0.082592
C17   C     C_1   0.499964 0.065171 0.500019 -0.193506
C18   C     C_1   0.500039 0.934827 0.500008 -0.193035
H1    H     H_    0.714290 0.413624 0.257043 0.175374
H2    H     H_    0.292971 0.618045 0.737731 0.175626
N1    N     N_1   0.073640 0.500030 0.499990 -0.031792
N2    N     N_1   0.926360 0.499970 0.500010 -0.031894
N3    N     N_2   0.556625 0.565595 0.988096 -0.133760
N4    N     N_2   0.442926 0.484666 0.009086 -0.175111
O1    O     O_R   0.636850 0.285340 0.500000 -0.614904
O2    O     O_R   0.363150 0.714660 0.500000 -0.615861
O3    O     O_R   0.363100 0.285350 0.500000 -0.615455
O4    O     O_R   0.636900 0.714650 0.500000 -0.615729
O5    O     O_R   0.652140 0.498630 0.616140 -0.593049
O6    O     O_R   0.347860 0.501370 0.383860 -0.594855
O7    O     O_R   0.378390 0.498650 0.616130 -0.631319
O8    O     O_R   0.621610 0.501350 0.383870 -0.628378
Zn1   Zn    Zn3+2 0.682780 0.499990 0.500010 0.991895
Zn2   Zn    Zn3+2 0.317220 0.500010 0.499990 0.990343
N5    N     N_3   0.735945 0.384005 0.100850 -0.415622
H3    H     H_    0.704680 0.282482 0.072853 0.183894
H4    H     H_    0.835857 0.361793 0.143308 0.174728
N6    N     N_3   0.274859 0.677246 0.891878 -0.464777
H5    H     H_    0.313657 0.780928 0.915150 0.184479
H6    H     H_    0.176612 0.698718 0.848372 0.171245
N7    N     N_3   0.841246 0.476086 0.922438 -0.442074
H7    H     H_    0.865570 0.361971 0.917032 0.181580
H8    H     H_    0.941502 0.536857 0.904116 0.187431
N8    N     N_3   0.151069 0.546817 0.081876 -0.458907
H9    H     H_    0.171704 0.638617 0.045149 0.213710
H10   H     H_    0.118648 0.455156 0.045420 0.206925
N9    N     N_3   0.826214 0.426327 0.752675 -0.428470
H11   H     H_    0.928807 0.496423 0.764471 0.185167
H12   H     H_    0.853585 0.321604 0.778732 0.179810
N10   N     N_3   0.166074 0.566353 0.249946 -0.419392
H13   H     H_    0.070289 0.490796 0.234014 0.195133
H14   H     H_    0.129524 0.672086 0.227763 0.200516

loop_
_geom_bond_atom_site_label_1
_geom_bond_atom_site_label_2
_ccdc_geom_bond_type
C1    O1    A    
N3    N4    D    
C7    C9    A    
C10   N5    S    
C2    C18   S    
C11   C13   A    
N7    H7    S    
C12   N4    S    
C1    C17   S    
N5    H3    S    
C15   N9    S    
O8    Zn1   S    
O1    Zn1   S    
C13   N7    S    
C17   C18   T    
O7    Zn2   S    
C2    O2    A    
N1    N2    T    
C3    O7    A    
C9    C11   A    
C3    O5    A    
C4    O8    A    
C10   C12   A    
C14   N8    S    
C9    N6    S    
N6    H6    S    
C12   C14   A    
O4    Zn1   S    
N10   H13   S    
C5    C7    A    
C13   C15   A    
O3    Zn2   S    
N6    H5    S    
C14   C16   A    
C5    C15   A    
C4    C6    S    
C2    O4    A    
O6    Zn2   S    
C6    C16   A    
C8    H1    S    
O5    Zn1   S    
N8    H9    S    
N9    H12   S    
C7    H2    S    
C11   N3    S    
N10   H14   S    
C1    O3    A    
N2    Zn1   S    
C6    C8    A    
N1    Zn2   S    
N8    H10   S    
N5    H4    S    
O2    Zn2   S    
C8    C10   A    
C4    O6    A    
N7    H8    S    
N9    H11   S    
C16   N10   S    
C3    C5    S    
