data_mof_unit_10813.cif
_audit_creation_date              2012-12-10T17:49:31-0500
_audit_creation_method            fapswitch 2.2
_symmetry_space_group_name_H-M    P1
_symmetry_Int_Tables_number       1
_space_group_crystal_system       triclinic
_cell_length_a                    14.71051
_cell_length_b                    14.726326
_cell_length_c                    15.867402
_cell_angle_alpha                 76.7714
_cell_angle_beta                  102.983462
_cell_angle_gamma                 114.826872
_cell_volume                      3004.58361423

loop_
_atom_site_label
_atom_site_type_symbol
_atom_type_description
_atom_site_fract_x
_atom_site_fract_y
_atom_site_fract_z
_atom_type_partial_charge
C1    C     C_R   0.880333 0.312331 0.514929 0.794636
C2    C     C_3   0.078804 0.449276 0.078008 0.573894
C3    C     C_3   0.004044 0.498675 0.084121 0.264957
C4    C     C_3   0.041231 0.609085 0.034659 -0.413369
C5    C     C_3   0.037485 0.609025 0.936390 -0.389826
C6    C     C_1   0.001637 0.499643 0.175651 -0.017236
C7    C     C_1   0.002141 0.500000 0.825527 -0.034906
C8    C     C_1   0.000478 0.500215 0.749545 -0.179952
C9    C     C_R   0.812724 0.204862 0.526248 -0.050986
C10   C     C_R   0.187194 0.794935 0.483204 -0.051692
C11   C     C_R   0.784236 0.027235 0.557872 -0.200862
C12   C     C_R   0.999980 0.500046 0.659749 0.826515
C13   C     C_R   0.850630 0.128434 0.548467 -0.197822
C14   C     C_R   0.708240 0.179126 0.515096 -0.256905
C15   C     C_R   0.639833 0.077818 0.527107 0.088157
C16   C     C_R   0.679393 0.001405 0.546502 0.164437
C17   C     C_R   0.533394 0.050558 0.517977 0.064193
C18   C     C_R   0.467377 0.946838 0.519488 0.063752
C19   C     C_R   0.510162 0.872901 0.540019 -0.222324
C20   C     C_R   0.614110 0.899990 0.553978 -0.229479
C21   C     C_R   0.490937 0.123239 0.509119 -0.222826
C22   C     C_R   0.387020 0.096013 0.497043 -0.231220
C23   C     C_R   0.119641 0.687672 0.486006 0.793902
C24   C     C_R   0.321416 0.995876 0.492395 0.162744
C25   C     C_R   0.360734 0.920424 0.502461 0.089519
C26   C     C_R   0.216457 0.970229 0.478298 -0.201826
C27   C     C_R   0.149656 0.870107 0.474595 -0.198036
C28   C     C_R   0.291656 0.821040 0.494233 -0.249447
C29   C     C_R   0.715823 0.669398 0.356261 -0.323547
C30   C     C_R   0.797426 0.639784 0.379126 0.076553
C31   C     C_R   0.713932 0.507880 0.487001 0.007587
C32   C     C_R   0.627773 0.533821 0.466520 -0.023405
C33   C     C_R   0.631161 0.617275 0.400006 0.161764
C34   C     C_R   0.000177 0.500058 0.340339 0.825498
C35   C     C_R   0.539814 0.481424 0.509854 0.079034
C36   C     C_R   0.457951 0.515514 0.487015 0.076451
C37   C     C_R   0.466260 0.599912 0.420883 -0.235769
C38   C     C_R   0.550714 0.648945 0.378034 -0.205126
C39   C     C_R   0.530786 0.395999 0.574944 -0.242025
C40   C     C_R   0.446189 0.346684 0.617581 -0.206740
C41   C     C_R   0.366709 0.379684 0.596968 0.163003
C42   C     C_R   0.370516 0.463805 0.531092 -0.027859
C43   C     C_R   0.282646 0.328296 0.641518 -0.323626
C44   C     C_R   0.202146 0.359493 0.620273 0.081649
C45   C     C_3   0.077969 0.450816 0.977323 -0.068974
C46   C     C_R   0.285362 0.491185 0.512111 0.005913
C47   C     C_3   0.896808 0.436302 0.943292 -0.468365
C48   C     C_3   0.894868 0.442631 0.038652 -0.483614
C49   C     C_1   0.000649 0.499978 0.250880 -0.187931
C50   C     C_3   0.004465 0.499488 0.918462 0.267611
Cu1   Cu    Cu3+1 0.081750 0.475690 0.522550 0.938332
Cu2   Cu    Cu3+1 0.918250 0.524310 0.477450 0.934702
H1    H     H_    0.992646 0.647310 0.041489 0.162551
H2    H     H_    0.643551 0.840882 0.569738 0.148504
H3    H     H_    0.317149 0.762183 0.495224 0.146136
H4    H     H_    0.068984 0.851473 0.465890 0.153747
H5    H     H_    0.357839 0.154091 0.490891 0.151696
H6    H     H_    0.814828 0.969034 0.573630 0.132851
H7    H     H_    0.931270 0.146743 0.557559 0.152040
H8    H     H_    0.681791 0.239739 0.494608 0.151439
H9    H     H_    0.047875 0.371279 0.964475 0.109988
H10   H     H_    0.465655 0.792703 0.548489 0.147109
H11   H     H_    0.535904 0.201897 0.513918 0.142437
H12   H     H_    0.186085 0.027531 0.471212 0.134221
H13   H     H_    0.553376 0.713124 0.327412 0.142805
H14   H     H_    0.280361 0.552276 0.461620 0.120197
H15   H     H_    0.136692 0.319156 0.653900 0.123994
H16   H     H_    0.442881 0.281558 0.667266 0.142837
H17   H     H_    0.719223 0.733233 0.305105 0.136084
H18   H     H_    0.863170 0.680513 0.345911 0.124387
H19   H     H_    0.719162 0.447293 0.538005 0.122023
H20   H     H_    0.840997 0.464579 0.898656 0.190786
H21   H     H_    0.408415 0.630281 0.400259 0.131208
H22   H     H_    0.587909 0.364638 0.594492 0.128811
H23   H     H_    0.278878 0.263859 0.692084 0.135698
H24   H     H_    0.872989 0.355793 0.935864 0.168025
H25   H     H_    0.856462 0.366117 0.074740 0.174811
H26   H     H_    0.847369 0.485059 0.038150 0.192862
H27   H     H_    0.112587 0.658644 0.915857 0.175031
H28   H     H_    0.982669 0.641942 0.896945 0.171039
H29   H     H_    0.119605 0.654546 0.063058 0.203531
N1    N     N_R   0.795410 0.560790 0.443550 -0.176027
N2    N     N_R   0.204590 0.439170 0.556520 -0.175598
O1    O     O_R   0.977910 0.338120 0.529720 -0.590909
O2    O     O_R   0.839850 0.379180 0.491640 -0.590843
O3    O     O_R   0.069060 0.479460 0.639610 -0.569990
O4    O     O_R   0.931000 0.520530 0.601530 -0.580041
O5    O     O_R   0.160150 0.620820 0.508360 -0.589048
O6    O     O_R   0.022090 0.661880 0.470280 -0.590758
O7    O     O_R   0.069000 0.479470 0.398470 -0.578745
O8    O     O_R   0.930940 0.520540 0.360390 -0.577573
N3    N     N_3   0.044164 0.343675 0.124739 -0.624000
H30   H     H_    0.082780 0.304770 0.110688 0.182133
H31   H     H_    0.969255 0.302446 0.100528 0.182426
N4    N     N_3   0.179074 0.501485 0.950204 -0.586194
H32   H     H_    0.218090 0.571943 0.971332 0.255269
H33   H     H_    0.220858 0.456672 0.977387 0.207293
O9    O     O_3   0.176402 0.512021 0.118227 -0.628016
C51   C     C_3   0.245595 0.465155 0.157596 0.073715
H34   H     H_    0.322621 0.522844 0.148716 0.152217
H35   H     H_    0.237190 0.401919 0.125784 0.116987
C52   C     C_3   0.241886 0.433672 0.256283 -0.304674
H36   H     H_    0.259217 0.501400 0.286309 0.216479
H37   H     H_    0.165058 0.378546 0.268636 0.244021
C53   C     C_3   0.318138 0.385854 0.300451 -0.924321
H38   H     H_    0.302197 0.317843 0.271522 0.253100
H39   H     H_    0.312386 0.362361 0.371345 0.262196
H40   H     H_    0.396424 0.441078 0.292698 0.264948

loop_
_geom_bond_atom_site_label_1
_geom_bond_atom_site_label_2
_ccdc_geom_bond_type
C10   C27   A    
C4    H1    S    
C41   C42   A    
C36   C42   A    
N4    H32   S    
C9    C14   A    
C3    C6    S    
C22   H5    S    
C7    C8    T    
C31   C32   A    
C25   C28   A    
C53   H39   S    
C26   C27   A    
C29   C30   A    
C31   N1    A    
Cu2   O2    S    
C24   C26   A    
C47   H24   S    
C46   H14   S    
Cu1   O7    S    
C52   H37   S    
C19   H10   S    
C15   C16   A    
C29   C33   A    
C3    C48   S    
C52   C53   S    
C18   C19   A    
C42   C46   A    
C39   H22   S    
C48   H26   S    
C9    C13   A    
C34   O8    A    
C26   H12   S    
C4    H29   S    
C51   H34   S    
C23   O6    A    
C5    H27   S    
C11   H6    S    
C8    C12   S    
C44   N2    A    
C31   H19   S    
C21   C22   A    
C43   H23   S    
C41   C43   A    
Cu2   O6    S    
C18   C25   A    
Cu1   O3    S    
C30   H18   S    
C28   H3    S    
C47   C50   S    
C29   H17   S    
C2    C45   S    
C1    O2    A    
C2    N3    S    
C53   H40   S    
Cu1   Cu2   S    
C32   C35   A    
C1    C9    S    
C24   C25   A    
C20   H2    S    
C39   C40   A    
C27   H4    S    
C17   C21   A    
C1    O1    A    
C35   C36   A    
C48   H25   S    
C30   N1    A    
C35   C39   A    
C43   C44   A    
C34   O7    A    
C37   C38   A    
C11   C16   A    
C47   C48   S    
C38   H13   S    
C16   C20   A    
N3    H31   S    
C17   C18   A    
C5    H28   S    
Cu2   N1    S    
C40   C41   A    
C51   H35   S    
C23   O5    A    
C22   C24   A    
C5    C50   S    
C3    C4    S    
C45   N4    S    
Cu1   N2    S    
C10   C28   A    
C15   C17   A    
C37   H21   S    
C36   C37   A    
C34   C49   S    
C12   O4    A    
Cu2   O4    S    
C7    C50   S    
C4    C5    S    
C44   H15   S    
Cu1   O5    S    
N4    H33   S    
C13   H7    S    
C10   C23   S    
C14   H8    S    
C53   H38   S    
C33   C38   A    
C12   O3    A    
C32   C33   A    
C19   C20   A    
C2    C3    S    
C11   C13   A    
C45   C50   S    
C45   H9    S    
N3    H30   S    
C6    C49   T    
C52   H36   S    
C47   H20   S    
C21   H11   S    
C46   N2    A    
C51   C52   S    
C2    O9    S    
O9    C51   S    
C40   H16   S    
C14   C15   A    
Cu2   O8    S    
Cu1   O1    S    
