data_mof_unit_56595.cif
_audit_creation_date              2013-03-05T15:45:10-0500
_audit_creation_method            fapswitch 2.2
_symmetry_space_group_name_H-M    P1
_symmetry_Int_Tables_number       1
_space_group_crystal_system       triclinic
_cell_length_a                    10.737768
_cell_length_b                    10.776098
_cell_length_c                    9.921164
_cell_angle_alpha                 109.240958
_cell_angle_beta                  97.612732
_cell_angle_gamma                 93.202347
_cell_volume                      1068.21958908

loop_
_atom_site_label
_atom_site_type_symbol
_atom_site_description
_atom_site_fract_x
_atom_site_fract_y
_atom_site_fract_z
_atom_type_partial_charge
O1    O     O_R   0.511700 0.332330 0.577400 -0.587341
O2    O     O_R   0.474680 0.295500 0.332650 -0.559564
C1    C     C_R   0.497143 0.254037 0.443433 0.833784
O3    O     O_R   0.338160 0.518420 0.622400 -0.599427
O4    O     O_R   0.301140 0.481590 0.377650 -0.575528
C2    C     C_R   0.263414 0.503216 0.501917 0.759903
Cu1   Cu    Cu3+1 0.521920 0.521810 0.644910 0.999218
Cu2   Cu    Cu3+1 0.478080 0.478190 0.355090 0.977942
O5    O     O_R   0.525320 0.704500 0.667350 -0.538656
O6    O     O_R   0.488300 0.667670 0.422600 -0.546140
O7    O     O_R   0.698860 0.518410 0.622350 -0.576224
O8    O     O_R   0.661840 0.481580 0.377600 -0.571583
C3    C     C_R   0.514305 0.746903 0.556894 0.873682
C4    C     C_R   0.737150 0.504873 0.499971 0.801813
H1    H     H_    0.082160 0.325745 0.329164 0.151579
C5    C     C_R   0.167125 0.732385 0.696110 -0.210026
H2    H     H_    0.267964 0.737743 0.697799 0.165074
C6    C     C_R   0.120053 0.840937 0.787994 -0.130400
H3    H     H_    0.185387 0.924411 0.858192 0.146435
C7    C     C_R   0.990129 0.842552 0.787986 0.210824
C8    C     C_R   0.907584 0.734169 0.694939 -0.075407
H4    H     H_    0.807446 0.740261 0.694604 0.189353
C9    C     C_R   0.953548 0.622949 0.600629 0.060467
C10   C     C_R   0.085124 0.621799 0.602153 0.082983
C11   C     C_R   0.130311 0.511744 0.505440 -0.073069
C12   C     C_R   0.047140 0.408886 0.404717 -0.185629
H5    H     H_    0.855642 0.328000 0.325632 0.154356
C13   C     C_R   0.918669 0.410417 0.402176 -0.214124
C14   C     C_R   0.871672 0.514539 0.500780 -0.063305
C15   C     C_2   0.509433 0.114161 0.421431 -0.306547
C16   C     C_2   0.597500 0.077016 0.507402 0.126541
C17   C     C_2   0.531377 0.889887 0.581856 -0.110305
C18   C     C_2   0.595043 0.936887 0.495216 0.336574
H6    H     H_    0.442310 0.040172 0.338256 0.145393
N1    N     N_2   0.445130 0.445430 0.137370 -0.294002
C19   C     C_2   0.528623 0.479133 0.066625 0.253572
N2    N     N_2   0.554930 0.554500 0.862630 -0.068190
C20   C     C_2   0.492301 0.476418 0.915341 0.279464
H7    H     H_    0.351616 0.441779 0.094761 0.193314
C21   C     C_3   0.412703 0.349977 0.818920 -0.833322
H8    H     H_    0.350996 0.308020 0.877576 0.183030
H9    H     H_    0.346975 0.362731 0.731195 0.269644
H10   H     H_    0.475329 0.272803 0.777949 0.234295
C22   C     C_3   0.668881 0.493167 0.117017 -0.632452
H11   H     H_    0.724130 0.500051 0.032287 0.182766
H12   H     H_    0.697657 0.585475 0.209834 0.298637
H13   H     H_    0.696155 0.402873 0.138501 0.210110
N3    N     N_R   0.597799 0.682347 0.955681 0.242801
O9    O     O_R   0.693877 0.745667 0.931051 -0.340650
O10   O     O_R   0.528734 0.747610 0.047975 -0.339960
C23   C     C_3   0.938290 0.960154 0.884616 -0.815089
H14   H     H_    0.014514 0.040038 0.947913 0.215732
H15   H     H_    0.871097 0.000007 0.818324 0.230115
H16   H     H_    0.887910 0.930281 0.961554 0.280476
N4    N     N_R   0.674119 0.857823 0.401676 0.125929
O11   O     O_R   0.740723 0.776492 0.443910 -0.439211
O12   O     O_R   0.705056 0.892067 0.295443 -0.294119
C24   C     C_3   0.707494 0.170606 0.607099 -0.760098
H17   H     H_    0.676000 0.239750 0.703415 0.230525
H18   H     H_    0.779411 0.115010 0.646416 0.219910
H19   H     H_    0.753941 0.227076 0.548467 0.227138
C25   C     C_3   0.471784 0.981383 0.700999 -0.901037
H20   H     H_    0.424916 0.926740 0.760932 0.253677
H21   H     H_    0.545578 0.055891 0.779509 0.256719
H22   H     H_    0.399393 0.031976 0.654481 0.237630

loop_
_geom_bond_atom_site_label_1
_geom_bond_atom_site_label_2
_geom_bond_distance
_ccdc_geom_bond_type
C18   N4    1.441035 S    
O4    Cu2   1.943258 S    
N1    H7    1.029896 S    
N4    O11   1.299177 A    
C16   C18   1.473065 S    
C21   H8    1.106435 S    
C25   H20   1.109281 S    
C1    C15   1.466311 S    
C3    C17   1.474427 S    
C12   C13   1.377505 A    
N1    C19   1.314021 D    
C22   H13   1.109032 S    
Cu2   O8    1.953058 S    
C9    C10   1.411698 A    
C23   H16   1.109425 S    
C17   C18   1.366264 D    
C21   H10   1.105055 S    
C24   H19   1.110700 S    
N3    O10   1.302603 A    
O2    C1    1.315790 A    
Cu1   N2    2.048700 S    
C17   C25   1.510488 S    
Cu1   Cu2   2.726913 S    
C5    C10   1.413328 A    
N4    O12   1.301058 A    
C8    H4    1.080539 S    
C7    C8    1.399584 A    
N2    N3    1.393009 S    
C20   C21   1.515374 S    
N2    C20   1.324265 D    
O3    Cu1   1.953058 S    
O4    C2    1.300723 A    
C9    C14   1.418024 A    
C16   C24   1.513399 S    
C19   C20   1.490098 S    
C13   C14   1.393275 A    
C22   H12   1.104294 S    
Cu1   O7    1.943258 S    
C7    C23   1.501469 S    
C6    C7    1.396157 A    
C8    C9    1.415929 A    
C15   C16   1.354830 D    
O7    C4    1.298728 A    
C24   H17   1.107770 S    
C19   C22   1.505406 S    
O3    C2    1.304558 A    
C15   H6    1.086610 S    
C4    C14   1.441175 S    
C24   H18   1.110553 S    
C23   H14   1.110899 S    
C2    C11   1.441591 S    
C10   C11   1.414295 A    
Cu2   O6    1.919363 S    
C6    H3    1.083281 S    
H5    C13   1.084274 S    
Cu1   O5    1.904617 S    
O5    C3    1.313543 A    
C21   H9    1.096091 S    
N3    O9    1.299104 A    
H1    C12   1.084286 S    
C25   H21   1.110155 S    
C25   H22   1.110219 S    
C23   H15   1.110231 S    
C11   C12   1.395581 A    
O1    Cu1   1.919363 S    
Cu2   N1    2.048545 S    
C5    C6    1.392899 A    
O2    Cu2   1.904617 S    
C22   H11   1.110136 S    
O8    C4    1.306610 A    
C5    H2    1.078710 S    
O1    C1    1.301508 A    
O6    C3    1.306592 A    
