data_mof_unit_39650.cif
_audit_creation_date              2012-12-10T18:35:42-0500
_audit_creation_method            fapswitch 2.2
_symmetry_space_group_name_H-M    P1
_symmetry_Int_Tables_number       1
_space_group_crystal_system       triclinic
_cell_length_a                    13.49561
_cell_length_b                    13.884907
_cell_length_c                    15.116596
_cell_angle_alpha                 89.309359
_cell_angle_beta                  90.630449
_cell_angle_gamma                 72.492945
_cell_volume                      2700.90604202

loop_
_atom_site_label
_atom_site_type_symbol
_atom_type_description
_atom_site_fract_x
_atom_site_fract_y
_atom_site_fract_z
_atom_type_partial_charge
C1    C     C_R   0.496291 0.500853 0.669977 0.884165
C2    C     C_R   0.973254 0.464100 0.508979 0.006804
C3    C     C_R   0.869458 0.487237 0.476465 -0.018549
C4    C     C_R   0.026060 0.537477 0.497633 -0.080518
C5    C     C_R   0.969160 0.639187 0.479494 -0.071640
C6    C     C_R   0.867994 0.660548 0.445988 -0.199581
C7    C     C_R   0.824596 0.582378 0.433505 0.250498
C8    C     C_R   0.134187 0.510094 0.489112 0.462092
C9    C     C_R   0.127273 0.686520 0.495597 -0.315816
C10   C     C_R   0.814338 0.415641 0.490318 -0.081515
C11   C     C_R   0.533947 0.416136 0.907554 0.391397
C12   C     C_R   0.699806 0.446534 0.493621 0.833015
C13   C     C_R   0.534245 0.415250 0.815586 -0.327269
C14   C     C_R   0.487903 0.503323 0.766334 -0.249771
C15   C     C_R   0.433469 0.592791 0.809517 0.317872
C16   C     C_R   0.422847 0.590958 0.901736 0.366033
C17   C     C_R   0.478142 0.504527 0.951287 -0.161006
C18   C     C_R   0.511134 0.581847 0.093053 0.482247
C19   C     C_R   0.513648 0.581296 0.185311 -0.227266
C20   C     C_R   0.490899 0.503845 0.233322 -0.087709
C21   C     C_R   0.459835 0.429657 0.188600 -0.236725
C22   C     C_R   0.452776 0.432175 0.096902 -0.173062
C23   C     C_R   0.497567 0.501156 0.329862 0.851266
C24   C     C_R   0.479424 0.507162 0.048448 0.062593
C25   C     C_R   0.415305 0.917982 0.463155 0.221455
C26   C     C_R   0.422757 0.814742 0.455903 0.373186
C27   C     C_R   0.576890 0.768015 0.543188 0.033638
C28   C     C_R   0.579322 0.868777 0.541901 -0.373559
C29   C     C_R   0.498154 0.946001 0.501271 0.061172
C30   C     C_R   0.532519 0.096016 0.573736 -0.432104
C31   C     C_R   0.538927 0.195798 0.571385 0.661941
C32   C     C_R   0.470427 0.219042 0.425572 -0.102210
C33   C     C_R   0.476593 0.115889 0.421448 0.383092
C34   C     C_R   0.299872 0.553746 0.498343 0.869577
C35   C     C_R   0.500896 0.054155 0.498848 0.021836
C36   C     C_R   0.018981 0.714813 0.484262 0.454803
C37   C     C_R   0.185771 0.584278 0.495157 -0.224685
C38   C     C_R   0.868674 0.317492 0.519073 -0.269233
C39   C     C_R   0.969372 0.295554 0.551926 -0.183974
C40   C     C_R   0.018914 0.370062 0.553875 0.348799
Cu1   Cu    Cu3+1 0.500000 0.403570 0.500010 1.009745
Cu2   Cu    Cu3+1 0.500000 0.596430 0.499990 1.007515
H1    H     H_    0.165691 0.744540 0.498467 0.220135
H2    H     H_    0.573439 0.345938 0.782839 0.237124
H3    H     H_    0.535134 0.640651 0.218925 0.212055
H4    H     H_    0.439697 0.370350 0.224452 0.157972
H5    H     H_    0.427033 0.375119 0.063580 0.187510
H6    H     H_    0.638417 0.710802 0.577216 0.144036
H7    H     H_    0.828149 0.734836 0.418708 0.209550
H8    H     H_    0.644419 0.886130 0.573032 0.158430
H9    H     H_    0.555229 0.050683 0.633568 0.169210
H10   H     H_    0.444939 0.266175 0.367355 0.156406
H11   H     H_    0.829952 0.260181 0.525208 0.175638
H12   H     H_    0.005443 0.222650 0.583260 0.182580
N1    N     N_R   0.500000 0.741310 0.499980 -0.201273
N2    N     N_R   0.500060 0.258650 0.499980 -0.219646
O1    O     O_R   0.499990 0.418570 0.628550 -0.522617
O2    O     O_R   0.499990 0.581440 0.628540 -0.577159
O3    O     O_R   0.650980 0.378820 0.499990 -0.584871
O4    O     O_R   0.650980 0.541690 0.499970 -0.568908
O5    O     O_R   0.500010 0.418560 0.371460 -0.622291
O6    O     O_R   0.500010 0.581430 0.371450 -0.521413
O7    O     O_R   0.349020 0.458310 0.500030 -0.526475
O8    O     O_R   0.349020 0.621180 0.500010 -0.559595
O9    O     O_3   0.379797 0.678031 0.760918 -0.560920
C41   C     C_3   0.433520 0.750827 0.767118 0.107320
H13   H     H_    0.513608 0.720964 0.740876 0.128433
H14   H     H_    0.438476 0.774652 0.836633 0.186254
C42   C     C_3   0.375333 0.843785 0.712543 -0.728252
H15   H     H_    0.297550 0.879168 0.741022 0.247245
H16   H     H_    0.419645 0.899467 0.712548 0.200772
H17   H     H_    0.365206 0.822267 0.643349 0.255232
O10   O     O_3   0.360662 0.675290 0.943494 -0.534626
C43   C     C_3   0.260024 0.665506 0.951037 0.084644
H18   H     H_    0.261647 0.595729 0.989042 0.133544
H19   H     H_    0.224450 0.663863 0.884417 0.163298
C44   C     C_3   0.192075 0.755776 0.000238 -0.729179
H20   H     H_    0.187651 0.826720 0.963450 0.250173
H21   H     H_    0.112472 0.749160 0.006564 0.191518
H22   H     H_    0.225150 0.758650 0.067429 0.266893
O11   O     O_3   0.534218 0.658803 0.047003 -0.545576
C45   C     C_3   0.642634 0.632215 0.035700 0.045533
H23   H     H_    0.670663 0.561971 0.996685 0.114573
H24   H     H_    0.684414 0.621598 0.100793 0.171757
C46   C     C_3   0.668295 0.716639 0.984919 -0.758408
H25   H     H_    0.642064 0.788020 0.022313 0.255351
H26   H     H_    0.753522 0.696731 0.975463 0.197780
H27   H     H_    0.628823 0.727947 0.919044 0.228977
Br1   Br    Br    0.285394 0.018511 0.431978 -0.439281
Br2   Br    Br    0.328879 0.780832 0.373946 -0.452300
O12   O     O_3   0.586655 0.229346 0.640838 -0.554620
C47   C     C_3   0.693344 0.173379 0.643788 0.036147
H28   H     H_    0.727832 0.167224 0.576710 0.132602
H29   H     H_    0.704292 0.096158 0.671309 0.140627
C48   C     C_3   0.752881 0.225120 0.703198 -0.806619
H30   H     H_    0.837667 0.187695 0.697202 0.206922
H31   H     H_    0.735486 0.305935 0.683607 0.249919
H32   H     H_    0.731510 0.219045 0.773259 0.241498
O13   O     O_3   0.456112 0.077495 0.341783 -0.552743
C49   C     C_3   0.551307 0.031702 0.299892 0.041561
H33   H     H_    0.605853 0.974036 0.343716 0.151537
H34   H     H_    0.588678 0.089865 0.279837 0.135815
C50   C     C_3   0.530714 0.978613 0.217412 -0.678474
H35   H     H_    0.477823 0.033992 0.171251 0.246924
H36   H     H_    0.604995 0.942538 0.183544 0.191709
H37   H     H_    0.494346 0.919415 0.235886 0.271167
O14   O     O_3   0.963294 0.815186 0.469915 -0.566701
C51   C     C_3   0.954207 0.865967 0.551138 0.091924
H38   H     H_    0.031743 0.865629 0.577394 0.155562
H39   H     H_    0.915038 0.830786 0.601090 0.127766
C52   C     C_3   0.889093 0.975298 0.536920 -0.805413
H40   H     H_    0.809036 0.979065 0.515283 0.229651
H41   H     H_    0.885509 0.016467 0.599837 0.188737
H42   H     H_    0.924662 0.012064 0.485824 0.272345
O15   O     O_3   0.187010 0.412672 0.463872 -0.524814
C53   C     C_3   0.183247 0.406805 0.370525 0.026637
H43   H     H_    0.250397 0.426556 0.342074 0.146381
H44   H     H_    0.110151 0.457622 0.339933 0.136037
C54   C     C_3   0.190158 0.299345 0.345296 -0.656201
H45   H     H_    0.192853 0.292267 0.272214 0.193440
H46   H     H_    0.121165 0.279955 0.369909 0.255895
H47   H     H_    0.261184 0.245567 0.374806 0.284813
Br3   Br    Br    0.135311 0.344572 0.635368 -0.471359
Br4   Br    Br    0.725722 0.602463 0.337331 -0.577821
O16   O     O_3   0.583635 0.328180 0.954018 -0.564387
C55   C     C_3   0.687872 0.324775 0.969850 0.065182
H48   H     H_    0.691883 0.385507 0.015808 0.134667
H49   H     H_    0.727754 0.332483 0.907140 0.134343
C56   C     C_3   0.745718 0.223721 0.012986 -0.754831
H50   H     H_    0.744213 0.161238 0.968299 0.245004
H51   H     H_    0.827781 0.220300 0.026407 0.202551
H52   H     H_    0.708673 0.214320 0.076452 0.250918

loop_
_geom_bond_atom_site_label_1
_geom_bond_atom_site_label_2
_ccdc_geom_bond_type
C27   H6    S    
C41   H14   S    
C30   H9    S    
C55   H48   S    
C34   C37   S    
Cu1   Cu2   S    
C19   C20   A    
Cu1   O5    S    
C7    Br4   S    
C4    C8    A    
C26   N1    A    
Cu2   O2    S    
O11   C45   S    
C48   H32   S    
C44   H20   S    
C51   H38   S    
C43   H19   S    
C30   C35   A    
C18   C24   A    
C28   C29   A    
C11   O16   S    
C56   H50   S    
C3    C7    A    
C30   C31   A    
C27   N1    A    
C54   H47   S    
C41   C42   S    
O15   C53   S    
C15   O9    S    
C5    C36   A    
C18   O11   S    
C53   H43   S    
C18   C19   A    
O10   C43   S    
C42   H16   S    
C47   H28   S    
C50   H35   S    
C8    O15   S    
C12   O3    A    
C28   H8    S    
C23   O6    A    
C32   H10   S    
C48   H30   S    
C53   H44   S    
C16   C17   A    
C43   C44   S    
C9    C36   A    
O14   C51   S    
C31   N2    A    
C52   H42   S    
Cu2   O6    S    
C56   H52   S    
C44   H21   S    
C22   H5    S    
C21   C22   A    
C36   O14   S    
C47   H29   S    
C54   H46   S    
C25   C29   A    
C38   C39   A    
C9    H1    S    
C17   C24   S    
C43   H18   S    
C46   H26   S    
C16   O10   S    
Cu1   O3    S    
C52   H41   S    
Cu2   O4    S    
O12   C47   S    
C55   C56   S    
C25   C26   A    
C46   H25   S    
C49   C50   S    
C33   O13   S    
C42   H17   S    
C2    C4    A    
C39   H12   S    
Cu1   N2    S    
C1    O1    A    
Cu2   N1    S    
O13   C49   S    
C20   C23   S    
C34   O8    A    
C50   H36   S    
C51   C52   S    
C10   C12   S    
C49   H34   S    
O9    C41   S    
C45   H24   S    
O16   C55   S    
C22   C24   A    
C8    C37   A    
Cu1   O7    S    
Cu2   O8    S    
C39   C40   A    
C21   H4    S    
C46   H27   S    
C40   Br3   S    
C48   H31   S    
C11   C17   A    
C55   H49   S    
C52   H40   S    
C25   Br1   S    
C4    C5    A    
C9    C37   A    
C54   H45   S    
C19   H3    S    
C6    C7    A    
C26   Br2   S    
C45   C46   S    
C29   C35   S    
C31   O12   S    
C53   C54   S    
C10   C38   A    
C32   C33   A    
C2    C3    A    
Cu1   O1    S    
C3    C10   A    
C1    O2    A    
C11   C13   A    
C5    C6    A    
C38   H11   S    
C44   H22   S    
C34   O7    A    
C33   C35   A    
C51   H39   S    
C41   H13   S    
C50   H37   S    
C47   C48   S    
C6    H7    S    
C42   H15   S    
C12   O4    A    
C2    C40   A    
C23   O5    A    
C20   C21   A    
C45   H23   S    
C27   C28   A    
C14   C15   A    
C49   H33   S    
C1    C14   S    
C13   C14   A    
C32   N2    A    
C13   H2    S    
C15   C16   A    
C56   H51   S    
