data_mof_unit_9758.cif
_audit_creation_date              2012-12-11T17:17:05-0500
_audit_creation_method            fapswitch 2.2
_symmetry_space_group_name_H-M    P1
_symmetry_Int_Tables_number       1
_space_group_crystal_system       triclinic
_cell_length_a                    6.940746
_cell_length_b                    13.3749
_cell_length_c                    14.690768
_cell_angle_alpha                 98.980555
_cell_angle_beta                  89.879951
_cell_angle_gamma                 90.211216
_cell_volume                      1347.0415011

loop_
_atom_site_label
_atom_site_type_symbol
_atom_type_description
_atom_site_fract_x
_atom_site_fract_y
_atom_site_fract_z
_atom_type_partial_charge
O1    O     O_R   0.354890 0.151580 0.148210 -0.539371
O2    O     O_R   0.645110 0.848420 0.851790 -0.534846
O3    O     O_R   0.682370 0.152980 0.336770 -0.544233
O4    O     O_R   0.317630 0.847020 0.663230 -0.543971
O5    O     O_R   0.854980 0.348430 0.351800 -0.534586
O6    O     O_R   0.145020 0.651570 0.648200 -0.534211
C1    C     C_R   0.513386 0.130648 0.365382 0.730347
C2    C     C_R   0.486231 0.868221 0.633736 0.739407
O7    O     O_R   0.684450 0.139580 0.148000 -0.537528
O8    O     O_R   0.315550 0.860420 0.852000 -0.538969
O9    O     O_R   0.857080 0.334940 0.161680 -0.538360
O10   O     O_R   0.142920 0.665060 0.838320 -0.539314
C3    C     C_R   0.515522 0.112687 0.114020 0.725532
C4    C     C_R   0.484466 0.887231 0.886049 0.725309
O11   O     O_R   0.352790 0.165070 0.338330 -0.540697
O12   O     O_R   0.647210 0.834930 0.661670 -0.543591
O13   O     O_3   0.522170 0.314120 0.254710 -0.367371
O14   O     O_3   0.477830 0.685880 0.745290 -0.368729
V1    V     V_3+5 0.796120 0.238110 0.249130 1.408924
V2    V     V_3+5 0.203880 0.761890 0.750870 1.415785
O15   O     O_R   0.186930 0.347040 0.163240 -0.542377
O16   O     O_R   0.813070 0.652960 0.836760 -0.543176
C5    C     C_R   0.018455 0.368861 0.133616 0.679502
C6    C     C_R   0.981523 0.631273 0.866498 0.677380
O17   O     O_R   0.184850 0.360440 0.352010 -0.536351
O18   O     O_R   0.815150 0.639560 0.647990 -0.537313
C7    C     C_R   0.015851 0.387325 0.385981 0.731209
C8    C     C_R   0.984142 0.612702 0.613991 0.732436
V3    V     V_3+5 0.296410 0.261900 0.250880 1.408547
V4    V     V_3+5 0.703590 0.738100 0.749120 1.417517
O19   O     O_3   0.020490 0.185890 0.245290 -0.372675
O20   O     O_3   0.979510 0.814110 0.754710 -0.370531
C9    C     C_1   0.005173 0.466897 0.466336 -0.188270
C10   C     C_1   0.994822 0.533100 0.533647 -0.184259
C11   C     C_3   0.079180 0.589911 0.034037 -0.141343
C12   C     C_3   0.920741 0.410407 0.966231 -0.137452
C13   C     C_3   0.903784 0.541313 0.076147 -0.142898
C14   C     C_3   0.096145 0.458996 0.924136 -0.139734
H1    H     H_    0.824596 0.574979 0.139213 0.102021
H2    H     H_    0.175404 0.425373 0.861088 0.107304
H3    H     H_    0.144571 0.664327 0.061662 0.098474
H4    H     H_    0.855308 0.336001 0.938615 0.101452
C15   C     C_3   0.009516 0.439061 0.062813 -0.007519
C16   C     C_3   0.990417 0.561237 0.937447 -0.006744
C17   C     C_3   0.185124 0.486876 0.021494 -0.116137
C18   C     C_3   0.814801 0.513440 0.978781 -0.114431
H5    H     H_    0.338038 0.475764 0.039425 0.107919
H6    H     H_    0.661887 0.524554 0.960853 0.107525
C19   C     C_3   0.404258 0.954497 0.424538 0.306193
C20   C     C_3   0.592487 0.041709 0.573169 0.268213
C21   C     C_3   0.581771 0.910948 0.466552 0.260828
C22   C     C_3   0.415985 0.085777 0.531167 0.295949
C23   C     C_3   0.493640 0.937573 0.563377 -0.191073
C24   C     C_3   0.504144 0.059310 0.434165 -0.163373
C25   C     C_3   0.312172 0.981598 0.521654 -0.254583
C26   C     C_3   0.685654 0.015014 0.476613 -0.313752
H7    H     H_    0.159759 0.967645 0.539202 0.134132
H8    H     H_    0.838502 0.027314 0.458806 0.148998
C27   C     C_1   0.504910 0.033060 0.033705 -0.193654
C28   C     C_1   0.495058 0.966828 0.966395 -0.194090
N1    N     N_2   0.674853 0.814708 0.435724 -0.515007
H9    H     H_    0.773748 0.796820 0.482865 0.256553
C29   C     C_3   0.750900 0.800462 0.342970 -0.550168
H10   H     H_    0.839946 0.730776 0.331135 0.185127
H11   H     H_    0.842656 0.865748 0.331792 0.209328
H12   H     H_    0.631527 0.790022 0.292506 0.214864
N2    N     N_2   0.333761 0.183207 0.567765 -0.523256
H13   H     H_    0.421413 0.243320 0.558840 0.253252
C30   C     C_3   0.133671 0.197167 0.546066 -0.529406
H14   H     H_    0.087886 0.274811 0.576097 0.189268
H15   H     H_    0.042710 0.142659 0.576408 0.208863
H16   H     H_    0.111319 0.186522 0.470451 0.204716
N3    N     N_2   0.294585 0.901643 0.347723 -0.524106
H17   H     H_    0.272734 0.826041 0.351192 0.263165
C31   C     C_3   0.338877 0.923735 0.256700 -0.556277
H18   H     H_    0.287485 0.860897 0.203720 0.177745
H19   H     H_    0.496251 0.933727 0.247523 0.177271
H20   H     H_    0.262313 0.993269 0.245481 0.227026
N4    N     N_2   0.698867 0.088467 0.653517 -0.522007
H21   H     H_    0.823758 0.049971 0.663107 0.251818
C32   C     C_3   0.588488 0.113651 0.737541 -0.511578
H22   H     H_    0.683640 0.151934 0.793062 0.182130
H23   H     H_    0.528543 0.044249 0.759626 0.169635
H24   H     H_    0.469647 0.166158 0.728070 0.227655

loop_
_geom_bond_atom_site_label_1
_geom_bond_atom_site_label_2
_ccdc_geom_bond_type
V4    O20   S    
C29   H11   S    
O13   V3    S    
N3    H17   S    
C12   H4    S    
C21   N1    S    
O4    C2    A    
C19   N3    S    
V1    O19   S    
C20   N4    S    
C32   H22   S    
C7    C9    S    
O9    V1    S    
C11   C13   S    
O3    C1    A    
O12   V4    S    
C19   C24   S    
C5    C15   S    
N1    C29   S    
C21   C26   S    
C30   H15   S    
O7    C3    A    
C14   C17   S    
O5    C7    A    
O7    V1    S    
O6    C8    A    
O8    V2    S    
C19   C21   S    
C20   C22   S    
O3    V1    S    
O14   V4    S    
C22   C25   S    
C22   C24   S    
C17   H5    S    
C29   H12   S    
C8    C10   S    
C27   C28   T    
C2    O12   A    
N3    C31   S    
C30   H14   S    
O2    C4    A    
C32   H23   S    
C16   C18   S    
O11   V3    S    
C18   H6    S    
C23   C25   S    
O17   V3    S    
C24   C26   S    
C20   C23   S    
N2    H13   S    
O8    C4    A    
N4    C32   S    
C1    O11   A    
C19   C25   S    
O15   V3    S    
C20   C26   S    
N4    H21   S    
C21   C23   S    
C13   C15   S    
C30   H16   S    
C31   H18   S    
C14   C16   S    
C31   H19   S    
O10   V2    S    
O1    V3    S    
C9    C10   T    
C12   C18   S    
C11   C16   S    
C15   C17   S    
C22   N2    S    
O5    V1    S    
O18   V4    S    
O15   C5    A    
C6    C16   S    
O16   C6    A    
O1    C3    A    
C12   C14   S    
C11   C17   S    
C32   H24   S    
C4    C28   S    
V2    O20   S    
O16   V4    S    
C2    C23   S    
C3    C27   S    
O17   C7    A    
O6    V2    S    
O10   C6    A    
O18   C8    A    
O2    V4    S    
C25   H7    S    
V3    O19   S    
C14   H2    S    
O9    C5    A    
O13   V1    S    
C26   H8    S    
O14   V2    S    
N1    H9    S    
C11   H3    S    
C31   H20   S    
C29   H10   S    
O4    V2    S    
C13   H1    S    
C12   C15   S    
C1    C24   S    
N2    C30   S    
C13   C18   S    
