data_mof_unit_45687.cif
_audit_creation_date              2012-10-26T19:09:22-0400
_audit_creation_method            fapswitch 2.2
_symmetry_space_group_name_H-M    P1
_symmetry_Int_Tables_number       1
_space_group_crystal_system       triclinic
_cell_length_a                    10.781309
_cell_length_b                    9.517728
_cell_length_c                    19.308566
_cell_angle_alpha                 89.955588
_cell_angle_beta                  90.161243
_cell_angle_gamma                 89.972763
_cell_volume                      1981.31215513

loop_
_atom_site_label
_atom_site_type_symbol
_atom_type_description
_atom_site_fract_x
_atom_site_fract_y
_atom_site_fract_z
_atom_type_partial_charge
C1    C     C_R   0.262580 0.500021 0.500014 0.500481
C2    C     C_R   0.065260 0.547036 0.559560 0.001803
C3    C     C_R   0.871316 0.499943 0.499993 -0.068022
C4    C     C_R   0.128461 0.500024 0.500013 -0.072087
C5    C     C_R   0.424410 0.074542 0.456078 0.037548
C6    C     C_R   0.575562 0.925457 0.543936 0.038629
C7    C     C_R   0.575566 0.074301 0.543929 0.036336
C8    C     C_R   0.424425 0.925697 0.456073 0.040978
C9    C     C_R   0.473763 0.623560 0.254607 -0.079039
C10   C     C_R   0.474836 0.376628 0.745408 -0.081484
C11   C     C_R   0.529603 0.623251 0.745139 -0.073624
C12   C     C_R   0.737353 0.499976 0.499988 0.507579
C13   C     C_R   0.528532 0.376879 0.254848 -0.076551
C14   C     C_R   0.473771 0.625450 0.182039 0.014736
C15   C     C_R   0.474894 0.374974 0.817977 0.013495
C16   C     C_R   0.531060 0.625115 0.817705 0.019314
C17   C     C_R   0.529934 0.375246 0.182285 0.018368
C18   C     C_R   0.502178 0.500405 0.145685 -0.020318
C19   C     C_R   0.503176 0.500146 0.854318 -0.020394
C20   C     C_R   0.500770 0.500148 0.291155 -0.040128
C21   C     C_R   0.501624 0.499943 0.708845 -0.040548
C22   C     C_2   0.136101 0.396170 0.380560 0.309039
C23   C     C_R   0.503012 0.500457 0.930149 0.267811
C24   C     C_2   0.863970 0.567343 0.625718 0.294873
C25   C     C_2   0.862928 0.432728 0.374230 0.304557
C26   C     C_2   0.137089 0.603327 0.619586 0.324200
C27   C     C_2   0.445726 0.759060 0.145008 0.290636
C28   C     C_2   0.446951 0.241496 0.855035 0.290333
C29   C     C_2   0.559985 0.758639 0.854464 0.295086
C30   C     C_2   0.558716 0.241774 0.145506 0.294704
C31   C     C_R   0.502517 0.500449 0.069853 0.267794
C32   C     C_R   0.500205 0.500050 0.367318 0.524883
C33   C     C_R   0.500576 0.499959 0.632682 0.525263
C34   C     C_R   0.064764 0.452846 0.440482 0.001904
C35   C     C_R   0.934966 0.540146 0.560778 0.000483
C36   C     C_R   0.934456 0.459769 0.439219 0.003715
Cu1   Cu    Cu3+1 0.500000 0.640660 0.500000 0.967422
Cu2   Cu    Cu3+1 0.500000 0.359340 0.500000 0.962211
H1    H     H_    0.452144 0.718741 0.282874 0.180485
H2    H     H_    0.452379 0.235580 0.911047 0.137287
H3    H     H_    0.555766 0.764733 0.910482 0.136939
H4    H     H_    0.554407 0.235855 0.089471 0.136433
H5    H     H_    0.363830 0.130754 0.420910 0.140412
H6    H     H_    0.636100 0.869248 0.579125 0.119391
H7    H     H_    0.636109 0.130316 0.579112 0.134141
H8    H     H_    0.363887 0.869680 0.420886 0.129167
H9    H     H_    0.453259 0.281365 0.717153 0.186596
H10   H     H_    0.550795 0.718375 0.716668 0.178681
H11   H     H_    0.549677 0.281626 0.283306 0.183222
H12   H     H_    0.225656 0.440359 0.367241 0.102016
H13   H     H_    0.773520 0.617013 0.623730 0.108303
H14   H     H_    0.772329 0.383568 0.376167 0.120673
H15   H     H_    0.226766 0.558994 0.632880 0.108383
H16   H     H_    0.451169 0.765181 0.089020 0.137917
N1    N     N_R   0.500000 0.852070 0.500000 -0.228173
N2    N     N_R   0.500000 0.147930 0.500000 -0.233539
N3    N     N_R   0.611248 0.500189 0.034739 -0.199079
N4    N     N_R   0.394295 0.500553 0.965267 -0.201214
N5    N     N_R   0.611494 0.500347 0.965840 -0.200102
N6    N     N_R   0.394049 0.500731 0.034158 -0.202290
O1    O     O_R   0.319640 0.618740 0.500000 -0.497663
O2    O     O_2   0.903537 0.528783 0.681922 -0.437620
O3    O     O_2   0.902228 0.470865 0.318029 -0.435420
O4    O     O_2   0.099160 0.703477 0.652872 -0.432568
O5    O     O_2   0.416100 0.864800 0.176729 -0.449606
O6    O     O_2   0.417444 0.135633 0.823312 -0.445007
O7    O     O_2   0.589021 0.864333 0.822479 -0.448567
O8    O     O_2   0.587707 0.135921 0.177490 -0.444567
O9    O     O_R   0.680360 0.381260 0.500000 -0.505278
O10   O     O_R   0.680360 0.618740 0.500000 -0.502057
O11   O     O_R   0.319640 0.381260 0.500000 -0.496381
O12   O     O_R   0.499980 0.618820 0.400140 -0.497347
O13   O     O_R   0.500020 0.381180 0.599860 -0.497891
O14   O     O_R   0.500020 0.618820 0.599860 -0.511176
O15   O     O_R   0.499980 0.381180 0.400140 -0.514931
O16   O     O_2   0.097945 0.295804 0.347420 -0.441556

loop_
_geom_bond_atom_site_label_1
_geom_bond_atom_site_label_2
_ccdc_geom_bond_type
C2    C35   A    
C23   N4    A    
Cu1   O14   S    
C14   C18   A    
C5    N2    A    
C28   O6    D    
C22   O16   D    
C6    N1    A    
C12   O9    A    
C32   O15   A    
C27   H16   S    
C32   O12   A    
C23   N5    A    
C1    O11   A    
C7    H7    S    
C10   C15   A    
N3    N5    A    
C21   C33   S    
C28   H2    S    
N4    N6    A    
C9    H1    S    
C25   O3    D    
C26   O4    D    
C3    C12   S    
C15   C19   A    
C14   C27   S    
C22   H12   S    
C24   H13   S    
C5    H5    S    
Cu2   O9    S    
C6    H6    S    
Cu1   O10   S    
C17   C30   S    
C11   H10   S    
C7    N2    A    
C8    N1    A    
Cu2   O15   S    
C10   C21   A    
C22   C34   S    
C4    C34   A    
C24   C35   S    
C19   C23   S    
C16   C29   S    
C11   C21   A    
C31   N6    A    
C2    C4    A    
C9    C14   A    
Cu1   Cu2   S    
C27   O5    D    
C11   C16   A    
C9    C20   A    
C3    C35   A    
C17   C18   A    
C2    C26   S    
C13   H11   S    
C33   O13   A    
C26   H15   S    
C20   C32   S    
C12   O10   A    
Cu2   O11   S    
C24   O2    D    
C13   C20   A    
C29   H3    S    
C1    O1    A    
C5    C8    A    
Cu1   O1    S    
C6    C7    A    
C13   C17   A    
C1    C4    S    
C31   N3    A    
C25   H14   S    
C29   O7    D    
C15   C28   S    
C3    C36   A    
C16   C19   A    
C34   C36   A    
C8    H8    S    
C25   C36   S    
Cu1   N1    S    
C33   O14   A    
Cu2   N2    S    
Cu1   O12   S    
C10   H9    S    
C30   H4    S    
C18   C31   S    
C30   O8    D    
Cu2   O13   S    
