data_mof_unit_54701.cif
_audit_creation_date              2012-12-10T20:30:11-0500
_audit_creation_method            fapswitch 2.2
_symmetry_space_group_name_H-M    P1
_symmetry_Int_Tables_number       1
_space_group_crystal_system       triclinic
_cell_length_a                    9.897707
_cell_length_b                    10.656755
_cell_length_c                    13.20316
_cell_angle_alpha                 90.209676
_cell_angle_beta                  71.275556
_cell_angle_gamma                 89.913301
_cell_volume                      1318.91390445

loop_
_atom_site_label
_atom_site_type_symbol
_atom_type_description
_atom_site_fract_x
_atom_site_fract_y
_atom_site_fract_z
_atom_type_partial_charge
C1    C     C_R   0.499624 0.739719 0.500285 0.854900
C2    C     C_R   0.439801 0.565841 0.979465 -0.129925
C3    C     C_R   0.482715 0.577486 0.867187 0.024839
C4    C     C_R   0.549070 0.550129 0.026857 0.113061
C5    C     C_R   0.693000 0.533759 0.961656 0.145741
C6    C     C_R   0.732729 0.567385 0.854842 -0.265207
C7    C     C_R   0.628168 0.599974 0.810998 -0.137663
C8    C     C_R   0.521639 0.552356 0.136471 -0.231044
C9    C     C_R   0.759293 0.475489 0.116089 -0.127477
C10   C     C_R   0.380096 0.559820 0.814248 -0.184982
C11   C     C_R   0.406096 0.936222 0.461889 0.087842
C12   C     C_R   0.423285 0.518462 0.701690 0.906504
C13   C     C_R   0.494376 0.871650 0.507193 -0.071436
C14   C     C_R   0.569596 0.935261 0.565043 -0.237835
C15   C     C_R   0.570174 0.065050 0.565083 -0.242940
C16   C     C_R   0.494499 0.128719 0.507906 -0.090515
C17   C     C_R   0.406327 0.064355 0.462236 0.107742
C18   C     C_3   0.398294 0.071082 0.350871 -0.106418
C19   C     C_3   0.399167 0.928264 0.350367 -0.541819
C20   C     C_R   0.904446 0.587367 0.557763 0.096910
C21   C     C_R   0.948170 0.405569 0.451376 0.574203
C22   C     C_R   0.093296 0.406641 0.451514 -0.239436
C23   C     C_R   0.499560 0.260426 0.501024 0.916913
C24   C     C_R   0.046445 0.587098 0.557947 0.185402
C25   C     C_3   0.058916 0.725509 0.543631 -0.466430
C26   C     C_3   0.905929 0.726238 0.543393 -0.497845
C27   C     C_R   0.578057 0.500730 0.296705 0.890278
C28   C     C_R   0.795764 0.491320 0.005877 -0.177303
C29   C     C_R   0.622675 0.509715 0.181331 -0.122855
C30   C     C_R   0.235536 0.575975 0.871888 -0.423578
C31   C     C_R   0.192333 0.588924 0.983040 0.500713
C32   C     C_R   0.290240 0.562720 0.036619 0.427420
H1    H     H_    0.838038 0.440873 0.150263 0.199848
H2    H     H_    0.632333 0.115074 0.606382 0.163342
H3    H     H_    0.297301 0.113846 0.347626 0.151323
H4    H     H_    0.297009 0.888102 0.347652 0.190696
H5    H     H_    0.496113 0.884439 0.293304 0.194509
H6    H     H_    0.167723 0.335034 0.409394 0.151052
H7    H     H_    0.073253 0.773691 0.614287 0.191353
H8    H     H_    0.136557 0.752086 0.465402 0.218085
H9    H     H_    0.833058 0.775371 0.614203 0.181628
H10   H     H_    0.844107 0.571375 0.806188 0.138644
H11   H     H_    0.895206 0.754329 0.465289 0.226673
H12   H     H_    0.903532 0.470933 0.955155 0.168952
H13   H     H_    0.423681 0.591852 0.188472 0.223579
H14   H     H_    0.155823 0.574107 0.831683 0.187136
H15   H     H_    0.662532 0.639336 0.731828 0.169052
H16   H     H_    0.630227 0.885138 0.607114 0.151880
N1    N     N_R   0.856940 0.500860 0.500710 -0.139049
N2    N     N_R   0.142580 0.500820 0.500710 -0.117447
O1    O     O_R   0.385310 0.683210 0.499990 -0.619750
O2    O     O_R   0.614650 0.683240 0.500000 -0.633569
O3    O     O_R   0.328390 0.499940 0.653610 -0.616627
O4    O     O_R   0.557730 0.499980 0.653620 -0.629281
O5    O     O_R   0.385350 0.316760 0.500000 -0.624778
O6    O     O_R   0.614690 0.316790 0.500010 -0.570852
O7    O     O_R   0.442270 0.500020 0.346380 -0.606267
O8    O     O_R   0.671610 0.500060 0.346390 -0.576267
Zn1   Zn    Zn3+2 0.346870 0.499980 0.499990 0.947676
Zn2   Zn    Zn3+2 0.653130 0.500020 0.500010 0.986769
N3    N     N_3   0.525696 0.126658 0.274403 -0.448762
H17   H     H_    0.617696 0.081295 0.278482 0.201702
H18   H     H_    0.520255 0.111169 0.197582 0.189466
O9    O     O_3   0.900532 0.317787 0.392902 -0.577768
C33   C     C_3   0.936285 0.194700 0.414478 -0.359172
H19   H     H_    0.864351 0.128309 0.392011 0.207939
H20   H     H_    0.921377 0.179750 0.500917 0.151826
H21   H     H_    0.046925 0.171099 0.364556 0.140235
O10   O     O_3   0.235851 0.527844 0.142557 -0.602974
C34   C     C_3   0.217027 0.396496 0.145869 -0.254490
H22   H     H_    0.320357 0.346422 0.110169 0.143083
H23   H     H_    0.139022 0.367324 0.105530 0.167020
H24   H     H_    0.173340 0.367147 0.230255 0.198880
O11   O     O_3   0.050708 0.606469 0.042136 -0.596957
C35   C     C_3   0.008066 0.727759 0.022169 -0.313623
H25   H     H_    0.001789 0.734811 0.939789 0.154177
H26   H     H_    0.080027 0.801371 0.036127 0.155309
H27   H     H_    0.899585 0.746246 0.078553 0.198039

loop_
_geom_bond_atom_site_label_1
_geom_bond_atom_site_label_2
_ccdc_geom_bond_type
O5    Zn1   S    
C27   C29   S    
C4    C8    A    
C21   N1    A    
O3    Zn1   S    
C23   O6    A    
O4    Zn2   S    
C11   C19   S    
N1    Zn2   S    
C8    C29   A    
C3    C7    A    
C19   H4    S    
C25   H8    S    
C5    C6    A    
O7    Zn1   S    
O8    Zn2   S    
C15   C16   A    
C22   H6    S    
C2    C32   A    
C18   C19   S    
N3    H18   S    
C8    H13   S    
C21   O9    S    
O2    Zn2   S    
C20   C24   A    
C16   C17   A    
C33   H20   S    
C34   H22   S    
C19   H5    S    
C18   H3    S    
C15   H2    S    
C12   O3    A    
C9    C29   A    
C22   N2    A    
C21   C22   A    
C9    H1    S    
O10   C34   S    
C35   H27   S    
C26   H11   S    
C24   N2    A    
O11   C35   S    
C24   C25   S    
C27   O7    A    
C31   O11   S    
C14   H16   S    
C25   C26   S    
C28   H12   S    
O6    Zn2   S    
C7    H15   S    
C2    C4    A    
C35   H25   S    
C20   N1    A    
C5    C28   A    
C35   H26   S    
C10   C30   A    
C31   C32   A    
C33   H21   S    
C34   H24   S    
C17   C18   S    
C1    O1    A    
C6    C7    A    
C10   C12   S    
C16   C23   S    
C1    C13   S    
N2    Zn1   S    
C11   C17   A    
C30   H14   S    
C4    C5    A    
C27   O8    A    
C18   N3    S    
C23   O5    A    
C32   O10   S    
O9    C33   S    
C2    C3    A    
C3    C10   A    
C25   H7    S    
C11   C13   A    
C30   C31   A    
C20   C26   S    
N3    H17   S    
C1    O2    A    
O1    Zn1   S    
C26   H9    S    
C33   H19   S    
C6    H10   S    
C14   C15   A    
C34   H23   S    
C13   C14   A    
C12   O4    A    
C9    C28   A    
