data_mof_unit_26511.cif
_audit_creation_date              2012-12-10T17:31:07-0500
_audit_creation_method            fapswitch 2.2
_symmetry_space_group_name_H-M    P1
_symmetry_Int_Tables_number       1
_space_group_crystal_system       triclinic
_cell_length_a                    12.065496
_cell_length_b                    12.84388
_cell_length_c                    15.536484
_cell_angle_alpha                 85.862857
_cell_angle_beta                  115.165128
_cell_angle_gamma                 94.689184
_cell_volume                      2169.97486205

loop_
_atom_site_label
_atom_site_type_symbol
_atom_type_description
_atom_site_fract_x
_atom_site_fract_y
_atom_site_fract_z
_atom_type_partial_charge
C1    C     C_R   0.475831 0.299522 0.498045 0.957121
C2    C     C_R   0.665680 0.969562 0.570556 0.303835
C3    C     C_R   0.342619 0.139088 0.439680 0.410485
C4    C     C_R   0.657365 0.860816 0.560673 0.405649
C5    C     C_R   0.562030 0.131210 0.539686 -0.235061
C6    C     C_R   0.438064 0.868785 0.460359 -0.240380
C7    C     C_R   0.557474 0.025315 0.528018 -0.015322
C8    C     C_R   0.442582 0.974641 0.472167 -0.015759
C9    C     C_R   0.010500 0.605682 0.415727 -0.330834
C10   C     C_R   0.989234 0.394360 0.583932 -0.318828
C11   C     C_R   0.130077 0.595199 0.423286 0.533536
C12   C     C_R   0.524180 0.700468 0.501975 0.939975
C13   C     C_R   0.870498 0.405755 0.577571 0.537215
C14   C     C_R   0.155197 0.450957 0.533563 0.477062
C15   C     C_R   0.842900 0.547058 0.463900 0.471594
C16   C     C_R   0.575785 0.494991 0.680081 0.915865
C17   C     C_R   0.424359 0.504534 0.320066 0.918054
C18   C     C_R   0.036326 0.460577 0.529485 -0.103434
C19   C     C_R   0.962730 0.538808 0.469325 -0.093919
C20   C     C_R   0.623467 0.502243 0.783320 -0.093424
C21   C     C_R   0.380625 0.516516 0.216909 -0.089542
C22   C     C_R   0.788937 0.541300 0.936855 -0.184101
C23   C     C_R   0.654692 0.554180 0.110132 -0.179796
C24   C     C_R   0.231605 0.575981 0.062428 -0.188876
C25   C     C_R   0.748488 0.525504 0.839882 -0.247061
C26   C     C_R   0.265412 0.555186 0.159405 -0.253241
C27   C     C_R   0.540141 0.493442 0.824608 0.369340
C28   C     C_R   0.460613 0.496805 0.176738 0.393352
C29   C     C_R   0.576611 0.529345 0.916239 -0.041513
C30   C     C_R   0.436767 0.536896 0.084569 -0.032395
C31   C     C_R   0.703339 0.543160 0.975677 0.133740
C32   C     C_R   0.316884 0.567233 0.024445 0.130889
C33   C     C_R   0.490097 0.548037 0.951094 0.059344
C34   C     C_R   0.369020 0.574435 0.890498 -0.191807
C35   C     C_R   0.527793 0.544658 0.049828 0.060411
C36   C     C_R   0.741450 0.557746 0.072599 -0.191396
C37   C     C_R   0.284690 0.587857 0.927579 -0.187413
C38   C     C_R   0.542250 0.812320 0.506063 -0.168577
C39   C     C_R   0.457800 0.187649 0.494046 -0.169620
C40   C     C_R   0.334343 0.030354 0.429722 0.302485
Cl1   Cl    Cl    0.189640 0.964619 0.365246 -0.608787
Cl2   Cl    Cl    0.810439 0.035259 0.634905 -0.606100
Cl3   Cl    Cl    0.748943 0.644443 0.388927 -0.564241
Cl4   Cl    Cl    0.242652 0.346127 0.599896 -0.500844
H1    H     H_    0.838018 0.568167 0.119723 0.154782
H2    H     H_    0.340483 0.589058 0.814797 0.199531
H3    H     H_    0.352412 0.827896 0.416804 0.256055
H4    H     H_    0.647737 0.172138 0.583098 0.255274
H5    H     H_    0.886575 0.293167 0.672055 0.346138
H6    H     H_    0.114885 0.708997 0.330030 0.342564
H7    H     H_    0.570906 0.392930 0.180012 0.339438
H8    H     H_    0.401807 0.404734 0.824451 0.351360
H9    H     H_    0.829893 0.840649 0.647249 0.384655
H10   H     H_    0.169538 0.158963 0.354337 0.388358
H11   H     H_    0.193442 0.610911 0.880158 0.156629
H12   H     H_    0.956108 0.665995 0.367803 0.214705
H13   H     H_    0.043910 0.334405 0.632187 0.217523
H14   H     H_    0.201697 0.568916 0.189209 0.200250
H15   H     H_    0.814644 0.530733 0.809444 0.192794
H16   H     H_    0.886164 0.554856 0.980676 0.149636
H17   H     H_    0.140655 0.601923 0.017929 0.151627
H18   H     H_    0.687296 0.563466 0.185805 0.223860
N1    N     N_R   0.799120 0.480200 0.517090 -0.138492
N2    N     N_R   0.200880 0.519800 0.482910 -0.145340
O1    O     O_R   0.580150 0.341050 0.504560 -0.591168
O2    O     O_3   0.176785 0.658878 0.369853 -0.734022
O3    O     O_3   0.555712 0.431955 0.226368 -0.745820
O4    O     O_3   0.427201 0.441977 0.777002 -0.716255
O5    O     O_3   0.756973 0.799137 0.604835 -0.722313
O6    O     O_3   0.242935 0.200723 0.395742 -0.713398
O7    O     O_R   0.419850 0.658950 0.495440 -0.600329
O8    O     O_R   0.388090 0.353760 0.493600 -0.524011
O9    O     O_R   0.611910 0.646240 0.506400 -0.529892
O10   O     O_R   0.650890 0.490020 0.640860 -0.603483
O11   O     O_R   0.349110 0.509980 0.359140 -0.605123
O12   O     O_R   0.458830 0.502730 0.629890 -0.542993
O13   O     O_R   0.541170 0.497270 0.370110 -0.528246
O14   O     O_3   0.824574 0.343165 0.632139 -0.725173
Zn1   Zn    Zn3+2 0.628240 0.491510 0.507320 1.090390
Zn2   Zn    Zn3+2 0.371760 0.508490 0.492680 1.082809

loop_
_geom_bond_atom_site_label_1
_geom_bond_atom_site_label_2
_ccdc_geom_bond_type
C21   C26   A    
C24   H17   S    
O1    Zn1   S    
C27   C29   A    
C34   C37   A    
C14   C18   A    
C2    C7    A    
H9    O5    S    
C7    C8    A    
N1    Zn1   S    
C15   C19   A    
C30   C35   A    
C16   O10   A    
C10   C18   A    
C22   H16   S    
C20   C25   A    
C29   C33   A    
H5    O14   S    
C18   C19   A    
C4    O5    S    
C27   O4    S    
C26   H14   S    
C23   H18   S    
C22   C25   A    
C13   N1    A    
C1    O1    A    
C6    C38   A    
C34   H2    S    
O11   Zn2   S    
H8    O4    S    
C11   O2    S    
C3    C39   A    
C12   O9    A    
N2    Zn2   S    
O7    Zn2   S    
C9    C19   A    
O13   Zn1   S    
C5    H4    S    
C1    O8    A    
C22   C31   A    
C28   O3    S    
C11   N2    A    
C6    H3    S    
C5    C7    A    
C6    C8    A    
C17   C21   S    
C2    C4    A    
C24   C32   A    
C10   H13   S    
H6    O2    S    
H10   O6    S    
C16   C20   S    
C14   N2    A    
C3    O6    S    
C17   O13   A    
C33   C34   A    
O9    Zn1   S    
C36   H1    S    
C9    H12   S    
H7    O3    S    
C32   C37   A    
C9    C11   A    
C40   Cl1   S    
C21   C28   A    
C4    C38   A    
C3    C40   A    
C23   C35   A    
O10   Zn1   S    
C5    C39   A    
C14   Cl4   S    
C13   O14   S    
C16   O12   A    
C12   O7    A    
O12   Zn2   S    
C24   C26   A    
C10   C13   A    
C20   C27   A    
C8    C40   A    
C28   C30   A    
C15   Cl3   S    
O8    Zn2   S    
C30   C32   A    
C2    Cl2   S    
C33   C35   A    
C12   C38   S    
C1    C39   S    
C37   H11   S    
C29   C31   A    
C23   C36   A    
C17   O11   A    
C15   N1    A    
C31   C36   A    
C25   H15   S    
