data_mof_unit_34540.cif
_audit_creation_date              2012-12-10T19:46:26-0500
_audit_creation_method            fapswitch 2.2
_symmetry_space_group_name_H-M    P1
_symmetry_Int_Tables_number       1
_space_group_crystal_system       triclinic
_cell_length_a                    10.954356
_cell_length_b                    10.962868
_cell_length_c                    10.433351
_cell_angle_alpha                 91.473408
_cell_angle_beta                  90.229125
_cell_angle_gamma                 89.298752
_cell_volume                      1252.43662577

loop_
_atom_site_label
_atom_site_type_symbol
_atom_type_description
_atom_site_fract_x
_atom_site_fract_y
_atom_site_fract_z
_atom_type_partial_charge
C1    C     C_R   0.498873 0.260953 0.497702 0.770927
C2    C     C_R   0.498296 0.738343 0.501973 0.794292
C3    C     C_R   0.871840 0.513204 0.504185 -0.094965
C4    C     C_R   0.127455 0.515248 0.497726 -0.104621
C5    C     C_R   0.939967 0.500406 0.618779 0.000613
C6    C     C_R   0.059351 0.523209 0.382372 0.021099
C7    C     C_R   0.434965 0.219904 0.067044 -0.153193
C8    C     C_R   0.679900 0.799132 0.892197 -0.148800
C9    C     C_R   0.418116 0.182178 0.192766 -0.087584
C10   C     C_R   0.653928 0.851765 0.774366 -0.136267
C11   C     C_R   0.499136 0.097655 0.245884 0.107245
C12   C     C_R   0.534032 0.888356 0.744672 0.128817
C13   C     C_R   0.588268 0.042227 0.165928 -0.186530
C14   C     C_R   0.440615 0.871541 0.834014 -0.123187
C15   C     C_R   0.604246 0.080047 0.040659 -0.045577
C16   C     C_R   0.467007 0.818777 0.951733 -0.123034
C17   C     C_R   0.528306 0.170149 0.991745 -0.068730
C18   C     C_R   0.586664 0.783027 0.980934 -0.126566
C19   C     C_R   0.477742 0.928437 0.388512 -0.244777
C20   C     C_R   0.502722 0.068542 0.612152 -0.239475
C21   C     C_R   0.493477 0.871354 0.505194 -0.081869
C22   C     C_R   0.494506 0.126771 0.493889 -0.084540
C23   C     C_R   0.261220 0.504279 0.499296 0.786402
C24   C     C_R   0.738588 0.503069 0.500988 0.801753
C25   C     C_R   0.506950 0.942160 0.618992 -0.007629
C26   C     C_R   0.485660 0.054114 0.378852 0.003354
C27   C     C_1   0.500264 0.500621 0.071991 0.091603
C28   C     C_1   0.500146 0.500281 0.928025 0.114260
C29   C     C_R   0.139513 0.531289 0.029472 -0.178003
C30   C     C_R   0.804558 0.281530 0.851833 -0.229119
C31   C     C_R   0.111192 0.572399 0.154423 -0.257845
C32   C     C_R   0.846383 0.331479 0.738657 -0.194143
C33   C     C_R   0.110118 0.489889 0.254794 0.159075
C34   C     C_R   0.887625 0.452237 0.737956 0.167887
C35   C     C_R   0.138539 0.367166 0.228837 -0.194373
C36   C     C_R   0.885064 0.522783 0.851958 -0.193754
C37   C     C_R   0.157352 0.324742 0.103502 -0.331774
C38   C     C_R   0.841725 0.473066 0.965254 -0.223209
C39   C     C_R   0.158490 0.406519 0.000903 0.523601
C40   C     C_R   0.804158 0.350878 0.966404 0.498774
C41   C     C_R   0.932668 0.533923 0.389248 -0.257564
C42   C     C_R   0.065926 0.514466 0.615066 -0.263728
Cu1   Cu    Cu3+1 0.500000 0.500000 0.625300 0.997192
Cu2   Cu    Cu3+1 0.500000 0.500000 0.374700 0.980327
H1    H     H_    0.647451 0.970773 0.201643 0.116502
H2    H     H_    0.347616 0.898028 0.812343 0.106562
H3    H     H_    0.676851 0.040897 0.982554 0.123816
H4    H     H_    0.394902 0.806079 0.020586 0.122131
H5    H     H_    0.465901 0.873891 0.301152 0.160552
H6    H     H_    0.511814 0.121521 0.700200 0.153397
H7    H     H_    0.141887 0.596326 0.953198 0.134784
H8    H     H_    0.774779 0.187874 0.850667 0.127441
H9    H     H_    0.088383 0.667663 0.172443 0.138878
H10   H     H_    0.848362 0.275419 0.651720 0.134364
H11   H     H_    0.139209 0.302637 0.305487 0.137914
H12   H     H_    0.917627 0.615596 0.853104 0.123392
H13   H     H_    0.171826 0.227758 0.088919 0.117722
H14   H     H_    0.839048 0.528809 0.052355 0.131524
H15   H     H_    0.880877 0.544708 0.301499 0.153658
H16   H     H_    0.116981 0.510215 0.703620 0.215595
H17   H     H_    0.542617 0.203123 0.896512 0.121016
H18   H     H_    0.607343 0.743763 0.072739 0.126991
H19   H     H_    0.378038 0.289882 0.027510 0.150255
H20   H     H_    0.772511 0.772593 0.915638 0.117635
H21   H     H_    0.344274 0.220194 0.249760 0.136014
H22   H     H_    0.726914 0.864035 0.706329 0.112792
N1    N     N_1   0.500010 0.499990 0.186410 -0.137945
N2    N     N_1   0.499990 0.500010 0.813590 -0.130593
O1    O     O_R   0.499990 0.319650 0.605810 -0.585611
O2    O     O_R   0.500010 0.680350 0.394190 -0.595711
O3    O     O_R   0.499990 0.319640 0.394190 -0.576541
O4    O     O_R   0.500010 0.680360 0.605810 -0.566169
O5    O     O_R   0.319640 0.500010 0.605810 -0.570963
O6    O     O_R   0.680360 0.499990 0.394190 -0.578848
O7    O     O_R   0.319650 0.500010 0.394190 -0.571874
O8    O     O_R   0.680350 0.499990 0.605810 -0.566118
O9    O     O_3   0.184225 0.372497 0.873766 -0.633031
C43   C     C_3   0.162701 0.247808 0.843946 0.034127
H23   H     H_    0.071034 0.220270 0.878032 0.140209
H24   H     H_    0.235047 0.189940 0.887270 0.143543
C44   C     C_3   0.167908 0.226580 0.698502 -0.311995
H25   H     H_    0.092933 0.277927 0.652290 0.222505
H26   H     H_    0.256290 0.259405 0.661628 0.239590
C45   C     C_3   0.154304 0.092173 0.660873 -0.950308
H27   H     H_    0.230933 0.038153 0.700804 0.258664
H28   H     H_    0.155856 0.081243 0.554760 0.261135
H29   H     H_    0.066378 0.057128 0.696677 0.253444
O10   O     O_3   0.761616 0.299653 0.077329 -0.613370
C46   C     C_3   0.861796 0.274494 0.158381 0.052693
H30   H     H_    0.898947 0.361295 0.196151 0.168342
H31   H     H_    0.933879 0.221087 0.105847 0.125512
C47   C     C_3   0.820805 0.198908 0.271236 -0.293519
H32   H     H_    0.736941 0.239933 0.314704 0.250024
H33   H     H_    0.802046 0.105567 0.235000 0.207788
C48   C     C_3   0.918946 0.187048 0.374356 -0.983986
H34   H     H_    0.001343 0.140609 0.333897 0.254987
H35   H     H_    0.883893 0.131214 0.453206 0.256359
H36   H     H_    0.943596 0.277728 0.414978 0.268360

loop_
_geom_bond_atom_site_label_1
_geom_bond_atom_site_label_2
_ccdc_geom_bond_type
Cu1   O5    S    
C30   C32   A    
C5    C42   A    
Cu1   O4    S    
C48   H34   S    
C45   H29   S    
C15   H3    S    
C16   H4    S    
C44   H25   S    
C48   H36   S    
C14   H2    S    
O9    C43   S    
C1    O3    A    
C39   O9    S    
C28   N2    T    
C45   H28   S    
C43   H24   S    
C20   C25   A    
Cu2   O3    S    
C7    C9    A    
C19   C26   A    
C20   H6    S    
C17   H17   S    
C38   H14   S    
Cu1   N2    S    
C7    C17   A    
C6    C41   A    
C31   C33   A    
Cu2   O2    S    
C46   H31   S    
C1    O1    A    
C1    C22   S    
Cu1   O1    S    
C38   C40   A    
C3    C24   S    
C23   O5    A    
C2    O4    A    
C32   H10   S    
C44   H26   S    
C10   H22   S    
C35   H11   S    
C45   H27   S    
C41   H15   S    
C4    C6    A    
C42   H16   S    
C4    C23   S    
C43   H23   S    
C24   O8    A    
C11   C26   S    
C47   C48   S    
C8    C18   A    
C32   C34   A    
Cu2   O7    S    
Cu1   Cu2   S    
C36   H12   S    
C19   H5    S    
C29   C31   A    
C5    C34   S    
C29   C39   A    
C2    C21   S    
C47   H33   S    
C30   C40   A    
C31   H9    S    
C46   C47   S    
Cu2   O6    S    
C9    C11   A    
C7    H19   S    
C10   C12   A    
C8    H20   S    
C8    C10   A    
C12   C14   A    
C13   C15   A    
C14   C16   A    
C20   C22   A    
C44   C45   S    
C29   H7    S    
Cu1   O8    S    
C15   C17   A    
C21   C25   A    
C3    C41   A    
C35   C37   A    
C18   H18   S    
C23   O7    A    
C3    C5    A    
C48   H35   S    
C6    C33   S    
C12   C25   S    
C40   O10   S    
C36   C38   A    
C37   C39   A    
C13   H1    S    
C11   C13   A    
C43   C44   S    
C24   O6    A    
C4    C42   A    
C47   H32   S    
C33   C35   A    
C34   C36   A    
C9    H21   S    
C27   N1    T    
O10   C46   S    
C16   C18   A    
C22   C26   A    
C27   C28   S    
Cu2   N1    S    
C46   H30   S    
C2    O2    A    
C37   H13   S    
C30   H8    S    
C19   C21   A    
