data_mof_unit_50995.cif
_audit_creation_date              2013-03-05T15:54:20-0500
_audit_creation_method            fapswitch 2.2
_symmetry_space_group_name_H-M    P1
_symmetry_Int_Tables_number       1
_space_group_crystal_system       triclinic
_cell_length_a                    15.134266
_cell_length_b                    14.995361
_cell_length_c                    14.912333
_cell_angle_alpha                 109.387704
_cell_angle_beta                  109.351142
_cell_angle_gamma                 110.161561
_cell_volume                      2589.31366619

loop_
_atom_site_label
_atom_site_type_symbol
_atom_site_description
_atom_site_fract_x
_atom_site_fract_y
_atom_site_fract_z
_atom_type_partial_charge
C1    C     C_R   0.000885 0.801761 0.093445 -0.141740
H1    H     H_    0.980419 0.829693 0.155996 0.152648
N1    N     N_R   0.995640 0.706130 0.053910 -0.044576
C2    C     C_R   0.780913 0.250818 0.685230 -0.140015
H2    H     H_    0.805490 0.247457 0.624749 0.114543
N2    N     N_R   0.848310 0.293860 0.791110 -0.044882
C3    C     C_R   0.092879 0.593064 0.791783 -0.114328
H3    H     H_    0.152796 0.677683 0.826486 0.152943
N3    N     N_R   0.054010 0.556790 0.847890 -0.045110
C4    C     C_R   0.684928 0.406678 0.951627 -0.143738
H4    H     H_    0.624361 0.324133 0.921890 0.097815
N4    N     N_R   0.789940 0.443190 0.997130 -0.040134
C5    C     C_R   0.004285 0.410376 0.699758 -0.143336
H5    H     H_    0.982679 0.327208 0.648459 0.091220
N5    N     N_R   0.997630 0.443170 0.791110 -0.044958
C6    C     C_R   0.775869 0.590885 0.034031 -0.107105
H6    H     H_    0.796677 0.675800 0.070983 0.098279
N6    N     N_R   0.846320 0.556810 0.053910 -0.028347
C7    C     C_R   0.684964 0.240053 0.771374 -0.119220
H7    H     H_    0.617078 0.214777 0.784620 0.101470
N7    N     N_R   0.791080 0.293860 0.847890 -0.043961
C8    C     C_R   0.090499 0.803054 0.000986 -0.123189
H8    H     H_    0.148791 0.832081 0.975939 0.119820
N8    N     N_R   0.052880 0.706130 0.997130 -0.048175
C9    C     C_R   0.059645 0.864691 0.062085 0.081305
C10   C     C_R   0.677743 0.217341 0.670012 0.071053
C11   C     C_R   0.064521 0.503113 0.698676 0.064157
C12   C     C_R   0.673190 0.496803 0.966785 -0.014651
C13   C     C_R   0.064632 0.593120 0.314640 -0.088129
H9    H     H_    0.126427 0.676577 0.375690 0.156452
N9    N     N_R   0.002370 0.556830 0.208890 -0.034492
C14   C     C_R   0.208817 0.408826 0.905944 -0.144461
H10   H     H_    0.176625 0.323962 0.848083 0.114789
N10   N     N_R   0.153680 0.443190 0.946090 -0.055734
C15   C     C_R   0.298196 0.804298 0.206732 -0.162895
H11   H     H_    0.343784 0.833333 0.170397 0.199863
N11   N     N_R   0.208920 0.706140 0.152110 -0.066619
C16   C     C_R   0.966153 0.241720 0.056513 -0.143856
H12   H     H_    0.928031 0.223427 0.101432 0.105648
N12   N     N_R   0.947120 0.293870 0.002870 -0.047195
C17   C     C_R   0.059646 0.243685 0.967707 -0.066794
H13   H     H_    0.109343 0.230376 0.933160 0.134504
N13   N     N_R   0.004360 0.293870 0.946090 -0.055310
C18   C     C_R   0.211067 0.806360 0.300122 0.333264
N14   N     N_R   0.151690 0.706140 0.208890 -0.092644
C19   C     C_R   0.959821 0.411334 0.227252 -0.117742
H14   H     H_    0.911679 0.330541 0.212603 0.091327
N15   N     N_R   0.945990 0.443210 0.152110 -0.046937
C20   C     C_R   0.302716 0.591558 0.001982 0.365755
N16   N     N_R   0.210060 0.556810 0.002870 -0.082217
Ni1   Ni    Ni4+2 0.999010 0.630300 0.130220 0.284995
Ni2   Ni    Ni4+2 0.000990 0.369700 0.869780 0.206792
Ni3   Ni    Ni4+2 0.130280 0.630280 0.000000 0.257905
Ni4   Ni    Ni4+2 0.869720 0.369720 0.000000 0.219585
C21   C     C_R   0.040626 0.503515 0.328810 0.030891
C22   C     C_R   0.303410 0.500305 0.939203 -0.170263
C23   C     C_R   0.303472 0.870323 0.300375 -0.102201
C24   C     C_R   0.040318 0.213947 0.041288 0.115599
C25   C     C_3   0.470027 0.380576 0.860250 -0.399955
H15   H     H_    0.471353 0.314955 0.878506 0.168884
H16   H     H_    0.465569 0.358742 0.779247 0.158661
C26   C     C_3   0.367461 0.381462 0.853787 -0.381755
H17   H     H_    0.310376 0.357246 0.768710 0.157999
H18   H     H_    0.326749 0.318832 0.872919 0.188882
H19   H     H_    0.583630 0.463257 0.086722 0.181028
H20   H     H_    0.432280 0.465298 0.074942 0.210850
C27   C     C_3   0.576936 0.524567 0.062749 -0.397865
C28   C     C_3   0.562982 0.580803 0.918098 -0.427133
C29   C     C_3   0.572550 0.495446 0.951197 0.380102
H21   H     H_    0.633630 0.664988 0.981205 0.164525
H22   H     H_    0.562226 0.561303 0.838938 0.166619
C30   C     C_3   0.398678 0.497735 0.937546 0.369766
C31   C     C_3   0.475031 0.525995 0.054785 -0.365993
C32   C     C_3   0.457826 0.579779 0.906547 -0.351107
H23   H     H_    0.403272 0.555314 0.820523 0.158138
H24   H     H_    0.480907 0.664857 0.959389 0.223148
H25   H     H_    0.649571 0.606744 0.129002 0.172028
H26   H     H_    0.499350 0.608170 0.118081 0.204552
C33   C     C_R   0.581554 0.111221 0.467527 0.159790
C34   C     C_R   0.580163 0.162452 0.563778 0.039301
C35   C     C_R   0.479799 0.147178 0.554476 -0.210148
H27   H     H_    0.475778 0.193743 0.624645 0.133587
C36   C     C_R   0.382804 0.060747 0.457049 -0.111939
H28   H     H_    0.306309 0.046736 0.452608 0.180990
C37   C     C_R   0.388039 0.987061 0.373750 0.051976
C38   C     C_R   0.486618 0.024201 0.373678 0.116754
C39   C     C_3   0.543291 0.965118 0.343030 -0.388861
C40   C     C_3   0.647083 0.060195 0.446180 -0.554372
H29   H     H_    0.516928 0.887186 0.345137 0.217913
H30   H     H_    0.544524 0.959461 0.267309 0.238776
H31   H     H_    0.679446 0.036768 0.507610 0.210523
H32   H     H_    0.707622 0.107759 0.429160 0.199689
C41   C     C_R   0.150030 0.607015 0.532305 0.110331
C42   C     C_R   0.090510 0.507485 0.432780 0.053504
C43   C     C_R   0.066727 0.409989 0.436547 -0.179032
H33   H     H_    0.029734 0.332140 0.362974 0.126170
C44   C     C_R   0.073682 0.409911 0.532284 -0.210000
H34   H     H_    0.041415 0.331697 0.529041 0.129531
C45   C     C_R   0.104041 0.507356 0.622711 0.040638
C46   C     C_R   0.156315 0.606941 0.626473 0.172228
C47   C     C_3   0.148026 0.708039 0.665440 -0.525017
C48   C     C_3   0.141803 0.708399 0.562789 -0.430113
H35   H     H_    0.071239 0.692735 0.666718 0.202775
H36   H     H_    0.223887 0.779383 0.741713 0.219510
H37   H     H_    0.061870 0.693854 0.506675 0.215997
H38   H     H_    0.214559 0.779586 0.580322 0.237941
C49   C     C_R   0.036742 0.020663 0.143261 0.172529
C50   C     C_R   0.091750 0.979217 0.099889 -0.014097
C51   C     C_R   0.167436 0.046460 0.082366 -0.320091
H39   H     H_    0.221118 0.022791 0.061874 0.184162
C52   C     C_R   0.166967 0.140200 0.082255 0.346881
C53   C     C_R   0.083898 0.158987 0.091903 -0.123037
C54   C     C_R   0.031333 0.108210 0.137746 0.127189
C55   C     C_3   0.915232 0.058970 0.112740 -0.488907
C56   C     C_3   0.922176 0.964020 0.120155 -0.501613
H40   H     H_    0.906065 0.108444 0.179689 0.188416
H41   H     H_    0.855980 0.033627 0.028102 0.202078
H42   H     H_    0.918353 0.959946 0.191982 0.201729
H43   H     H_    0.866720 0.885367 0.040203 0.197134
N17   N     N_R   0.170195 0.845823 0.368705 0.200083
O1    O     O_R   0.229685 0.892178 0.474830 -0.457323
O2    O     O_R   0.066503 0.810704 0.325904 -0.453389
N18   N     N_R   0.372806 0.703054 0.036181 0.195601
O3    O     O_R   0.469618 0.760342 0.122438 -0.487643
O4    O     O_R   0.337751 0.750086 0.985813 -0.472560
N19   N     N_R   0.246710 0.211248 0.068208 0.225327
O5    O     O_R   0.290427 0.172985 0.015388 -0.423226
O6    O     O_R   0.286785 0.317004 0.121007 -0.426729

loop_
_geom_bond_atom_site_label_1
_geom_bond_atom_site_label_2
_geom_bond_distance
_ccdc_geom_bond_type
C6    C12   1.388347 A    
C39   C40   1.505035 S    
C41   C42   1.399387 A    
C43   H33   1.082588 S    
C17   H13   1.078385 S    
C12   C29   1.454356 S    
C27   H25   1.114089 S    
C55   C56   1.500159 S    
N18   O3    1.299621 A    
C37   C38   1.401664 A    
N17   O1    1.300884 A    
N15   Ni4   1.849438 S    
C27   C29   1.544958 S    
C11   C45   1.454537 S    
C47   C48   1.504151 S    
C32   H24   1.101597 S    
C24   C53   1.463458 S    
C15   N11   1.326390 A    
C17   C24   1.391429 A    
C51   C52   1.408668 A    
C16   H12   1.061047 S    
N13   Ni2   1.857728 S    
N18   O4    1.299441 A    
C6    H6    1.080247 S    
C18   N17   1.431288 S    
C28   C32   1.537008 S    
C20   N18   1.425991 S    
C3    C11   1.376235 A    
C50   C51   1.405062 A    
C48   H37   1.112344 S    
C1    H1    1.078400 S    
C7    C10   1.391330 A    
C53   C54   1.402998 A    
C26   H18   1.112910 S    
C44   C45   1.408204 A    
C16   C24   1.383188 A    
N12   N13   1.397675 A    
C49   C54   1.370489 A    
C26   H17   1.113248 S    
C36   H28   1.077536 S    
C28   C29   1.550069 S    
C22   C30   1.463617 S    
C8    C9    1.386669 A    
C19   C21   1.384679 A    
C49   C50   1.394369 A    
C27   C31   1.515321 S    
N11   Ni3   1.849394 S    
C25   H15   1.109324 S    
C47   H35   1.112337 S    
C5    H5    1.080358 S    
C1    C9    1.374832 A    
C17   N13   1.336670 A    
N1    N8    1.397674 A    
C21   C42   1.452368 S    
C33   C40   1.496976 S    
C35   C36   1.403715 A    
N17   O2    1.300294 A    
N6    Ni1   1.875813 S    
C44   H34   1.080875 S    
C19   N15   1.340535 A    
N10   N16   1.381710 A    
N16   Ni3   1.894060 S    
C25   H16   1.113139 S    
C32   H23   1.112990 S    
C40   H32   1.111932 S    
C3    H3    1.077058 S    
C2    N2    1.323726 A    
N1    Ni1   1.857729 S    
C38   C39   1.498092 S    
C30   C31   1.550213 S    
C13   C21   1.372926 A    
H19   C27   1.114323 S    
N8    Ni3   1.893460 S    
N2    N7    1.397551 A    
C10   C34   1.453976 S    
C1    N1    1.318907 A    
C15   H11   1.075396 S    
C14   N10   1.320210 A    
C13   H9    1.068724 S    
C55   H40   1.112368 S    
C45   C46   1.399863 A    
C40   H31   1.112394 S    
C18   C23   1.394700 A    
C31   H26   1.108943 S    
C56   H42   1.111944 S    
C52   N19   1.436951 S    
C26   C30   1.555157 S    
C6    N6    1.323799 A    
N5    Ni2   1.857368 S    
C41   C46   1.376082 A    
C49   C56   1.497021 S    
C4    N4    1.313342 A    
C25   C29   1.557555 S    
C30   C32   1.556026 S    
C36   C37   1.408728 A    
C47   H36   1.111931 S    
C56   H43   1.112589 S    
N9    N15   1.381711 A    
C5    N5    1.337183 A    
C8    N8    1.338755 A    
N3    Ni3   1.849439 S    
N11   N14   1.397549 A    
C18   N14   1.348469 A    
C54   C55   1.503432 S    
C4    C12   1.377817 A    
C3    N3    1.322759 A    
C19   H14   1.075499 S    
C25   C26   1.528049 S    
N19   O6    1.301625 A    
C52   C53   1.420451 A    
C7    N7    1.346581 A    
N10   Ni2   1.875810 S    
N9    Ni1   1.857368 S    
C34   C35   1.406517 A    
C41   C48   1.497520 S    
C2    C10   1.375026 A    
C43   C44   1.396735 A    
C28   H22   1.112977 S    
C20   C22   1.383817 A    
N12   Ni4   1.893459 S    
C15   C23   1.374895 A    
C14   H10   1.079947 S    
C7    H7    1.074233 S    
C39   H29   1.112268 S    
N3    N5    1.381710 A    
C13   N9    1.327748 A    
C51   H39   1.081993 S    
C16   N12   1.323754 A    
H20   C31   1.114430 S    
N7    Ni4   1.849395 S    
N19   O5    1.301680 A    
C46   C47   1.498726 S    
C23   C37   1.468158 S    
C48   H38   1.110830 S    
C42   C43   1.405457 A    
C55   H41   1.112716 S    
C4    H4    1.073817 S    
C33   C34   1.396389 A    
C2    H2    1.076753 S    
C35   H27   1.082862 S    
C20   N16   1.323353 A    
C39   H30   1.110873 S    
N4    N6    1.381710 A    
C28   H21   1.111963 S    
N14   Ni1   1.874894 S    
C8    H8    1.081141 S    
C5    C11   1.384174 A    
N2    Ni2   1.874893 S    
C14   C22   1.378846 A    
C33   C38   1.374146 A    
N4    Ni4   1.894060 S    
C9    C50   1.450414 S    
