data_mof_unit_33780.cif
_audit_creation_date              2012-12-10T20:39:10-0500
_audit_creation_method            fapswitch 2.2
_symmetry_space_group_name_H-M    P1
_symmetry_Int_Tables_number       1
_space_group_crystal_system       triclinic
_cell_length_a                    19.111463
_cell_length_b                    10.694154
_cell_length_c                    9.951691
_cell_angle_alpha                 89.984787
_cell_angle_beta                  88.092724
_cell_angle_gamma                 91.244892
_cell_volume                      2032.32823825

loop_
_atom_site_label
_atom_site_type_symbol
_atom_type_description
_atom_site_fract_x
_atom_site_fract_y
_atom_site_fract_z
_atom_type_partial_charge
C1    C     C_R   0.498110 0.260353 0.500439 0.928071
C2    C     C_R   0.289471 0.483515 0.510042 -0.059881
C3    C     C_R   0.928992 0.453871 0.527861 0.305569
C4    C     C_R   0.069077 0.441335 0.530802 0.345343
C5    C     C_R   0.810143 0.395281 0.613246 0.134830
C6    C     C_R   0.737439 0.395775 0.597998 -0.060373
C7    C     C_R   0.709372 0.475381 0.500514 -0.126189
C8    C     C_R   0.753484 0.545698 0.414218 -0.323822
C9    C     C_R   0.825732 0.539278 0.421855 -0.106731
C10   C     C_R   0.853920 0.464648 0.522453 -0.029007
C11   C     C_R   0.472138 0.060295 0.609299 0.041774
C12   C     C_R   0.365466 0.497849 0.502419 0.873717
C13   C     C_R   0.502391 0.128498 0.502304 -0.067399
C14   C     C_R   0.547052 0.069732 0.408940 -0.154730
C15   C     C_R   0.551907 0.940056 0.410318 0.201378
C16   C     C_R   0.509637 0.871591 0.504000 -0.098115
C17   C     C_R   0.475814 0.933210 0.609290 0.084792
C18   C     C_3   0.404413 0.913049 0.671470 -0.481375
C19   C     C_3   0.399687 0.054952 0.673323 -0.246503
C20   C     C_R   0.453806 0.426039 0.073483 0.102356
C21   C     C_R   0.545281 0.574814 0.067011 0.207514
C22   C     C_R   0.541022 0.582329 0.923995 0.224020
C23   C     C_R   0.503064 0.739408 0.500122 0.892679
C24   C     C_R   0.451707 0.430346 0.931879 0.135921
C25   C     C_3   0.439033 0.294289 0.918339 -0.572087
C26   C     C_3   0.449858 0.284697 0.068959 -0.144187
C27   C     C_R   0.634163 0.494591 0.498772 0.889631
C28   C     C_R   0.255408 0.463844 0.635667 -0.141279
C29   C     C_R   0.183429 0.440467 0.645606 -0.020463
C30   C     C_R   0.145019 0.442550 0.526642 -0.001849
C31   C     C_R   0.179350 0.460409 0.401228 -0.147812
C32   C     C_R   0.251185 0.480655 0.392857 -0.165107
H1    H     H_    0.285386 0.461909 0.726156 0.203260
H2    H     H_    0.368149 0.863688 0.603063 0.221488
H3    H     H_    0.406482 0.871458 0.773627 0.213203
H4    H     H_    0.398348 0.091114 0.777472 0.166395
H5    H     H_    0.384382 0.275358 0.887798 0.230961
H6    H     H_    0.479821 0.249058 0.853990 0.228014
H7    H     H_    0.150156 0.462876 0.309772 0.169300
H8    H     H_    0.276541 0.495086 0.294975 0.201077
H9    H     H_    0.731571 0.609788 0.344505 0.161302
H10   H     H_    0.578579 0.124019 0.336860 0.186722
N1    N     N_R   0.032966 0.375941 0.438235 -0.148275
N2    N     N_R   0.963703 0.381941 0.436991 -0.156655
N3    N     N_R   0.964969 0.520602 0.619069 -0.124271
N4    N     N_R   0.034161 0.514576 0.620341 -0.127838
N5    N     N_R   0.499530 0.499140 0.142800 -0.136799
N6    N     N_R   0.499530 0.499180 0.857150 -0.132051
O1    O     O_R   0.500010 0.316790 0.614690 -0.610165
O2    O     O_R   0.500000 0.316760 0.385350 -0.601019
O3    O     O_R   0.398140 0.500000 0.614710 -0.618139
O4    O     O_R   0.398130 0.499970 0.385370 -0.613500
O5    O     O_R   0.500000 0.683240 0.614650 -0.602067
O6    O     O_R   0.499990 0.683210 0.385310 -0.617661
O7    O     O_R   0.601870 0.500030 0.614630 -0.611935
O8    O     O_R   0.601860 0.500000 0.385290 -0.610676
Zn1   Zn    Zn3+2 0.500000 0.500020 0.653130 0.985126
Zn2   Zn    Zn3+2 0.500000 0.499980 0.346870 0.998715
N7    N     N_2   0.600166 0.880749 0.320990 -0.313802
H11   H     H_    0.607532 0.925961 0.230066 0.237743
C33   C     C_3   0.666060 0.854035 0.380957 -0.791479
H12   H     H_    0.690606 0.941217 0.420373 0.266352
H13   H     H_    0.702360 0.814465 0.303616 0.245054
H14   H     H_    0.657871 0.785166 0.463821 0.229717
C34   C     C_2   0.343078 0.105454 0.588190 0.953164
O9    O     O_2   0.305682 0.187755 0.633188 -0.645421
O10   O     O_R   0.332343 0.057099 0.459952 -0.747534
H15   H     H_    0.291718 0.097418 0.414833 0.355123
N8    N     N_2   0.603121 0.634860 0.126745 -0.303419
H16   H     H_    0.594346 0.663414 0.223647 0.298665
C35   C     C_3   0.668591 0.570014 0.107026 -0.751158
H17   H     H_    0.712772 0.638126 0.115120 0.230285
H18   H     H_    0.673002 0.524118 0.007670 0.258862
H19   H     H_    0.672953 0.494046 0.181460 0.280806
N9    N     N_2   0.570424 0.688092 0.853633 -0.262127
H20   H     H_    0.555652 0.772497 0.894588 0.224349
C36   C     C_3   0.643754 0.687341 0.812469 -0.664495
H21   H     H_    0.675571 0.738216 0.887081 0.231164
H22   H     H_    0.650852 0.736311 0.714516 0.227091
H23   H     H_    0.663285 0.591118 0.800263 0.246609
C37   C     C_2   0.386933 0.230835 0.146568 0.941992
O11   O     O_2   0.392146 0.135667 0.213194 -0.574399
O12   O     O_R   0.322338 0.289319 0.140802 -0.803102
H24   H     H_    0.284218 0.244689 0.196887 0.343232
C38   C     C_2   0.151330 0.409145 0.780136 0.945339
O13   O     O_2   0.098630 0.342386 0.790022 -0.602332
O14   O     O_R   0.183103 0.452535 0.896404 -0.789625
H25   H     H_    0.157134 0.423770 0.981795 0.357698
C39   C     C_2   0.518026 0.218545 0.092815 0.921305
O15   O     O_2   0.569298 0.275668 0.133295 -0.630131
O16   O     O_R   0.522924 0.092049 0.059299 -0.793044
H26   H     H_    0.572224 0.060513 0.066630 0.321805
N10   N     N_2   0.838827 0.318827 0.714323 -0.298080
H27   H     H_    0.881857 0.268846 0.682633 0.243113
C40   C     C_3   0.848960 0.381141 0.841663 -0.613389
H28   H     H_    0.860325 0.310603 0.919363 0.247684
H29   H     H_    0.893675 0.448818 0.833504 0.243722
H30   H     H_    0.801372 0.431995 0.874892 0.255769
C41   C     C_2   0.691674 0.305838 0.676217 0.954749
O17   O     O_2   0.650873 0.237342 0.617349 -0.654074
O18   O     O_R   0.694914 0.299333 0.816089 -0.802964
H31   H     H_    0.660460 0.235509 0.857067 0.353280
C42   C     C_2   0.870628 0.615107 0.326355 0.964618
O19   O     O_2   0.918612 0.679774 0.368185 -0.547108
O20   O     O_R   0.858773 0.614450 0.188525 -0.765154
H32   H     H_    0.822500 0.549230 0.162445 0.298350

loop_
_geom_bond_atom_site_label_1
_geom_bond_atom_site_label_2
_ccdc_geom_bond_type
C22   N6    A    
O14   H25   S    
N10   H27   S    
C40   H28   S    
N1    N2    A    
C2    C12   S    
C37   O11   D    
C40   H30   S    
C7    C27   S    
N6    Zn1   S    
C4    N4    A    
C36   H21   S    
C26   C39   S    
C11   C19   S    
O18   H31   S    
O12   H24   S    
C28   C29   A    
C19   H4    S    
O6    Zn2   S    
C30   C31   A    
C27   O7    A    
C15   C16   A    
O1    Zn1   S    
C2    C32   A    
C18   C19   S    
N8    C35   S    
C37   O12   S    
C20   C24   A    
C31   H7    S    
C8    C9    A    
C34   O10   S    
O3    Zn1   S    
C39   O16   S    
C1    O2    A    
C29   C38   S    
C14   H10   S    
C25   H5    S    
C38   O14   S    
N7    H11   S    
N10   C40   S    
C21   C22   A    
N8    H16   S    
C22   N9    S    
C9    C10   A    
C12   O4    A    
C23   O5    A    
C36   H22   S    
C3    N2    A    
N7    C33   S    
O10   H15   S    
O2    Zn2   S    
C7    C8    A    
C24   C25   S    
O16   H26   S    
C35   H18   S    
O5    Zn1   S    
C27   O8    A    
C16   C17   A    
C25   C26   S    
C38   O13   D    
C3    N3    A    
C21   N8    S    
C24   N6    A    
C33   H14   S    
N9    H20   S    
C29   C30   A    
C25   H6    S    
C18   H2    S    
C31   C32   A    
C9    C42   S    
C33   H13   S    
C17   C18   S    
C42   O20   S    
C8    H9    S    
N9    C36   S    
O4    Zn2   S    
C41   O18   S    
C28   H1    S    
C26   C37   S    
O7    Zn1   S    
C1    C13   S    
C12   O3    A    
C23   O6    A    
C18   H3    S    
C36   H23   S    
C11   C17   A    
C15   N7    S    
C35   H19   S    
C5    N10   S    
C40   H29   S    
C6    C7    A    
C4    N1    A    
C16   C23   S    
O20   H32   S    
C41   O17   D    
C6    C41   S    
C5    C10   A    
C3    C10   S    
N5    Zn2   S    
C11   C13   A    
C5    C6    A    
C20   C26   S    
O8    Zn2   S    
C19   C34   S    
C32   H8    S    
C33   H12   S    
C20   N5    A    
N3    N4    A    
C35   H17   S    
C34   O9    D    
C42   O19   D    
C14   C15   A    
C2    C28   A    
C39   O15   D    
C13   C14   A    
C1    O1    A    
C4    C30   S    
C21   N5    A    
