data_mof_unit_15627.cif
_audit_creation_date              2013-03-05T16:04:19-0500
_audit_creation_method            fapswitch 2.2
_symmetry_space_group_name_H-M    P1
_symmetry_Int_Tables_number       1
_space_group_crystal_system       triclinic
_cell_length_a                    22.972008
_cell_length_b                    7.242993
_cell_length_c                    20.903829
_cell_angle_alpha                 89.997961
_cell_angle_beta                  93.294566
_cell_angle_gamma                 90.001792
_cell_volume                      3472.35806988

loop_
_atom_site_label
_atom_site_type_symbol
_atom_site_description
_atom_site_fract_x
_atom_site_fract_y
_atom_site_fract_z
_atom_type_partial_charge
O1    O     O_R   0.188620 0.380490 0.689890 -0.580987
O2    O     O_R   0.811380 0.619510 0.310110 -0.567684
O3    O     O_R   0.311380 0.880490 0.810110 -0.588405
O4    O     O_R   0.688620 0.119510 0.189890 -0.568401
O5    O     O_R   0.306510 0.709050 0.686440 -0.583260
O6    O     O_R   0.693490 0.290950 0.313560 -0.573521
O7    O     O_R   0.193490 0.209050 0.813560 -0.577443
O8    O     O_R   0.806510 0.790950 0.186440 -0.574397
C1    C     C_R   0.325351 0.541728 0.671701 0.957535
C2    C     C_R   0.674695 0.458280 0.328351 1.007904
C3    C     C_R   0.174640 0.041728 0.828288 0.966252
C4    C     C_R   0.825303 0.958289 0.171646 1.006691
O9    O     O_R   0.188770 0.710120 0.682280 -0.583082
O10   O     O_R   0.811230 0.289880 0.317720 -0.579498
O11   O     O_R   0.311230 0.210120 0.817720 -0.578452
O12   O     O_R   0.688770 0.789880 0.182280 -0.579597
O13   O     O_R   0.192790 0.881680 0.805920 -0.573729
O14   O     O_R   0.807210 0.118320 0.194080 -0.589992
O15   O     O_R   0.307210 0.381680 0.694080 -0.567803
O16   O     O_R   0.692790 0.618320 0.305920 -0.589369
C5    C     C_R   0.169053 0.541583 0.667019 1.016516
C6    C     C_R   0.832077 0.458635 0.332402 0.994853
C7    C     C_R   0.330993 0.041616 0.832935 1.021811
C8    C     C_R   0.667892 0.958629 0.167625 0.987870
O17   O     O_3   0.251460 0.547440 0.790570 -0.286846
O18   O     O_3   0.748540 0.452560 0.209430 -0.286366
O19   O     O_3   0.248540 0.047440 0.709430 -0.285401
O20   O     O_3   0.751460 0.952560 0.290570 -0.283937
V1    V     V_3+5 0.249730 0.821800 0.742470 1.232758
V2    V     V_3+5 0.750270 0.178200 0.257530 1.245220
V3    V     V_3+5 0.250270 0.321800 0.757530 1.240872
V4    V     V_3+5 0.749730 0.678200 0.242470 1.244627
C9    C     C_R   0.487095 0.000597 0.904574 0.441169
C10   C     C_R   0.535153 0.145292 0.067854 0.422096
C11   C     C_R   0.014288 0.477533 0.593241 0.429852
C12   C     C_R   0.964448 0.644906 0.432845 0.390026
C13   C     C_R   0.439138 0.007754 0.858842 0.286838
C14   C     C_R   0.578648 0.125856 0.117994 0.310223
C15   C     C_R   0.062194 0.485995 0.639673 0.193320
C16   C     C_R   0.921011 0.626242 0.382620 0.314235
C17   C     C_R   0.381946 0.032451 0.879322 -0.328162
C18   C     C_R   0.616873 0.971155 0.119836 -0.369664
C19   C     C_R   0.118408 0.531872 0.620247 -0.267871
C20   C     C_R   0.883013 0.471017 0.380278 -0.372119
C21   C     C_R   0.373043 0.042287 0.944851 -0.221833
C22   C     C_R   0.607302 0.831482 0.073790 -0.114237
C23   C     C_R   0.126905 0.560227 0.555269 -0.214446
C24   C     C_R   0.892748 0.330358 0.425902 -0.142159
H1    H     H_    0.329383 0.058493 0.961084 0.136254
H2    H     H_    0.635328 0.711237 0.074031 0.175101
H3    H     H_    0.169967 0.592178 0.539767 0.137185
H4    H     H_    0.864835 0.209819 0.425355 0.181313
C25   C     C_R   0.419943 0.028731 0.990122 -0.108216
C26   C     C_R   0.562056 0.845460 0.026281 -0.128679
C27   C     C_R   0.080507 0.543373 0.509513 -0.178509
C28   C     C_R   0.938229 0.343054 0.473152 -0.041145
H5    H     H_    0.411482 0.034764 0.040535 0.171467
H6    H     H_    0.555419 0.733754 0.992171 0.170174
H7    H     H_    0.088686 0.563157 0.459457 0.179050
H8    H     H_    0.945292 0.229319 0.506349 0.172876
C29   C     C_R   0.477354 0.010042 0.971176 -0.103239
C30   C     C_R   0.525988 0.002089 0.021930 -0.109315
C31   C     C_R   0.023819 0.505003 0.527733 -0.001253
C32   C     C_R   0.974379 0.499543 0.477825 -0.047766
H9    H     H_    0.956605 0.286807 0.041542 0.127327
H10   H     H_    0.043067 0.713189 0.958040 0.133645
H11   H     H_    0.543255 0.786757 0.458268 0.127813
H12   H     H_    0.457032 0.213151 0.542103 0.134508
C33   C     C_R   0.019782 0.172580 0.980355 -0.147300
C34   C     C_R   0.979885 0.827413 0.019225 -0.155030
C35   C     C_R   0.480126 0.672539 0.519521 -0.146038
C36   C     C_R   0.520163 0.327366 0.480846 -0.153517
H13   H     H_    0.034742 0.307178 0.965741 0.130044
H14   H     H_    0.964932 0.692814 0.033844 0.126256
H15   H     H_    0.465113 0.807140 0.534061 0.130376
H16   H     H_    0.535172 0.192765 0.466303 0.126883
C37   C     C_R   0.044756 0.011699 0.956306 0.165893
C38   C     C_R   0.954929 0.988295 0.043300 0.172737
C39   C     C_R   0.455219 0.511662 0.543664 0.164473
C40   C     C_R   0.545053 0.488245 0.456679 0.171089
C41   C     C_R   0.024452 0.839039 0.976036 -0.152059
C42   C     C_R   0.975214 0.160954 0.023542 -0.161455
C43   C     C_R   0.475593 0.338998 0.524031 -0.145916
C44   C     C_R   0.524697 0.660907 0.476339 -0.157885
C45   C     C_1   0.090871 0.023555 0.911425 0.013480
C46   C     C_1   0.908896 0.976450 0.088287 -0.000727
C47   C     C_1   0.409106 0.523529 0.588546 0.015594
C48   C     C_1   0.591092 0.476401 0.411698 0.002314
C49   C     C_1   0.870639 0.967450 0.126065 -0.224035
C50   C     C_1   0.129211 0.032573 0.873753 -0.200381
C51   C     C_1   0.629353 0.467415 0.373927 -0.220980
C52   C     C_1   0.370771 0.532566 0.626224 -0.203716
O21   O     O_3   0.542452 0.992323 0.881985 -0.692806
H17   H     H_    0.571743 0.027088 0.916374 0.321502
O22   O     O_3   0.501957 0.304650 0.066277 -0.707061
H18   H     H_    0.484564 0.324187 0.022403 0.322495
O23   O     O_3   0.957641 0.450389 0.610268 -0.738532
H19   H     H_    0.955225 0.472213 0.656741 0.361905
O24   O     O_3   0.996789 0.805902 0.435591 -0.708953
H20   H     H_    0.011942 0.826925 0.480275 0.323032
N1    N     N_R   0.449195 0.994060 0.791629 0.247307
O25   O     O_R   0.422341 0.103267 0.750237 -0.406632
O26   O     O_R   0.486766 0.875851 0.771658 -0.318532
N2    N     N_R   0.582044 0.261329 0.168266 0.260711
O27   O     O_R   0.577923 0.210336 0.227525 -0.402480
O28   O     O_R   0.583845 0.436471 0.154692 -0.359005
N3    N     N_R   0.053966 0.445337 0.705850 0.222998
O29   O     O_R   0.073323 0.557741 0.750745 -0.401887
O30   O     O_R   0.029558 0.290997 0.721580 -0.382765
N4    N     N_R   0.917470 0.763005 0.332772 0.262010
O31   O     O_R   0.921943 0.713695 0.273397 -0.403809
O32   O     O_R   0.915383 0.937736 0.346872 -0.360196

loop_
_geom_bond_atom_site_label_1
_geom_bond_atom_site_label_2
_geom_bond_distance
_ccdc_geom_bond_type
O17   V3    1.773875 S    
C13   N1    1.440351 S    
O1    C5    1.329403 A    
N1    O25   1.301346 A    
C27   H7    1.083195 S    
C34   C38   1.404654 A    
O13   V1    1.964109 S    
C33   C37   1.404620 A    
O22   H18   0.989293 S    
C10   C30   1.420759 A    
C40   C44   1.404887 A    
O15   V3    1.964067 S    
N2    O28   1.301067 A    
O23   H19   0.988959 S    
C15   N3    1.437391 S    
O21   H17   0.988598 S    
O9    V1    1.998982 S    
C14   C18   1.422759 A    
C26   H6    1.083426 S    
O4    C8    1.332555 A    
O19   V1    1.773831 S    
O1    V3    1.988832 S    
C8    C18   1.498415 S    
O2    V4    1.988829 S    
C18   C22   1.404977 A    
O3    V1    1.988829 S    
C34   C41   1.405884 A    
C34   H14   1.083444 S    
C14   N2    1.436631 S    
C33   C42   1.405871 A    
C5    C19   1.477724 S    
C25   C29   1.405200 A    
C1    O15   1.326142 A    
C6    C20   1.498046 S    
C2    O16   1.326148 A    
C27   C31   1.405395 A    
O2    C6    1.332469 A    
N3    O29   1.301299 A    
C28   C32   1.405173 A    
C33   H13   1.083456 S    
O14   V2    1.964111 S    
C37   C41   1.404868 A    
C16   C20   1.422468 A    
C36   H16   1.083442 S    
C38   C46   1.457485 S    
O11   C7    1.334253 A    
C21   C25   1.395975 A    
H11   C44   1.083419 S    
O12   C8    1.341969 A    
C47   C52   1.216488 T    
C40   C48   1.457489 S    
N3    O30   1.301262 A    
O10   V2    1.998979 S    
C1    C52   1.452862 S    
C39   C47   1.457395 S    
N2    O27   1.301265 A    
O7    C3    1.329018 A    
O5    V1    1.978831 S    
C35   H15   1.083455 S    
O7    V3    1.978764 S    
O8    V4    1.978766 S    
C4    C49   1.452924 S    
C12   C16   1.412740 A    
C10   O22   1.382755 S    
C25   H5    1.083424 S    
O18   V4    1.773876 S    
C16   N4    1.436601 S    
C26   C30   1.404706 A    
O3    C7    1.329627 A    
C9    C13   1.417461 A    
C35   C39   1.404620 A    
N4    O31   1.301267 A    
C11   C15   1.426251 A    
O5    C1    1.329054 A    
C23   H3    1.083480 S    
C38   C42   1.404889 A    
O24   H20   0.989683 S    
C48   C51   1.216539 T    
C21   H1    1.083507 S    
O8    C4    1.329026 A    
C22   C26   1.399359 A    
O9    C5    1.334336 A    
C9    C29   1.424384 A    
O6    V2    1.978831 S    
C2    C51   1.452927 S    
C23   C27   1.395928 A    
C35   C44   1.405864 A    
O16   V4    1.964067 S    
C24   C28   1.398932 A    
C3    O13   1.326175 A    
C10   C14   1.412918 A    
H12   C43   1.083435 S    
C46   C49   1.216537 T    
C9    O21   1.383005 S    
O6    C2    1.329018 A    
C15   C19   1.415324 A    
C45   C50   1.216479 T    
O11   V3    1.998977 S    
O12   V4    1.998976 S    
C22   H2    1.082923 S    
C7    C17   1.477937 S    
O10   C6    1.341877 A    
O20   V2    1.773832 S    
C36   C40   1.404658 A    
C12   C32   1.421248 A    
H10   C41   1.083431 S    
C39   C43   1.404872 A    
C3    C50   1.452843 S    
H9    C42   1.083416 S    
C12   O24   1.382049 S    
C13   C17   1.416341 A    
C29   C30   1.496944 S    
N4    O32   1.300966 A    
C36   C43   1.405892 A    
C37   C45   1.457387 S    
C31   C32   1.497886 S    
C28   H8    1.083295 S    
C24   H4    1.082886 S    
N1    O26   1.301440 A    
C4    O14   1.326144 A    
C17   C21   1.398393 A    
C11   C31   1.413197 A    
C11   O23   1.382703 S    
C19   C23   1.398449 A    
O4    V2    1.988832 S    
C20   C24   1.404610 A    
