data_mof_unit_32893.cif
_audit_creation_date              2013-03-05T16:17:49-0500
_audit_creation_method            fapswitch 2.2
_symmetry_space_group_name_H-M    P1
_symmetry_Int_Tables_number       1
_space_group_crystal_system       triclinic
_cell_length_a                    8.370095
_cell_length_b                    22.99611
_cell_length_c                    27.180754
_cell_angle_alpha                 97.453676
_cell_angle_beta                  91.358349
_cell_angle_gamma                 89.922737
_cell_volume                      5186.06785597

loop_
_atom_site_label
_atom_site_type_symbol
_atom_site_description
_atom_site_fract_x
_atom_site_fract_y
_atom_site_fract_z
_atom_type_partial_charge
P1    P     P_3+3 0.092730 0.547450 0.611370 0.471476
O1    O     O_2   0.919820 0.530450 0.618560 -0.375297
O2    O     O_3   0.151800 0.530410 0.558380 -0.377271
O3    O     O_3   0.654050 0.426350 0.586890 -0.387760
O4    O     O_2   0.803398 0.456747 0.672574 -0.395780
O5    O     O_3   0.076103 0.623733 0.634683 -0.591840
O6    O     O_3   0.593517 0.374657 0.673995 -0.483701
H1    H     H_    0.739461 0.334168 0.618330 0.171447
C1    C     C_3   0.642518 0.271285 0.660474 -0.768644
H2    H     H_    0.726583 0.277915 0.692931 0.257377
H3    H     H_    0.524634 0.257328 0.672579 0.278753
P2    P     P_3+3 0.606840 0.368620 0.459370 0.491135
P3    P     P_3+3 0.069509 0.320959 0.560192 0.444872
O7    O     O_2   0.782760 0.360070 0.473730 -0.349180
O8    O     O_3   0.056430 0.397060 0.562000 -0.361460
O9    O     O_2   0.933836 0.293787 0.525002 -0.389680
O10   O     O_3   0.599095 0.346377 0.395335 -0.557275
O11   O     O_3   0.018978 0.303515 0.618527 -0.543019
C2    C     C_3   0.157279 0.305404 0.648887 0.153089
H4    H     H_    0.218045 0.348792 0.651048 0.099435
H5    H     H_    0.240526 0.269862 0.634431 0.099227
C3    C     C_3   0.109073 0.295304 0.700935 -0.093629
H6    H     H_    0.045883 0.334614 0.719104 0.134346
H7    H     H_    0.025829 0.257291 0.698203 0.151680
C4    C     C_3   0.167842 0.352560 0.418631 0.407666
H8    H     H_    0.286537 0.371932 0.428768 0.090889
H9    H     H_    0.086981 0.360690 0.450562 0.136835
C5    C     C_3   0.185079 0.286674 0.404169 -0.931265
H10   H     H_    0.270301 0.277772 0.373394 0.272105
H11   H     H_    0.229851 0.265345 0.435922 0.230378
H12   H     H_    0.067185 0.267124 0.391880 0.261004
Ba1   Ba    Ba6+2 0.848110 0.472730 0.522970 1.569481
C6    C     C_3   0.216187 0.657876 0.632098 0.482573
H13   H     H_    0.311051 0.629920 0.613604 0.091320
C7    C     C_3   0.286637 0.686904 0.684412 -0.061497
H14   H     H_    0.414268 0.692613 0.677143 0.150135
C8    C     C_3   0.619699 0.393660 0.368714 0.429120
H15   H     H_    0.749095 0.402036 0.366836 0.055571
H16   H     H_    0.557978 0.434015 0.385155 0.132171
C9    C     C_3   0.550305 0.376125 0.316618 -1.004595
H17   H     H_    0.610593 0.336089 0.298764 0.268053
H18   H     H_    0.565226 0.411693 0.293282 0.235236
H19   H     H_    0.421030 0.366498 0.318757 0.270629
P4    P     P_3+3 0.096970 0.452510 0.388620 0.508804
O12   O     O_2   0.269870 0.469530 0.381410 -0.379266
O13   O     O_3   0.037890 0.469550 0.441610 -0.340254
O14   O     O_3   0.535640 0.573600 0.413100 -0.324854
O15   O     O_3   0.103854 0.375859 0.377621 -0.576843
P5    P     P_3+3 0.121004 0.678748 0.433946 0.464331
O16   O     O_3   0.647280 0.568810 0.525990 -0.340270
O17   O     O_3   0.133260 0.602900 0.438000 -0.325906
O18   O     O_2   0.251771 0.708892 0.469720 -0.416781
O19   O     O_3   0.184451 0.690953 0.375073 -0.538155
Ba2   Ba    Ba6+2 0.341700 0.527220 0.477020 1.607129
P6    P     P_3+3 0.634994 0.440872 0.651212 0.478054
C10   C     C_3   0.626014 0.327644 0.637125 0.426458
H20   H     H_    0.526603 0.322547 0.609195 0.034628
H21   H     H_    0.689948 0.236053 0.632879 0.233610
O20   O     O_3   0.542410 0.431140 0.474010 -0.396757
C11   C     C_3   0.683509 0.621399 0.625943 0.259130
H22   H     H_    0.629603 0.577021 0.617063 0.106017
H23   H     H_    0.803466 0.621913 0.610795 0.160149
C12   C     C_3   0.698562 0.634243 0.682390 -0.487674
H24   H     H_    0.584520 0.624377 0.698893 0.170459
H25   H     H_    0.786800 0.603176 0.695201 0.205791
P7    P     P_3+3 0.590400 0.643259 0.540587 0.431768
O21   O     O_2   0.406930 0.639920 0.526240 -0.354338
O22   O     O_3   0.590544 0.662868 0.605049 -0.625791
C13   C     C_3   0.085634 0.659400 0.338531 0.454030
H26   H     H_    0.091989 0.611623 0.341245 0.145451
H27   H     H_    0.960766 0.675787 0.341705 0.089354
C14   C     C_3   0.141890 0.668194 0.287233 -0.963322
H28   H     H_    0.264489 0.650585 0.281555 0.305719
H29   H     H_    0.060772 0.644436 0.258510 0.228146
H30   H     H_    0.140951 0.715564 0.282941 0.253587
P8    P     P_3+3 0.539020 0.564383 0.347431 0.546680
C15   C     C_3   0.552609 0.678295 0.366997 0.455010
H31   H     H_    0.669885 0.679882 0.386064 0.093244
O23   O     O_2   0.372074 0.541995 0.327927 -0.347145
O24   O     O_3   0.548902 0.633514 0.326514 -0.537024
H32   H     H_    0.459797 0.672292 0.394199 0.168219
H33   H     H_    0.631353 0.747421 0.326007 0.255721
C16   C     C_3   0.528157 0.737339 0.348452 -0.893214
H34   H     H_    0.517716 0.772046 0.380624 0.254678
H35   H     H_    0.417451 0.737106 0.325250 0.277103
C17   C     C_R   0.108895 0.504085 0.187025 0.503362
O25   O     O_2   0.216214 0.507831 0.218528 -0.567521
N1    N     N_R   0.949779 0.506380 0.201275 -0.158405
C18   C     C_R   0.831802 0.508737 0.164337 0.528228
C19   C     C_2   0.770553 0.531534 0.272318 -0.208461
C20   C     C_3   0.703514 0.514333 0.319544 0.069854
C21   C     C_1   0.971537 0.479315 0.338301 0.073468
C22   C     C_2   0.999263 0.469009 0.288914 0.121524
C23   C     C_2   0.905582 0.504388 0.253660 0.052713
C24   C     C_R   0.030372 0.505172 0.099935 -0.064674
C25   C     C_R   0.148651 0.497253 0.135941 -0.070652
C26   C     C_R   0.302992 0.481837 0.119838 -0.067036
C27   C     C_R   0.871969 0.513777 0.114795 -0.033592
C28   C     C_2   0.841597 0.507628 0.355143 0.003809
H36   H     H_    0.396153 0.473787 0.146385 0.208395
C29   C     C_2   0.344438 0.489589 0.637713 -0.425564
C30   C     C_R   0.252778 0.476247 0.980213 0.020745
C31   C     C_R   0.999574 0.525956 0.964816 -0.029084
C32   C     C_R   0.142456 0.498298 0.946653 0.078045
C33   C     C_R   0.390086 0.447299 0.960334 -0.323540
C34   C     C_R   0.420634 0.440419 0.909326 0.422173
C35   C     C_R   0.311880 0.462900 0.875525 -0.251770
C36   C     C_R   0.176074 0.493588 0.894838 -0.081383
C37   C     C_R   0.071847 0.518848 0.862205 -0.041346
C38   C     C_R   0.104118 0.513602 0.810795 0.526042
N2    N     N_R   0.242767 0.486655 0.791950 -0.161822
C39   C     C_R   0.333774 0.455463 0.823074 0.639950
C40   C     C_2   0.446978 0.500252 0.727113 0.088656
C41   C     C_3   0.487934 0.499134 0.672031 0.047641
C42   C     C_1   0.203253 0.504397 0.654443 0.272054
C43   C     C_2   0.166633 0.489263 0.698635 -0.228405
C44   C     C_2   0.291059 0.490871 0.740171 0.107028
O26   O     O_2   0.431061 0.419978 0.805025 -0.480137
C45   C     C_R   0.222455 0.484343 0.032443 0.070018
C46   C     C_R   0.069762 0.503667 0.048834 0.091967
C47   C     C_R   0.954348 0.520193 0.014373 0.052991
C48   C     C_R   0.337222 0.472939 0.069115 -0.222786
H37   H     H_    0.476898 0.428911 0.983825 0.170705
H38   H     H_    0.456189 0.458363 0.059739 0.139198
O27   O     O_2   0.690857 0.504746 0.173934 -0.613603
C49   C     C_R   0.755147 0.524315 0.079189 -0.124770
H39   H     H_    0.702283 0.561213 0.252153 0.214274
H40   H     H_    0.632315 0.531868 0.089588 0.162343
C50   C     C_R   0.911781 0.559754 0.932970 0.196337
C51   C     C_R   0.943369 0.552942 0.882014 -0.084963
O28   O     O_2   0.006981 0.532911 0.782954 -0.628479
C52   C     C_R   0.795187 0.527023 0.030015 -0.206976
H41   H     H_    0.873408 0.578080 0.858227 0.167574
H42   H     H_    0.058429 0.465848 0.702916 0.215081
H43   H     H_    0.698800 0.532609 0.004116 0.166883
H44   H     H_    0.358050 0.470253 0.599377 0.175852
H45   H     H_    0.683413 0.946898 0.370943 0.172871
C53   C     C_R   0.365706 0.335339 0.519585 -0.509073
C54   C     C_R   0.641094 0.947361 0.538447 -0.047374
C55   C     C_R   0.684595 0.887462 0.534688 0.521401
O29   O     O_2   0.696362 0.863544 0.572226 -0.596167
N3    N     N_R   0.715818 0.855978 0.488961 -0.163890
C56   C     C_R   0.705066 0.883410 0.446433 0.525580
O30   O     O_2   0.730464 0.855474 0.405997 -0.609056
C57   C     C_R   0.663280 0.943331 0.449126 -0.070330
C58   C     C_R   0.630417 0.975483 0.495242 -0.015942
C59   C     C_R   0.608630 0.979794 0.584538 -0.122896
C60   C     C_R   0.566098 0.038775 0.587814 -0.110071
C61   C     C_R   0.554226 0.067375 0.545105 -0.036321
C62   C     C_R   0.586655 0.035780 0.498286 -0.048289
C63   C     C_R   0.654834 0.971502 0.406394 -0.181955
C64   C     C_R   0.613397 0.031007 0.408177 0.212154
C65   C     C_R   0.575076 0.064104 0.454830 -0.101475
C66   C     C_R   0.524436 0.123915 0.460087 0.518144
N4    N     N_R   0.497478 0.154688 0.506438 -0.162021
C67   C     C_R   0.511194 0.126993 0.548547 0.522317
C68   C     C_2   0.890589 0.773280 0.461103 -0.271246
C69   C     C_3   0.912078 0.707960 0.448141 0.214087
C70   C     C_1   0.692787 0.695234 0.505475 0.190272
C71   C     C_2   0.650329 0.751067 0.506364 -0.209215
C72   C     C_2   0.757713 0.793926 0.485342 0.157413
C73   C     C_R   0.307745 0.235448 0.533015 -0.246046
C74   C     C_R   0.264581 0.294791 0.536996 0.191560
C75   C     C_R   0.503036 0.316778 0.494235 0.298953
C76   C     C_R   0.548209 0.257466 0.490580 -0.202529
C77   C     C_R   0.452333 0.216307 0.510769 0.152233
O31   O     O_2   0.500487 0.148565 0.423518 -0.600757
O32   O     O_2   0.486287 0.154449 0.589217 -0.605389
C78   C     C_2   0.816501 0.672451 0.480522 -0.310391
H46   H     H_    0.542122 0.061993 0.624163 0.179099
H47   H     H_    0.228030 0.204148 0.546237 0.162973
H48   H     H_    0.615929 0.959631 0.618395 0.171353
H49   H     H_    0.538048 0.766136 0.522658 0.166166
H50   H     H_    0.970767 0.802888 0.445690 0.177098
H51   H     H_    0.655561 0.243082 0.471154 0.171089
H52   H     H_    0.330591 0.380901 0.522160 0.166724
H53   H     H_    0.862278 0.629974 0.486966 0.202990
C79   C     C_3   0.177629 0.707033 0.600309 -0.439646
C80   C     C_3   0.069391 0.687295 0.557067 -0.680659
H54   H     H_    0.114863 0.647328 0.534723 0.289878
H55   H     H_    0.949479 0.678440 0.570444 0.199028
H56   H     H_    0.057305 0.724780 0.535696 0.234484
H57   H     H_    0.107280 0.742701 0.620777 0.178532
H58   H     H_    0.289631 0.725849 0.587806 0.210618
C81   C     C_3   0.235921 0.751346 0.704032 -0.288281
C82   C     C_3   0.321245 0.777960 0.752202 -0.889314
H59   H     H_    0.296139 0.753533 0.783716 0.263816
H60   H     H_    0.451824 0.779564 0.746657 0.261745
H61   H     H_    0.279149 0.823675 0.762295 0.256630
H62   H     H_    0.269959 0.781055 0.676879 0.181220
H63   H     H_    0.105030 0.754650 0.708688 0.197198
C83   C     C_3   0.284183 0.646000 0.724832 -0.298275
C84   C     C_3   0.127751 0.645000 0.752008 -0.750917
H64   H     H_    0.081698 0.689521 0.763622 0.248192
H65   H     H_    0.037656 0.618737 0.728479 0.292356
H66   H     H_    0.149848 0.625501 0.786653 0.236063
H67   H     H_    0.314221 0.601294 0.708297 0.154741
H68   H     H_    0.379681 0.659855 0.752796 0.191722
C85   C     C_3   0.752812 0.697024 0.700750 -0.160105
C86   C     C_3   0.748381 0.709141 0.757331 -0.996912
H69   H     H_    0.623681 0.709333 0.769989 0.267414
H70   H     H_    0.813424 0.674805 0.774767 0.277561
H71   H     H_    0.803360 0.752509 0.770255 0.263164
H72   H     H_    0.876114 0.702990 0.688354 0.206622
H73   H     H_    0.675171 0.729418 0.684867 0.220047
N5    N     N_R   0.249249 0.283589 0.730891 0.250114
O33   O     O_R   0.263479 0.233731 0.748348 -0.338211
O34   O     O_R   0.360216 0.323110 0.740707 -0.311131
C87   C     C_3   0.066920 0.409974 0.267476 -0.248757
C88   C     C_3   0.942028 0.361371 0.264842 -0.931506
H74   H     H_    0.905595 0.354464 0.302536 0.282877
H75   H     H_    0.835484 0.372623 0.242840 0.267120
H76   H     H_    0.993224 0.319711 0.246612 0.265567
H77   H     H_    0.109179 0.410572 0.229367 0.199848
H78   H     H_    0.172461 0.398668 0.289628 0.216897
C89   C     C_3   0.584149 0.517773 0.763841 -0.171253
C90   C     C_3   0.542310 0.565729 0.806001 -1.030455
H79   H     H_    0.424071 0.585596 0.800275 0.255209
H80   H     H_    0.541042 0.546823 0.841403 0.284159
H81   H     H_    0.633341 0.601164 0.809504 0.268488
H82   H     H_    0.636095 0.479011 0.778475 0.272599
H83   H     H_    0.683611 0.534980 0.743645 0.194898
N6    N     N_R   0.569088 0.413777 0.893424 0.267312
O35   O     O_R   0.613894 0.365095 0.909173 -0.338908
O36   O     O_R   0.673185 0.443888 0.872407 -0.388720
C91   C     C_3   0.813035 0.612894 0.952865 -0.393476
C92   C     C_3   0.636953 0.607597 0.936556 -0.898383
H84   H     H_    0.619487 0.625269 0.900791 0.260177
H85   H     H_    0.594745 0.561434 0.932409 0.266383
H86   H     H_    0.562611 0.634097 0.964399 0.255196
H87   H     H_    0.823444 0.622783 0.993809 0.200660
H88   H     H_    0.863806 0.652340 0.939204 0.188675
N7    N     N_R   0.853566 0.548823 0.398208 0.246356
O37   O     O_R   0.851915 0.603116 0.391223 -0.541912
O38   O     O_R   0.800496 0.534603 0.439446 -0.331552
C93   C     C_3   0.618477 0.056486 0.359297 -0.307757
C94   C     C_3   0.767317 0.094403 0.356864 -0.784249
H89   H     H_    0.773566 0.130768 0.387927 0.275115
H90   H     H_    0.876468 0.067120 0.358539 0.237974
H91   H     H_    0.765410 0.113438 0.321345 0.243812
H92   H     H_    0.622681 0.020937 0.327443 0.160706
H93   H     H_    0.507506 0.080693 0.352206 0.233439

loop_
_geom_bond_atom_site_label_1
_geom_bond_atom_site_label_2
_geom_bond_distance
_ccdc_geom_bond_type
P7    O22   1.751634 S    
C12   H25   1.108174 S    
C54   C58   1.413208 A    
C76   C77   1.413746 A    
C71   H49   1.085576 S    
C24   C25   1.403875 A    
P8    O23   1.547478 D    
O6    P6    1.754659 S    
O19   C13   1.404572 S    
H1    C10   1.108337 S    
N3    C72   1.460383 S    
C57   C58   1.403144 A    
C19   C20   1.511801 S    
C24   C27   1.401464 A    
O8    Ba1   2.752609 S    
C18   O27   1.220369 D    
C15   H31   1.097510 S    
C93   C94   1.529208 S    
C90   H81   1.109830 S    
C54   C59   1.404556 A    
C22   C23   1.536194 S    
P3    O11   1.746775 S    
C11   C12   1.526587 S    
O1    Ba1   2.811799 S    
C5    H10   1.110819 S    
C2    H5    1.111779 S    
C8    H15   1.103831 S    
C55   N3    1.385169 Am   
O14   P8    1.770867 S    
C50   C51   1.404885 A    
C8    C9    1.522678 S    
C52   H43   1.076651 S    
C28   N7    1.408744 S    
O2    Ba2   2.747086 S    
C17   N1    1.394808 Am   
C29   H44   1.087071 S    
C43   H42   1.070649 S    
C34   C35   1.422056 A    
C67   O32   1.222146 D    
N4    C77   1.456691 S    
C91   H87   1.107991 S    
C94   H90   1.110986 S    
C85   H73   1.110174 S    
C36   C37   1.407432 A    
C3    N5    1.457019 S    
C30   C33   1.410668 A    
C11   H23   1.094846 S    
P1    O1    1.523280 D    
C35   C39   1.429807 A    
C93   H93   1.108031 S    
C13   H27   1.112019 S    
C92   H84   1.107775 S    
C89   H82   1.106579 S    
P3    C74   1.836640 S    
C73   C77   1.410020 A    
P2    O20   1.541380 S    
C9    H19   1.109135 S    
C73   H47   1.082680 S    
C59   C60   1.393961 A    
C12   C85   1.530884 S    
C86   H69   1.106539 S    
C84   H65   1.104806 S    
C62   C65   1.422242 A    
C50   C91   1.521810 S    
C60   H46   1.083380 S    
C19   H39   1.083451 S    
N7    O38   1.296042 A    
C81   H63   1.107213 S    
C53   C74   1.394797 A    
C83   H68   1.107799 S    
C1    H2    1.110228 S    
C79   H57   1.106730 S    
P4    C21   1.871298 S    
C7    C81   1.569942 S    
C68   H50   1.085369 S    
C1    H3    1.108379 S    
C80   H56   1.103444 S    
N1    C18   1.397517 Am   
C84   H66   1.105932 S    
C9    H18   1.107042 S    
P7    O21   1.574926 D    
C63   C64   1.406194 A    
C85   C86   1.528314 S    
C58   C62   1.426190 A    
C94   H89   1.108932 S    
P2    Ba1   3.401786 S    
C68   C69   1.509218 S    
C29   C41   1.501787 S    
C13   H26   1.111787 S    
O6    C10   1.406472 S    
C14   H30   1.110506 S    
Ba1   Ba2   4.567615 S    
P7    C70   1.846971 S    
P4    O13   1.536027 S    
C19   C23   1.366517 D    
Ba2   O20   2.767725 S    
C3    H6    1.111792 S    
P3    O9    1.546029 D    
C8    H16   1.109003 S    
N1    C23   1.486031 S    
C40   C89   1.523062 S    
N4    C67   1.382544 Am   
P1    O5    1.792571 S    
C79   C80   1.490119 S    
C81   H62   1.110815 S    
C2    C3    1.526659 S    
C89   C90   1.530394 S    
N6    O35   1.301076 A    
C14   H29   1.110948 S    
C34   N6    1.435576 S    
N5    O33   1.300765 A    
O11   C2    1.403005 S    
Ba2   O21   2.806109 S    
P5    O17   1.764603 S    
C90   H79   1.105594 S    
C12   H24   1.100501 S    
P1    Ba1   3.409268 S    
C38   N2    1.391775 Am   
C11   H22   1.111509 S    
P1    O2    1.536003 S    
C7    H14   1.102096 S    
C93   H92   1.112157 S    
P2    O10   1.749006 S    
C13   C14   1.520281 S    
C61   C67   1.408915 A    
C26   C48   1.403605 A    
P2    C75   1.846387 S    
C31   C50   1.426931 A    
C53   H52   1.081765 S    
C70   C71   1.329109 D    
C15   H32   1.105996 S    
C35   C36   1.412699 A    
P5    O18   1.549422 D    
C25   C26   1.404080 A    
O13   Ba2   2.951853 S    
C87   C88   1.525106 S    
C38   O28   1.219790 D    
C91   C92   1.529379 S    
C1    C10   1.519965 S    
O10   C8    1.395030 S    
C83   H67   1.098593 S    
C55   O29   1.222245 D    
C45   C46   1.415433 A    
C30   C32   1.421503 A    
O16   P7    1.773603 S    
C4    O15   1.393680 S    
Ba1   O16   2.768320 S    
C66   N4    1.385892 Am   
O3    Ba1   2.722809 S    
C17   C25   1.424263 A    
C82   H59   1.107744 S    
O14   Ba2   2.722191 S    
C40   C44   1.385014 D    
C86   H70   1.108197 S    
C9    H17   1.110053 S    
C92   H85   1.110194 S    
P2    O7    1.533311 D    
O12   Ba2   2.812216 S    
H33   C16   1.110967 S    
C88   H75   1.110905 S    
C78   H53   1.082515 S    
O3    P6    1.747912 S    
C22   C87   1.520377 S    
C85   H72   1.107397 S    
C29   C42   1.305164 D    
C3    H7    1.112415 S    
C66   O31   1.218978 D    
C16   H34   1.109810 S    
C51   H41   1.083145 S    
C76   H51   1.082579 S    
C10   H20   1.108895 S    
C47   C52   1.410369 A    
C48   H38   1.076018 S    
C31   C47   1.430340 A    
C68   C72   1.359630 D    
C32   C36   1.433023 A    
C26   H36   1.081928 S    
P4    O12   1.523426 D    
C40   C41   1.540773 S    
N7    O37   1.286999 A    
C45   C48   1.416640 A    
C56   C57   1.414288 A    
C59   H48   1.083313 S    
C75   C76   1.406563 A    
C49   H40   1.080569 S    
C70   C78   1.321504 D    
N2    C39   1.391343 Am   
C16   H35   1.108072 S    
C6    C79   1.538774 S    
C17   O25   1.221520 D    
Ba1   O13   2.746505 S    
O4    P6    1.537807 D    
C5    H12   1.110876 S    
P8    O24   1.759101 S    
O7    Ba1   2.805690 S    
C14   H28   1.109494 S    
C54   C55   1.415742 A    
N6    O36   1.301092 A    
C69   C78   1.517561 S    
C73   C74   1.402409 A    
C64   C93   1.521504 S    
P6    C41   1.860711 S    
C57   C63   1.401756 A    
C24   C46   1.431225 A    
C90   H80   1.106373 S    
C88   H76   1.110290 S    
C33   C34   1.404441 A    
C87   H77   1.104229 S    
C87   H78   1.106929 S    
O5    C6    1.420173 S    
C86   H71   1.110137 S    
C18   C27   1.414846 A    
N2    C44   1.488649 S    
O17   Ba2   2.753266 S    
C83   C84   1.520161 S    
C2    H4    1.114639 S    
P3    O8    1.747691 S    
C56   O30   1.222053 D    
C4    H8    1.103530 S    
O16   Ba2   2.956908 S    
P4    O15   1.750289 S    
C61   C62   1.413148 A    
C71   C72   1.509513 S    
C39   O26   1.217759 D    
C15   O24   1.405956 S    
C81   C82   1.532249 S    
C82   H61   1.110564 S    
C7    C83   1.536702 S    
C91   H88   1.112298 S    
Ba1   O20   2.957660 S    
C5    H11   1.104467 S    
C21   C22   1.357971 D    
C6    C7    1.590662 S    
C6    H13   1.109133 S    
C43   C44   1.514628 S    
N5    O34   1.299019 A    
C60   C61   1.408025 A    
C88   H74   1.106850 S    
O2    Ba1   2.951090 S    
P5    C69   1.902574 S    
C89   H83   1.109012 S    
P5    O19   1.754616 S    
C11   O22   1.398218 S    
C49   C52   1.394853 A    
P8    C20   1.900985 S    
C4    C5    1.522665 S    
C80   H54   1.106155 S    
P4    Ba2   3.409707 S    
C27   C49   1.402428 A    
C92   H86   1.110373 S    
C64   C65   1.434709 A    
C1    H21   1.110045 S    
C37   C51   1.405942 A    
C84   H64   1.103312 S    
C94   H91   1.110337 S    
C31   C32   1.422323 A    
N3    C56   1.387916 Am   
C15   C16   1.520335 S    
C46   C47   1.415427 A    
H45   C63   1.083966 S    
C53   C75   1.392166 A    
P1    C42   1.858380 S    
C33   H37   1.077811 S    
C20   C28   1.510324 S    
C65   C66   1.429042 A    
C37   C38   1.419229 A    
C82   H60   1.108149 S    
C79   H58   1.111710 S    
C30   C45   1.436286 A    
C42   C43   1.335697 D    
C21   C28   1.326933 D    
C80   H55   1.103678 S    
C4    H9    1.109819 S    
