data_mof_unit_50497.cif
_audit_creation_date              2012-12-11T14:12:10-0500
_audit_creation_method            fapswitch 2.2
_symmetry_space_group_name_H-M    P1
_symmetry_Int_Tables_number       1
_space_group_crystal_system       triclinic
_cell_length_a                    14.668925
_cell_length_b                    16.300816
_cell_length_c                    6.925569
_cell_angle_alpha                 90.016921
_cell_angle_beta                  98.636787
_cell_angle_gamma                 90.020454
_cell_volume                      1637.23144113

loop_
_atom_site_label
_atom_site_type_symbol
_atom_type_description
_atom_site_fract_x
_atom_site_fract_y
_atom_site_fract_z
_atom_type_partial_charge
O1    O     O_R   0.584460 0.414130 0.534110 -0.539919
O2    O     O_R   0.584460 0.585870 0.534110 -0.533367
O3    O     O_R   0.595580 0.585780 0.208030 -0.502542
O4    O     O_R   0.595580 0.414220 0.208030 -0.505406
O5    O     O_R   0.415540 0.585790 0.977250 -0.542066
O6    O     O_R   0.415540 0.414210 0.977250 -0.540448
C1    C     C_R   0.617271 0.613824 0.384021 0.828001
C2    C     C_R   0.617439 0.386613 0.384167 0.844060
O7    O     O_3   0.440930 0.500000 0.319360 -0.409842
V1    V     V_3+5 0.510960 0.500000 0.068030 1.670529
O8    O     O_R   0.404420 0.414140 0.643900 -0.554460
O9    O     O_R   0.404420 0.585860 0.643900 -0.555704
C3    C     C_R   0.382497 0.385880 0.806671 0.783912
C4    C     C_R   0.382451 0.614072 0.806695 0.779236
V2    V     V_3+5 0.489040 0.500000 0.560660 1.544684
O10   O     O_3   0.559070 0.500000 0.859200 -0.338905
H1    H     H_    0.191125 0.806641 0.802239 0.153054
H2    H     H_    0.191261 0.193183 0.802320 0.150370
H3    H     H_    0.318365 0.693891 0.101780 0.152467
H4    H     H_    0.318577 0.306032 0.101777 0.157003
C5    C     C_2   0.314076 0.681782 0.796587 -0.289056
C6    C     C_2   0.314168 0.318105 0.796552 -0.290524
C7    C     C_2   0.288669 0.716050 0.958025 -0.074014
C8    C     C_2   0.288836 0.283839 0.958032 -0.063926
H5    H     H_    0.225083 0.794882 0.250523 0.132743
H6    H     H_    0.225236 0.205109 0.250610 0.133635
C9    C     C_2   0.195445 0.818074 0.107695 -0.273211
C10   C     C_2   0.195569 0.181878 0.107786 -0.275904
C11   C     C_2   0.220759 0.784193 0.945765 -0.108622
C12   C     C_2   0.220914 0.215681 0.945835 -0.114082
H7    H     H_    0.284388 0.704493 0.653345 0.130044
H8    H     H_    0.284443 0.295358 0.653316 0.128220
C13   C     C_2   0.806966 0.771111 0.339722 0.354913
C14   C     C_2   0.799426 0.224229 0.336578 0.393152
C15   C     C_2   0.818194 0.824536 0.491378 -0.435591
C16   C     C_2   0.816228 0.173649 0.492811 -0.414509
H9    H     H_    0.765257 0.828343 0.585325 0.171463
H10   H     H_    0.766802 0.171566 0.595108 0.148057
C17   C     C_2   0.719361 0.725811 0.291320 0.329319
C18   C     C_2   0.711115 0.268592 0.298657 0.364198
C19   C     C_2   0.693599 0.673095 0.423213 -0.367329
C20   C     C_2   0.694296 0.328433 0.422285 -0.403855
H11   H     H_    0.734861 0.669952 0.567234 0.148534
H12   H     H_    0.743101 0.338350 0.554662 0.105542
O11   O     O_R   0.925070 0.912130 0.373190 -0.510703
O12   O     O_R   0.925070 0.087870 0.373190 -0.505152
O13   O     O_R   0.914170 0.083600 0.699490 -0.524554
O14   O     O_R   0.914170 0.916400 0.699490 -0.523047
O15   O     O_R   0.094290 0.084740 0.929940 -0.552849
O16   O     O_R   0.094290 0.915260 0.929940 -0.551749
C21   C     C_R   0.892411 0.113888 0.524982 0.833930
C22   C     C_R   0.892993 0.885661 0.525086 0.840415
O17   O     O_3   0.068710 0.000000 0.587750 -0.413749
V3    V     V_3+5 0.998820 0.000000 0.839270 1.631416
O18   O     O_R   0.105520 0.913050 0.263180 -0.544565
O19   O     O_R   0.105520 0.086950 0.263180 -0.545940
C23   C     C_R   0.127310 0.885867 0.099461 0.796224
C24   C     C_R   0.127343 0.114120 0.099502 0.787944
V4    V     V_3+5 0.020980 1.000000 0.346670 1.621312
O20   O     O_3   0.950820 0.000000 0.048230 -0.331249
S1    S     S_3+6 0.894639 0.748694 0.196488 0.053294
O21   O     O_2   0.894411 0.812855 0.040587 -0.326383
O22   O     O_2   0.987518 0.747821 0.322330 -0.335456
O23   O     O_3   0.875054 0.655944 0.091283 -0.471867
H13   H     H_    0.860304 0.666595 0.949217 0.374143
S2    S     S_3+6 0.879882 0.244640 0.175475 0.009538
O24   O     O_2   0.976127 0.248203 0.286282 -0.350233
O25   O     O_2   0.873800 0.177977 0.024382 -0.329410
O26   O     O_3   0.854585 0.335128 0.063550 -0.506101
H14   H     H_    0.892845 0.337014 0.957318 0.361918
S3    S     S_3+6 0.652602 0.745120 0.060044 0.039799
O27   O     O_2   0.666246 0.676587 0.922228 -0.312522
O28   O     O_2   0.552026 0.750750 0.078998 -0.348913
O29   O     O_3   0.686205 0.833536 0.967253 -0.469500
H15   H     H_    0.674921 0.876206 0.062750 0.343185
S4    S     S_3+6 0.631348 0.239416 0.091614 0.057410
O30   O     O_2   0.653244 0.154430 0.027657 -0.313260
O31   O     O_2   0.534991 0.240128 0.140885 -0.330086
O32   O     O_3   0.637284 0.305395 0.907547 -0.478438
H16   H     H_    0.692059 0.287857 0.850441 0.355349

loop_
_geom_bond_atom_site_label_1
_geom_bond_atom_site_label_2
_ccdc_geom_bond_type
S2    O25   D    
O18   V4    S    
O12   V4    S    
C9    C11   D    
O1    C2    A    
H1    C11   S    
O2    C1    A    
S4    O32   S    
O4    C2    A    
C14   S2    S    
O17   V4    S    
C17   C19   D    
V3    O20   S    
O17   V3    S    
O14   V3    S    
C5    H7    S    
O16   V3    S    
C6    H8    S    
C14   C18   S    
C7    C11   S    
C4    C5    S    
C15   H9    S    
C2    C20   S    
O3    C1    A    
S2    O26   S    
O15   V3    S    
S1    O22   D    
O8    V2    S    
H4    C8    S    
H2    C12   S    
O7    V1    S    
C18   C20   D    
S2    O24   D    
V4    O20   S    
C19   H11   S    
S1    O21   D    
C20   H12   S    
C5    C7    D    
O29   H15   S    
S4    O30   D    
C9    C23   S    
S3    O28   D    
O13   C21   A    
O11   C22   A    
O12   C21   A    
O15   C24   A    
C18   S4    S    
S1    O23   S    
H3    C7    S    
O9    V2    S    
C13   C17   S    
O2    V2    S    
O5    C4    A    
C16   C21   S    
O13   V3    S    
O1    V2    S    
O9    C4    A    
O18   C23   A    
C6    C8    D    
O4    V1    S    
O11   V4    S    
O16   C23   A    
S4    O31   D    
O6    V1    S    
S3    O29   S    
C10   C24   S    
H5    C9    S    
H6    C10   S    
O19   V4    S    
O23   H13   S    
C16   H10   S    
O7    V2    S    
O5    V1    S    
O3    V1    S    
V1    O10   S    
O6    C3    A    
O8    C3    A    
C10   C12   D    
C13   C15   D    
O19   C24   A    
C3    C6    S    
C14   C16   D    
C1    C19   S    
O26   H14   S    
C8    C12   S    
O32   H16   S    
O14   C22   A    
S3    O27   D    
C13   S1    S    
C15   C22   S    
C17   S3    S    
V2    O10   S    
