data_mof_unit_58555.cif
_audit_creation_date              2012-12-10T17:13:35-0500
_audit_creation_method            fapswitch 2.2
_symmetry_space_group_name_H-M    P1
_symmetry_Int_Tables_number       1
_space_group_crystal_system       triclinic
_cell_length_a                    10.770062
_cell_length_b                    12.990189
_cell_length_c                    11.665091
_cell_angle_alpha                 100.319773
_cell_angle_beta                  93.845553
_cell_angle_gamma                 90.802598
_cell_volume                      1601.42759467

loop_
_atom_site_label
_atom_site_type_symbol
_atom_type_description
_atom_site_fract_x
_atom_site_fract_y
_atom_site_fract_z
_atom_type_partial_charge
C1    C     C_R   0.499831 0.298975 0.478266 0.800278
C2    C     C_3   0.877016 0.490225 0.495298 0.047170
C3    C     C_3   0.925891 0.602709 0.490024 -0.468334
C4    C     C_3   0.922207 0.409814 0.389309 -0.240624
C5    C     C_R   0.511673 0.815095 0.535789 -0.140156
C6    C     C_R   0.500224 0.185455 0.465786 -0.039654
C7    C     C_R   0.458723 0.013723 0.348482 -0.195783
C8    C     C_R   0.468539 0.121616 0.357284 -0.195386
C9    C     C_R   0.530663 0.140365 0.563997 -0.229106
C10   C     C_R   0.525717 0.032273 0.554888 0.111685
C11   C     C_R   0.486816 0.968641 0.446969 0.177098
C12   C     C_R   0.259812 0.499350 0.500005 0.804652
C13   C     C_R   0.478708 0.860851 0.438541 -0.318546
C14   C     C_R   0.552903 0.878364 0.643550 0.435983
C15   C     C_R   0.560303 0.987053 0.651773 -0.307089
C16   C     C_R   0.379937 0.404681 0.019902 -0.429642
C17   C     C_R   0.391601 0.410768 0.143320 0.701828
C18   C     C_R   0.552351 0.541553 0.157695 -0.033474
C19   C     C_R   0.544478 0.535090 0.034745 0.074535
C20   C     C_R   0.456618 0.465998 0.965520 0.010446
C21   C     C_R   0.447155 0.459707 0.842661 0.053758
C22   C     C_R   0.610007 0.586358 0.856515 0.073639
C23   C     C_R   0.504648 0.701156 0.521996 0.854586
C24   C     C_R   0.621785 0.595766 0.979042 -0.310094
C25   C     C_R   0.739492 0.492410 0.498331 0.783009
C26   C     C_3   0.078017 0.444851 0.600919 -0.148964
C27   C     C_3   0.935729 0.456357 0.608182 -0.420983
C28   C     C_3   0.070743 0.614161 0.520724 0.410837
C29   C     C_3   0.062903 0.432418 0.378806 -0.278091
C30   C     C_3   0.121294 0.498459 0.498602 -0.042893
Cu1   Cu    Cu3+1 0.509350 0.507730 0.615930 0.958870
Cu2   Cu    Cu3+1 0.490650 0.492270 0.384070 0.995114
H1    H     H_    0.123629 0.484146 0.686231 0.186701
H2    H     H_    0.903927 0.616116 0.399226 0.153100
H3    H     H_    0.447655 0.812521 0.355511 0.185404
H4    H     H_    0.429843 0.965626 0.264986 0.144963
H5    H     H_    0.595581 0.035673 0.733222 0.146526
H6    H     H_    0.450443 0.154991 0.279695 0.149996
H7    H     H_    0.558460 0.189202 0.647581 0.152004
H8    H     H_    0.379270 0.406700 0.788797 0.124708
H9    H     H_    0.670331 0.633133 0.814484 0.145707
H10   H     H_    0.311669 0.353124 0.965249 0.151686
H11   H     H_    0.690923 0.649806 0.029589 0.141829
H12   H     H_    0.619292 0.595225 0.211858 0.142965
H13   H     H_    0.890548 0.382082 0.621511 0.165074
H14   H     H_    0.917992 0.516447 0.685766 0.189237
H15   H     H_    0.870876 0.662427 0.542514 0.149523
H16   H     H_    0.109375 0.355730 0.361768 0.159150
H17   H     H_    0.913019 0.330143 0.411103 0.138928
N1    N     N_R   0.523430 0.519360 0.790130 -0.186189
N2    N     N_R   0.476570 0.480640 0.209880 -0.211110
O1    O     O_R   0.506640 0.354460 0.582000 -0.598576
O2    O     O_R   0.490840 0.341410 0.386200 -0.559850
O3    O     O_R   0.325590 0.506510 0.597900 -0.579864
O4    O     O_R   0.309790 0.493450 0.402100 -0.542426
O5    O     O_R   0.509160 0.658590 0.613800 -0.549384
O6    O     O_R   0.493360 0.645540 0.418000 -0.596822
O7    O     O_R   0.690210 0.506550 0.597900 -0.598142
O8    O     O_R   0.674410 0.493490 0.402100 -0.584031
C31   C     C_1   0.848335 0.401360 0.275705 0.266865
N3    N     N_1   0.791570 0.394041 0.186645 -0.286860
C32   C     C_1   0.127192 0.679301 0.444600 0.190074
N4    N     N_1   0.171498 0.730542 0.385789 -0.291315
O9    O     O_3   0.601992 0.833278 0.735013 -0.621284
C33   C     C_3   0.531529 0.858155 0.834014 0.061269
H18   H     H_    0.475592 0.787408 0.841511 0.179243
H19   H     H_    0.465161 0.923039 0.830641 0.122997
C34   C     C_3   0.621030 0.887667 0.942691 -0.336683
H20   H     H_    0.688577 0.824291 0.946584 0.217419
H21   H     H_    0.673955 0.960495 0.937160 0.217265
C35   C     C_3   0.551725 0.905095 0.054017 -0.945053
H22   H     H_    0.484994 0.969424 0.052860 0.250935
H23   H     H_    0.619447 0.926898 0.130965 0.263203
H24   H     H_    0.500451 0.832357 0.062627 0.259859
C36   C     C_1   0.113143 0.333840 0.588116 0.187628
N5    N     N_1   0.140869 0.247100 0.578120 -0.293793
O10   O     O_3   0.313010 0.354355 0.201397 -0.589793
C37   C     C_3   0.272267 0.255169 0.136739 -0.009493
H25   H     H_    0.269027 0.200183 0.199047 0.163437
H26   H     H_    0.338082 0.220825 0.071336 0.127775
C38   C     C_3   0.138814 0.259074 0.082573 -0.332536
H27   H     H_    0.073090 0.268594 0.152907 0.215943
H28   H     H_    0.128015 0.326877 0.037255 0.231484
C39   C     C_3   0.102946 0.158802 0.995953 -0.918607
H29   H     H_    0.164436 0.149115 0.922211 0.258214
H30   H     H_    0.005214 0.162831 0.960430 0.263681
H31   H     H_    0.110862 0.089820 0.039918 0.253621
O11   O     O_3   0.110515 0.659930 0.639115 -0.625549
C40   C     C_3   0.037985 0.739908 0.699294 0.057241
H32   H     H_    0.084653 0.762321 0.788351 0.170026
H33   H     H_    0.944745 0.710324 0.715079 0.137893
C41   C     C_3   0.032644 0.839570 0.645312 -0.364578
H34   H     H_    0.128817 0.866311 0.633965 0.235517
H35   H     H_    0.979977 0.824074 0.558691 0.216639
C42   C     C_3   0.968469 0.927074 0.723211 -0.900526
H36   H     H_    0.871555 0.902453 0.734788 0.276365
H37   H     H_    0.965416 0.997843 0.682078 0.267084
H38   H     H_    0.020421 0.947449 0.810099 0.253180
C43   C     C_1   0.084634 0.483151 0.276878 0.334491
N6    N     N_1   0.101050 0.522264 0.197262 -0.279052

loop_
_geom_bond_atom_site_label_1
_geom_bond_atom_site_label_2
_ccdc_geom_bond_type
C7    H4    S    
C42   H36   S    
C39   H31   S    
Cu1   O1    S    
C17   N2    A    
C6    C9    A    
C38   H27   S    
C42   H38   S    
C7    C8    A    
O10   C37   S    
C7    C11   A    
C26   C27   S    
C32   N4    T    
Cu1   O7    S    
C3    C28   S    
C39   H30   S    
C13   H3    S    
C10   C15   A    
C37   H26   S    
C22   H9    S    
C9    H7    S    
C18   C19   A    
C1    O2    A    
C15   H5    S    
C43   N6    T    
C34   H20   S    
C33   H19   S    
C28   O11   S    
C2    C27   S    
Cu1   O5    S    
C40   H33   S    
C9    C10   A    
Cu2   O4    S    
C5    C13   A    
C4    C29   S    
C22   N1    A    
C27   H13   S    
C8    H6    S    
Cu2   O6    S    
C17   O10   S    
C21   N1    A    
C38   H28   S    
C18   N2    A    
C29   C43   S    
C29   H16   S    
C1    C6    S    
C23   O5    A    
C39   H29   S    
C35   H23   S    
C37   H25   S    
C16   C17   A    
C6    C8    A    
C3    H2    S    
C41   C42   S    
C31   N3    T    
C2    C4    S    
C36   N5    T    
Cu2   N2    S    
C29   C30   S    
C18   H12   S    
C26   H1    S    
Cu1   Cu2   S    
C5    C23   S    
C16   C20   A    
C33   C34   S    
C14   O9    S    
C4    C31   S    
C41   H35   S    
C26   C36   S    
O11   C40   S    
C40   C41   S    
C5    C14   A    
C27   H14   S    
C26   C30   S    
C22   C24   A    
C25   O7    A    
Cu1   N1    S    
C16   H10   S    
Cu2   O2    S    
C38   C39   S    
C23   O6    A    
C12   C30   S    
C35   H24   S    
C42   H37   S    
C4    H17   S    
O9    C33   S    
C19   C20   A    
C28   C30   S    
C2    C3    S    
C35   H22   S    
C11   C13   A    
C37   C38   S    
C21   H8    S    
C34   C35   S    
C3    H15   S    
C41   H34   S    
C19   C24   A    
C2    C25   S    
Cu1   O3    S    
C1    O1    A    
C12   O4    A    
C10   C11   A    
C20   C21   A    
C34   H21   S    
C33   H18   S    
C24   H11   S    
C14   C15   A    
C25   O8    A    
Cu2   O8    S    
C40   H32   S    
C12   O3    A    
C28   C32   S    
