data_mof_unit_56180.cif
_audit_creation_date              2012-12-11T15:49:06-0500
_audit_creation_method            fapswitch 2.2
_symmetry_space_group_name_H-M    P1
_symmetry_Int_Tables_number       1
_space_group_crystal_system       triclinic
_cell_length_a                    21.625017
_cell_length_b                    7.180522
_cell_length_c                    14.88827
_cell_angle_alpha                 89.971699
_cell_angle_beta                  106.499727
_cell_angle_gamma                 90.020892
_cell_volume                      2216.63518839

loop_
_atom_site_label
_atom_site_type_symbol
_atom_type_description
_atom_site_fract_x
_atom_site_fract_y
_atom_site_fract_z
_atom_type_partial_charge
O1    O     O_R   0.335860 0.638190 0.002110 -0.542065
O2    O     O_R   0.664140 0.361810 0.997890 -0.542268
O3    O     O_R   0.164140 0.138190 0.997890 -0.542207
O4    O     O_R   0.835860 0.861810 0.002110 -0.542421
O5    O     O_R   0.217530 0.305920 0.861960 -0.535455
O6    O     O_R   0.782470 0.694080 0.138040 -0.534997
O7    O     O_R   0.282470 0.805920 0.138040 -0.535803
O8    O     O_R   0.717530 0.194080 0.861960 -0.535371
C1    C     C_R   0.205678 0.476897 0.825800 0.701025
C2    C     C_R   0.794409 0.523317 0.174197 0.701777
C3    C     C_R   0.294171 0.976713 0.174178 0.701616
C4    C     C_R   0.705754 0.023255 0.825820 0.701817
O9    O     O_R   0.338690 0.308320 0.993240 -0.544421
O10   O     O_R   0.661310 0.691680 0.006760 -0.544186
O11   O     O_R   0.161310 0.808320 0.006760 -0.544308
O12   O     O_R   0.838690 0.191680 0.993240 -0.544185
O13   O     O_R   0.286170 0.140430 0.130100 -0.534765
O14   O     O_R   0.713830 0.859570 0.869900 -0.535244
O15   O     O_R   0.213830 0.640430 0.869900 -0.535151
O16   O     O_R   0.786170 0.359570 0.130100 -0.535342
C5    C     C_R   0.364975 0.477253 0.997804 0.675186
C6    C     C_R   0.635025 0.522747 0.002199 0.675251
C7    C     C_R   0.135022 0.977213 0.002194 0.675079
C8    C     C_R   0.864978 0.022782 0.997802 0.675061
O17   O     O_3   0.232630 0.472410 0.044750 -0.374530
O18   O     O_3   0.767370 0.527590 0.955250 -0.374679
O19   O     O_3   0.267370 0.972410 0.955250 -0.374647
O20   O     O_3   0.732630 0.027590 0.044750 -0.374594
V1    V     V_3+5 0.253220 0.196620 0.991700 1.442059
V2    V     V_3+5 0.746780 0.803380 0.008300 1.442159
V3    V     V_3+5 0.246780 0.696620 0.008300 1.441887
V4    V     V_3+5 0.753220 0.303380 0.991700 1.442297
C9    C     C_R   0.030032 0.826342 0.004402 -0.146326
C10   C     C_R   0.969966 0.173637 0.995587 -0.146371
C11   C     C_R   0.469992 0.326348 0.995962 -0.147351
C12   C     C_R   0.530010 0.673652 0.004047 -0.146687
H1    H     H_    0.051953 0.690004 0.007656 0.121572
H2    H     H_    0.948045 0.309976 0.992331 0.121570
H3    H     H_    0.448092 0.189995 0.993008 0.121502
H4    H     H_    0.551910 0.810005 0.007002 0.121488
C13   C     C_R   0.965062 0.837735 0.002805 -0.140570
C14   C     C_R   0.034936 0.162244 0.997187 -0.140221
C15   C     C_R   0.534965 0.337698 0.997566 -0.139802
C16   C     C_R   0.465037 0.662301 0.002445 -0.139209
H5    H     H_    0.939257 0.709404 0.005169 0.122939
H6    H     H_    0.060741 0.290577 0.994825 0.122953
H7    H     H_    0.560795 0.209341 0.995507 0.123051
H8    H     H_    0.439207 0.790659 0.004505 0.122963
C17   C     C_R   0.934015 0.011573 0.998351 -0.041589
C18   C     C_R   0.065983 0.988409 0.001641 -0.041515
C19   C     C_R   0.565987 0.511538 0.001653 -0.041773
C20   C     C_R   0.434014 0.488462 0.998355 -0.041713
C21   C     C_R   0.678023 0.015302 0.724277 -0.067212
C22   C     C_R   0.322001 0.984190 0.275690 -0.066234
C23   C     C_R   0.822289 0.516939 0.275825 -0.068626
C24   C     C_R   0.177839 0.486772 0.724240 -0.067893
C25   C     C_R   0.691420 0.006444 0.568009 0.395849
C26   C     C_R   0.308884 0.990711 0.432125 0.385999
C27   C     C_R   0.808868 0.513292 0.432121 0.399849
C28   C     C_R   0.190985 0.494602 0.567821 0.388167
C29   C     C_R   0.717859 0.007159 0.665760 -0.228443
C30   C     C_R   0.282294 0.992050 0.334404 -0.228761
C31   C     C_R   0.782513 0.509471 0.334392 -0.227834
C32   C     C_R   0.217313 0.478624 0.665243 -0.229914
C33   C     C_R   0.611305 0.014520 0.686701 -0.194491
C34   C     C_R   0.388723 0.983170 0.313053 -0.193547
C35   C     C_R   0.888973 0.523893 0.313472 -0.192604
C36   C     C_R   0.111361 0.504369 0.687170 -0.190774
C37   C     C_R   0.582269 0.007615 0.588811 0.004736
C38   C     C_R   0.417924 0.987454 0.410941 0.005733
C39   C     C_R   0.917977 0.533130 0.411411 0.004760
C40   C     C_R   0.082354 0.522235 0.589555 0.005161
C41   C     C_R   0.623301 0.016976 0.528856 -0.009800
C42   C     C_R   0.376966 0.977538 0.470980 -0.008660
C43   C     C_R   0.876755 0.533329 0.471307 -0.010259
C44   C     C_R   0.123506 0.525092 0.529586 -0.008974
C45   C     C_R   0.513760 0.993757 0.549290 0.006819
C46   C     C_R   0.486480 0.999708 0.450401 0.006673
C47   C     C_R   0.986666 0.539356 0.451138 0.006423
C48   C     C_R   0.013730 0.534052 0.550102 0.006455
C49   C     C_R   0.528392 0.024454 0.393932 -0.198908
C50   C     C_R   0.471926 0.967000 0.605723 -0.198118
C51   C     C_R   0.971358 0.543801 0.606657 -0.198103
C52   C     C_R   0.029113 0.555063 0.394918 -0.197119
C53   C     C_R   0.594908 0.035392 0.431249 0.358921
C54   C     C_R   0.405395 0.956011 0.568402 0.358025
C55   C     C_R   0.904803 0.550494 0.569068 0.357077
C56   C     C_R   0.095726 0.554963 0.432573 0.359411
H9    H     H_    0.416202 0.974582 0.263156 0.102597
H10   H     H_    0.583626 0.023942 0.736337 0.103224
H11   H     H_    0.083962 0.500633 0.737233 0.101937
H12   H     H_    0.916531 0.520467 0.263595 0.102739
H13   H     H_    0.230471 0.998573 0.303904 0.112368
H14   H     H_    0.769682 0.001764 0.696449 0.110846
H15   H     H_    0.268769 0.459068 0.695298 0.114030
H16   H     H_    0.730778 0.499251 0.303729 0.111021
H17   H     H_    0.511096 0.043951 0.319311 0.146403
H18   H     H_    0.489389 0.945255 0.680197 0.146501
H19   H     H_    0.988163 0.555646 0.681690 0.146051
H20   H     H_    0.012329 0.577344 0.320457 0.146158
O21   O     O_3   0.630193 0.072456 0.369461 -0.619739
H21   H     H_    0.660192 0.175495 0.396568 0.317483
O22   O     O_3   0.370149 0.915505 0.629860 -0.620757
H22   H     H_    0.339480 0.814896 0.601194 0.319785
O23   O     O_3   0.868949 0.577566 0.631038 -0.619392
H23   H     H_    0.838065 0.679428 0.605365 0.318620
O24   O     O_3   0.131908 0.589017 0.371631 -0.620195
H24   H     H_    0.164854 0.683205 0.401543 0.318413
O25   O     O_3   0.731249 0.987702 0.510486 -0.626018
H25   H     H_    0.776897 0.984291 0.549132 0.294227
O26   O     O_3   0.269298 0.010222 0.489966 -0.628473
H26   H     H_    0.223736 0.019842 0.451410 0.299979
O27   O     O_3   0.769212 0.490561 0.489643 -0.625493
H27   H     H_    0.723727 0.479925 0.450930 0.294337
O28   O     O_3   0.230056 0.472406 0.509411 -0.627366
H28   H     H_    0.275199 0.450894 0.547504 0.303444

loop_
_geom_bond_atom_site_label_1
_geom_bond_atom_site_label_2
_ccdc_geom_bond_type
O17   V3    S    
C51   C55   A    
C26   C30   A    
O21   H21   S    
O19   V1    S    
O13   V1    S    
C37   C45   A    
O26   H26   S    
C10   C14   A    
C40   C44   A    
O15   V3    S    
C11   C15   A    
C39   C47   A    
C45   C46   A    
O1    C5    A    
O9    V1    S    
C47   C52   A    
O4    C8    A    
C38   C46   A    
O28   H28   S    
O1    V3    S    
C36   H11   S    
O2    V4    S    
C14   H6    S    
C25   C41   A    
O3    V1    S    
O3    C7    A    
C38   C42   A    
C21   C29   A    
C1    O15   A    
C25   O25   S    
C2    O16   A    
C23   C31   A    
O2    C6    A    
O24   H24   S    
C24   C32   A    
C37   C41   A    
O14   V2    S    
C21   C33   A    
C44   C56   A    
C4    C21   S    
O8    C4    A    
C16   C20   A    
O11   C7    A    
O12   C8    A    
C51   H19   S    
C50   H18   S    
O10   V2    S    
C48   C51   A    
C54   O22   S    
C13   C17   A    
O7    C3    A    
C34   H9    S    
O5    V1    S    
C33   H10   S    
O7    V3    S    
C26   O26   S    
O8    V4    S    
C12   H4    S    
C56   O24   S    
C29   H14   S    
C7    C18   S    
C22   C30   A    
C9    C18   A    
C50   C54   A    
C31   H16   S    
C28   C44   A    
C9    H1    S    
C36   C40   A    
C52   H20   S    
C11   H3    S    
O5    C1    A    
C55   O23   S    
C27   O27   S    
O9    C5    A    
C1    C24   S    
C42   C54   A    
C25   C29   A    
C2    C23   S    
C3    C22   S    
C41   C53   A    
C12   C19   A    
C14   C18   A    
C43   C55   A    
O6    V2    S    
C12   C16   A    
C27   C43   A    
O22   H22   S    
C53   O21   S    
C26   C42   A    
O27   H27   S    
O16   V4    S    
C8    C17   S    
C3    O13   A    
C10   C17   A    
C10   H2    S    
C52   C56   A    
C32   H15   S    
O6    C2    A    
C23   C35   A    
O11   V3    S    
C22   C34   A    
O12   V4    S    
O23   H23   S    
C27   C31   A    
C28   C32   A    
C9    C13   A    
O10   C6    A    
O20   V2    S    
C40   C48   A    
C24   C36   A    
O25   H25   S    
C39   C43   A    
C46   C49   A    
C15   C19   A    
C34   C38   A    
C49   H17   S    
C45   C50   A    
C33   C37   A    
C35   H12   S    
C35   C39   A    
C5    C20   S    
C49   C53   A    
C47   C48   A    
C30   H13   S    
C4    O14   A    
C11   C20   A    
C13   H5    S    
C28   O28   S    
C15   H7    S    
O18   V4    S    
O4    V2    S    
C16   H8    S    
C6    C19   S    
