data_mof_unit_8349.cif
_audit_creation_date              2012-12-11T17:00:23-0500
_audit_creation_method            fapswitch 2.2
_symmetry_space_group_name_H-M    P1
_symmetry_Int_Tables_number       1
_space_group_crystal_system       triclinic
_cell_length_a                    6.959688
_cell_length_b                    13.650924
_cell_length_c                    20.308081
_cell_angle_alpha                 103.366698
_cell_angle_beta                  90.733347
_cell_angle_gamma                 89.908012
_cell_volume                      1876.97100211

loop_
_atom_site_label
_atom_site_type_symbol
_atom_type_description
_atom_site_fract_x
_atom_site_fract_y
_atom_site_fract_z
_atom_type_partial_charge
O1    O     O_R   0.506770 0.599700 0.449550 -0.539140
O2    O     O_R   0.179980 0.595740 0.587960 -0.545642
O3    O     O_R   0.004580 0.400300 0.550450 -0.538978
C1    C     C_R   0.348496 0.616557 0.615467 0.692774
O4    O     O_R   0.177380 0.611700 0.452380 -0.544232
O5    O     O_R   0.001970 0.416370 0.413900 -0.542116
C2    C     C_R   0.345039 0.637870 0.436115 0.697270
O6    O     O_R   0.509390 0.583630 0.586100 -0.539054
O7    O     O_3   0.337530 0.435890 0.487530 -0.371015
V1    V     V_3+5 0.064660 0.511890 0.502310 1.409551
O8    O     O_R   0.671950 0.404260 0.412040 -0.541605
C3    C     C_R   0.839993 0.383632 0.384512 0.692134
O9    O     O_R   0.674540 0.388300 0.547620 -0.541100
C4    C     C_R   0.844265 0.362625 0.564915 0.693323
V2    V     V_3+5 0.564030 0.488110 0.497690 1.413680
O10   O     O_3   0.841030 0.564110 0.512470 -0.371532
C5    C     C_R   0.922542 0.114634 0.611216 -0.161152
H1    H     H_    0.916469 0.164569 0.518526 0.103514
H2    H     H_    0.965060 0.991302 0.693768 0.124232
H3    H     H_    0.955492 0.037774 0.585513 0.113041
C6    C     C_R   0.857182 0.285919 0.604664 -0.030479
C7    C     C_R   0.814282 0.313615 0.930298 -0.166588
C8    C     C_R   0.791765 0.389014 0.895147 -0.120844
C9    C     C_R   0.807742 0.367216 0.824921 -0.158512
C10   C     C_R   0.848239 0.268264 0.787689 0.077890
C11   C     C_R   0.874604 0.191563 0.824331 0.069485
C12   C     C_R   0.862981 0.242803 0.715475 0.073224
C13   C     C_R   0.905411 0.141722 0.681931 0.142179
C14   C     C_R   0.932051 0.068371 0.719054 -0.206327
C15   C     C_R   0.917350 0.092795 0.789035 -0.199804
C16   C     C_R   0.838040 0.313976 0.675115 -0.216678
C17   C     C_R   0.899797 0.186435 0.572932 -0.172740
C18   C     C_R   0.855866 0.215129 0.895760 -0.075872
H4    H     H_    0.806650 0.392047 0.696652 0.089633
H5    H     H_    0.787277 0.429654 0.801477 0.104100
H6    H     H_    0.760120 0.465119 0.922539 0.115739
H7    H     H_    0.940780 0.033393 0.815431 0.116564
C19   C     C_R   0.711004 0.183487 0.226559 0.076857
C20   C     C_R   0.866584 0.185339 0.183781 -0.105923
C21   C     C_R   0.020916 0.249593 0.210255 -0.177135
H8    H     H_    0.143032 0.254679 0.178981 0.134072
C22   C     C_R   0.013134 0.313086 0.275699 -0.178026
H9    H     H_    0.130032 0.365078 0.292969 0.126400
C23   C     C_R   0.850583 0.314279 0.316651 -0.108157
C24   C     C_R   0.703405 0.245743 0.291324 0.102441
C25   C     C_3   0.494133 0.264566 0.284353 -0.401344
C26   C     C_3   0.502522 0.196380 0.213860 -0.408687
H10   H     H_    0.463937 0.344512 0.284226 0.164938
H11   H     H_    0.407137 0.232784 0.319991 0.174795
H12   H     H_    0.420221 0.125274 0.208912 0.168578
C27   C     C_R   0.503545 0.753438 0.705018 0.097426
C28   C     C_R   0.352007 0.686292 0.683314 -0.111277
C29   C     C_R   0.194392 0.691299 0.727042 -0.170166
H13   H     H_    0.074218 0.640628 0.712372 0.129288
C30   C     C_R   0.195965 0.756566 0.791927 -0.189131
H14   H     H_    0.077829 0.754286 0.825519 0.131002
C31   C     C_R   0.355631 0.818365 0.815124 -0.115226
C32   C     C_R   0.505741 0.817447 0.769481 0.118543
C33   C     C_3   0.714834 0.800462 0.778721 -0.406670
C34   C     C_3   0.712208 0.731279 0.708513 -0.410456
H15   H     H_    0.800883 0.869779 0.781894 0.169570
H16   H     H_    0.739136 0.651009 0.708615 0.164240
H17   H     H_    0.795894 0.761013 0.671099 0.174873
C35   C     C_R   0.449311 0.883269 0.394572 -0.154239
H18   H     H_    0.442445 0.830768 0.485960 0.103957
H19   H     H_    0.576120 0.989132 0.313681 0.120775
H20   H     H_    0.506046 0.956147 0.420437 0.113077
C36   C     C_R   0.352650 0.716211 0.398967 -0.028582
C37   C     C_R   0.260803 0.701821 0.077238 -0.158494
C38   C     C_R   0.197630 0.633976 0.113532 -0.130070
C39   C     C_R   0.224088 0.653968 0.183239 -0.161851
C40   C     C_R   0.324267 0.740820 0.218362 0.050036
C41   C     C_R   0.400240 0.808323 0.180709 0.046395
C42   C     C_R   0.350858 0.762727 0.290127 0.069609
C43   C     C_R   0.427198 0.857467 0.323938 0.117639
C44   C     C_R   0.502579 0.921141 0.286967 -0.233739
C45   C     C_R   0.515027 0.890321 0.216821 0.069605
C46   C     C_R   0.314171 0.692179 0.329370 -0.213700
C47   C     C_R   0.414076 0.812289 0.431895 -0.174055
C48   C     C_R   0.357268 0.790204 0.109482 -0.095637
H21   H     H_    0.226391 0.687392 0.023634 0.108472
H22   H     H_    0.159473 0.601325 0.208591 0.110365
O11   O     O_R   0.203450 0.916320 0.913910 -0.540848
O12   O     O_R   0.535520 0.888300 0.047620 -0.543011
O13   O     O_R   0.710860 0.083650 0.086100 -0.546310
C49   C     C_R   0.368854 0.868270 0.069737 0.683906
O14   O     O_R   0.532860 0.904250 0.912040 -0.539663
O15   O     O_R   0.708190 0.099710 0.949550 -0.535605
C50   C     C_R   0.364008 0.883075 0.884657 0.706351
O16   O     O_R   0.206120 0.900260 0.050460 -0.543836
O17   O     O_3   0.375280 0.064080 0.012470 -0.370687
V3    V     V_3+5 0.648180 0.988110 0.997690 1.396052
O18   O     O_R   0.038220 0.111740 0.952370 -0.540028
C51   C     C_R   0.868527 0.137463 0.935133 0.691317
O19   O     O_R   0.040880 0.095790 0.087940 -0.544593
C52   C     C_R   0.872747 0.118761 0.114724 0.683242
V4    V     V_3+5 0.148800 0.011950 0.002300 1.397271
O20   O     O_3   0.871820 0.935920 0.987530 -0.370882
H23   H     H_    0.477121 0.236512 0.172745 0.172198
H24   H     H_    0.743055 0.760315 0.819647 0.168878
H25   H     H_    0.270472 0.615846 0.306800 0.090719
H26   H     H_    0.119545 0.567272 0.087758 0.118259
C53   C     C_3   0.680610 0.934047 0.186570 -0.364180
C54   C     C_3   0.825590 0.853611 0.154095 -0.651838
H27   H     H_    0.885874 0.816115 0.192846 0.216064
H28   H     H_    0.760011 0.795513 0.112661 0.225140
H29   H     H_    0.944859 0.890102 0.133265 0.218654
H30   H     H_    0.623548 0.977808 0.152560 0.202162
H31   H     H_    0.762893 0.988874 0.225701 0.165411
H32   H     H_    0.798542 0.332051 0.984800 0.100548

loop_
_geom_bond_atom_site_label_1
_geom_bond_atom_site_label_2
_ccdc_geom_bond_type
C30   H14   S    
O18   C51   A    
H18   C47   S    
O19   C52   A    
C1    O6    A    
C18   C51   S    
C54   H28   S    
V4    O20   S    
V3    O20   S    
C29   H13   S    
C28   C29   A    
C6    C16   A    
C25   H11   S    
C31   C50   S    
C1    C28   S    
C34   H17   S    
C4    C6    S    
C13   C14   A    
O12   C49   A    
O5    C3    A    
C19   C20   A    
O13   C52   A    
V2    O10   S    
C5    H3    S    
C26   H23   S    
C34   H16   S    
C19   C24   A    
C48   C49   S    
C2    C36   S    
O8    V2    S    
C41   C48   A    
O15   V3    S    
C7    H32   S    
C8    C9    A    
C38   C39   A    
O1    V2    S    
O7    V1    S    
O16   V4    S    
C39   H22   S    
C36   C47   A    
C21   C22   A    
C33   C34   S    
O9    C4    A    
C46   H25   S    
C33   H24   S    
C22   C23   A    
C54   H27   S    
O13   V3    S    
C26   H12   S    
C25   H10   S    
C29   C30   A    
C36   C46   A    
O11   C50   A    
C6    C17   A    
O15   C51   A    
C33   H15   S    
C9    H5    S    
C42   C43   A    
C12   C16   A    
C27   C28   A    
C35   H20   S    
C9    C10   A    
C40   C42   A    
C49   O16   A    
O17   V3    S    
O4    C2    A    
C10   C11   A    
C24   C25   S    
O17   V4    S    
C15   H7    S    
O2    C1    A    
C43   C44   A    
C14   C15   A    
C11   C18   A    
O9    V2    S    
H19   C44   S    
O19   V4    S    
C16   H4    S    
C27   C32   A    
C44   C45   A    
C19   C26   S    
C53   H30   S    
O3    C4    A    
C21   H8    S    
C11   C15   A    
O6    V2    S    
C30   C31   A    
O11   V4    S    
C35   C47   A    
C45   C53   S    
H1    C17   S    
C22   H9    S    
O2    V1    S    
O18   V4    S    
C20   C21   A    
C23   C24   A    
C7    C18   A    
C25   C26   S    
O1    C2    A    
C5    C13   A    
C40   C41   A    
O5    V1    S    
O8    C3    A    
C38   H26   S    
C10   C12   A    
C53   H31   S    
O14   C50   A    
C32   C33   S    
O4    V1    S    
C3    C23   S    
O3    V1    S    
V1    O10   S    
C31   C32   A    
C35   C43   A    
O7    V2    S    
C37   C38   A    
C20   C52   S    
C37   H21   S    
C39   C40   A    
C8    H6    S    
C42   C46   A    
C53   C54   S    
C5    C17   A    
C41   C45   A    
C7    C8    A    
C37   C48   A    
C27   C34   S    
O12   V3    S    
O14   V3    S    
C54   H29   S    
C12   C13   A    
H2    C14   S    
