data_mof_unit_43755.cif
_audit_creation_date              2012-12-11T16:28:09-0500
_audit_creation_method            fapswitch 2.2
_symmetry_space_group_name_H-M    P1
_symmetry_Int_Tables_number       1
_space_group_crystal_system       triclinic
_cell_length_a                    30.555944
_cell_length_b                    22.535345
_cell_length_c                    18.125383
_cell_angle_alpha                 89.999873
_cell_angle_beta                  122.991695
_cell_angle_gamma                 90.000415
_cell_volume                      10468.377742

loop_
_atom_site_label
_atom_site_type_symbol
_atom_type_description
_atom_site_fract_x
_atom_site_fract_y
_atom_site_fract_z
_atom_type_partial_charge
Br1   Br    Br    0.484153 0.641359 0.727359 -0.639940
Br2   Br    Br    0.489245 0.463487 0.201903 -0.587483
Br3   Br    Br    0.515849 0.641384 0.272665 -0.639931
Br4   Br    Br    0.510754 0.463494 0.798093 -0.587458
Br5   Br    Br    0.984152 0.141361 0.727356 -0.639938
Br6   Br    Br    0.989242 0.963497 0.201902 -0.587449
Br7   Br    Br    0.015851 0.141372 0.272658 -0.639941
Br8   Br    Br    0.010758 0.963499 0.798096 -0.587472
C1    C     C_R   0.537270 0.604372 0.718134 0.339062
C2    C     C_R   0.663566 0.306822 0.442506 -0.287102
C3    C     C_R   0.738583 0.772663 0.847396 -0.285263
C4    C     C_R   0.284969 0.857272 0.000950 -0.293980
C5    C     C_R   0.761415 0.272655 0.152590 -0.285474
C6    C     C_R   0.715011 0.857321 0.998963 -0.293949
C7    C     C_R   0.238585 0.272657 0.847398 -0.285350
C8    C     C_R   0.827997 0.327912 0.010769 0.157393
C9    C     C_R   0.209308 0.785821 0.119685 0.151887
C10   C     C_R   0.171997 0.327927 0.989204 0.157397
C11   C     C_R   0.790706 0.785811 0.880326 0.151799
C12   C     C_R   0.327968 0.827854 0.010675 0.157418
C13   C     C_R   0.683163 0.630101 0.417955 -0.268164
C14   C     C_R   0.709294 0.285803 0.119669 0.151889
C15   C     C_R   0.671999 0.827920 0.989215 0.157397
C16   C     C_R   0.290710 0.285795 0.880335 0.151819
C17   C     C_R   0.598779 0.569003 0.427164 0.272170
C18   C     C_R   0.420875 0.392163 0.572726 0.226399
C19   C     C_R   0.401220 0.569003 0.572833 0.272155
C20   C     C_R   0.579124 0.392162 0.427275 0.226384
C21   C     C_R   0.098780 0.069002 0.427166 0.272137
C22   C     C_R   0.920876 0.892162 0.572726 0.226377
C23   C     C_R   0.901220 0.069003 0.572834 0.272144
C24   C     C_R   0.336436 0.306820 0.557496 -0.287107
C25   C     C_R   0.079124 0.892162 0.427275 0.226377
C26   C     C_R   0.388290 0.600281 0.276345 0.152452
C27   C     C_R   0.616696 0.418127 0.744165 0.146814
C28   C     C_R   0.611708 0.600284 0.723649 0.152455
C29   C     C_R   0.383304 0.418125 0.255836 0.146819
C30   C     C_R   0.888291 0.100282 0.276348 0.152450
C31   C     C_R   0.116696 0.918127 0.744164 0.146822
C32   C     C_R   0.111708 0.100284 0.723649 0.152451
C33   C     C_R   0.883304 0.918126 0.255836 0.146816
C34   C     C_R   0.586344 0.630400 0.756161 -0.112316
C35   C     C_R   0.816839 0.130108 0.582041 -0.268206
C36   C     C_R   0.402540 0.410688 0.202082 -0.110085
C37   C     C_R   0.413654 0.630392 0.243829 -0.112324
C38   C     C_R   0.597460 0.410692 0.797920 -0.110075
C39   C     C_R   0.086344 0.130400 0.756160 -0.112316
C40   C     C_R   0.902539 0.910692 0.202081 -0.110092
C41   C     C_R   0.913655 0.130398 0.243835 -0.112319
C42   C     C_R   0.097462 0.910694 0.797921 -0.110069
C43   C     C_R   0.646566 0.586914 0.497925 -0.008115
C44   C     C_R   0.379116 0.365118 0.500422 -0.043764
C45   C     C_R   0.353435 0.586919 0.502072 -0.008113
C46   C     C_R   0.163575 0.806827 0.442521 -0.287116
C47   C     C_R   0.620885 0.365119 0.499579 -0.043759
C48   C     C_R   0.146566 0.086916 0.497927 -0.008062
C49   C     C_R   0.879119 0.865115 0.500422 -0.043750
C50   C     C_R   0.853435 0.086918 0.502073 -0.008105
C51   C     C_R   0.120882 0.865116 0.499579 -0.043806
C52   C     C_R   0.216325 0.625452 0.430935 -0.177252
C53   C     C_R   0.671791 0.209979 0.546056 -0.185019
C54   C     C_R   0.783678 0.625438 0.569055 -0.177231
C55   C     C_R   0.328214 0.209976 0.453951 -0.185022
C56   C     C_R   0.716325 0.125447 0.430941 -0.177252
C57   C     C_R   0.183161 0.130115 0.417963 -0.268252
C58   C     C_R   0.171784 0.709975 0.546047 -0.185034
C59   C     C_R   0.283677 0.125442 0.569059 -0.177249
C60   C     C_R   0.828215 0.709972 0.453944 -0.185028
C61   C     C_R   0.257254 0.598464 0.431100 -0.156587
C62   C     C_R   0.649448 0.262569 0.549938 -0.164123
C63   C     C_R   0.742748 0.598452 0.568891 -0.156599
C64   C     C_R   0.350556 0.262566 0.450067 -0.164101
C65   C     C_R   0.757255 0.098459 0.431106 -0.156592
C66   C     C_R   0.149440 0.762563 0.549929 -0.164114
C67   C     C_R   0.242746 0.098455 0.568893 -0.156575
C68   C     C_R   0.836436 0.806816 0.557490 -0.287119
C69   C     C_R   0.850559 0.762562 0.450064 -0.164099
C70   C     C_R   0.308181 0.603638 0.505184 0.142176
C71   C     C_R   0.646075 0.311047 0.498997 0.144207
C72   C     C_R   0.691819 0.603632 0.494811 0.142183
C73   C     C_R   0.353927 0.311045 0.501005 0.144216
C74   C     C_R   0.808182 0.103638 0.505186 0.142165
C75   C     C_R   0.146074 0.811045 0.498998 0.144234
C76   C     C_R   0.191818 0.103639 0.494815 0.142117
C77   C     C_R   0.853930 0.811040 0.501004 0.144224
C78   C     C_3   0.634339 0.491695 0.377217 -0.909939
C79   C     C_R   0.276099 0.656559 0.582917 0.165333
C80   C     C_3   0.478396 0.313890 0.666023 -0.926562
C81   C     C_3   0.365647 0.491692 0.622751 -0.909902
C82   C     C_3   0.521603 0.313887 0.333985 -0.926570
C83   C     C_3   0.134349 0.991694 0.377242 -0.909817
C84   C     C_3   0.978387 0.813888 0.666042 -0.926582
C85   C     C_3   0.865647 0.991692 0.622749 -0.909815
C86   C     C_3   0.021618 0.813890 0.333940 -0.926533
C87   C     C_3   0.307256 0.544231 0.204738 -0.944226
C88   C     C_3   0.670181 0.331715 0.768024 -0.944636
C89   C     C_3   0.692742 0.544233 0.795262 -0.944209
C90   C     C_R   0.686499 0.254742 0.438672 0.186721
C91   C     C_3   0.329811 0.331720 0.231970 -0.944635
C92   C     C_3   0.807258 0.044226 0.204738 -0.944217
C93   C     C_3   0.170175 0.831709 0.768016 -0.944617
C94   C     C_3   0.192741 0.044230 0.795262 -0.944202
C95   C     C_3   0.829816 0.831716 0.231972 -0.944630
C96   C     C_3   0.806049 0.246293 0.670232 -0.887444
C97   C     C_3   0.259734 0.773565 0.425661 -0.905806
C98   C     C_3   0.193952 0.246299 0.329777 -0.887422
C99   C     C_3   0.740292 0.773549 0.574387 -0.905803
C100  C     C_3   0.306050 0.746273 0.670260 -0.887453
C101  C     C_R   0.723901 0.656560 0.417082 0.165328
C102  C     C_3   0.759712 0.273559 0.425613 -0.905816
C103  C     C_3   0.693957 0.746286 0.329767 -0.887435
C104  C     C_3   0.240298 0.273553 0.574409 -0.905817
C105  C     C_3   0.894929 0.380706 0.005770 -0.907900
C106  C     C_3   0.163260 0.699084 0.119590 -0.936323
C107  C     C_3   0.105057 0.380709 0.994195 -0.907927
C108  C     C_3   0.836734 0.699040 0.880454 -0.936072
C109  C     C_3   0.394875 0.880605 0.005555 -0.907970
C110  C     C_3   0.663238 0.199051 0.119507 -0.936319
C111  C     C_3   0.605068 0.880706 0.994224 -0.907930
C112  C     C_R   0.453785 0.428956 0.252216 0.326381
C113  C     C_R   0.313505 0.254738 0.561334 0.186726
C114  C     C_3   0.336731 0.199012 0.880491 -0.936080
C115  C     C_R   0.776102 0.156568 0.582914 0.165337
C116  C     C_R   0.186510 0.754748 0.438688 0.186718
C117  C     C_R   0.223899 0.156572 0.417090 0.165357
C118  C     C_R   0.813503 0.754734 0.561324 0.186719
C119  C     C_R   0.226290 0.657845 0.504557 0.069900
C120  C     C_R   0.691272 0.206182 0.491914 0.066307
C121  C     C_R   0.773712 0.657839 0.495438 0.069895
C122  C     C_R   0.308733 0.206178 0.508092 0.066304
C123  C     C_R   0.726292 0.157847 0.504558 0.069904
C124  C     C_R   0.462729 0.604370 0.281862 0.339041
C125  C     C_R   0.191274 0.706183 0.491917 0.066316
C126  C     C_R   0.273711 0.157845 0.495445 0.069890
C127  C     C_R   0.808732 0.706174 0.508083 0.066300
C128  C     C_R   0.392407 0.681749 0.183086 0.174157
C129  C     C_R   0.625461 0.389117 0.890050 0.180512
C130  C     C_R   0.607588 0.681769 0.816885 0.174123
C131  C     C_R   0.374542 0.389107 0.109956 0.180517
C132  C     C_R   0.892412 0.181766 0.183110 0.174125
C133  C     C_R   0.125466 0.889124 0.890054 0.180503
C134  C     C_R   0.107587 0.181771 0.816882 0.174124
C135  C     C_R   0.546215 0.428959 0.747785 0.326379
C136  C     C_R   0.874539 0.889116 0.109952 0.180523
C137  C     C_R   0.384833 0.740957 0.065246 -0.212239
C138  C     C_R   0.627071 0.329257 0.002490 -0.200498
C139  C     C_R   0.615137 0.741021 0.934672 -0.212251
C140  C     C_R   0.372935 0.329227 0.997535 -0.200506
C141  C     C_R   0.884863 0.241017 0.065320 -0.212243
C142  C     C_R   0.127084 0.829274 0.002511 -0.200491
C143  C     C_R   0.115136 0.241027 0.934666 -0.212259
C144  C     C_R   0.872930 0.829241 0.997526 -0.200516
C145  C     C_R   0.403749 0.690941 0.118821 -0.099584
C146  C     C_R   0.037270 0.104373 0.718133 0.339070
C147  C     C_R   0.599105 0.358154 0.921581 -0.132180
C148  C     C_R   0.596234 0.690989 0.881131 -0.099590
C149  C     C_R   0.400898 0.358130 0.078439 -0.132173
C150  C     C_R   0.903768 0.190985 0.118865 -0.099585
C151  C     C_R   0.099115 0.858167 0.921599 -0.132183
C152  C     C_R   0.096232 0.190993 0.881127 -0.099584
C153  C     C_R   0.900895 0.858143 0.078431 -0.132171
C154  C     C_R   0.358681 0.721011 0.188101 -0.215252
C155  C     C_R   0.679670 0.393581 0.943742 -0.221410
C156  C     C_R   0.641321 0.721020 0.811867 -0.215223
C157  C     C_R   0.953784 0.928959 0.252215 0.326382
C158  C     C_R   0.320333 0.393578 0.056254 -0.221407
C159  C     C_R   0.858678 0.221017 0.188125 -0.215230
C160  C     C_R   0.179677 0.893583 0.943737 -0.221414
C161  C     C_R   0.141320 0.221022 0.811863 -0.215237
C162  C     C_R   0.820329 0.893584 0.056255 -0.221403
C163  C     C_R   0.332174 0.765866 0.124798 0.059055
C164  C     C_R   0.708475 0.354037 0.014355 0.047459
C165  C     C_R   0.667819 0.765892 0.875149 0.059063
C166  C     C_R   0.291526 0.354036 0.985639 0.047484
C167  C     C_R   0.832179 0.265885 0.124838 0.059062
C168  C     C_R   0.962730 0.104372 0.281865 0.339066
C169  C     C_R   0.208482 0.854037 0.014346 0.047461
C170  C     C_R   0.167818 0.265894 0.875143 0.059060
C171  C     C_R   0.791523 0.854042 0.985639 0.047497
C172  C     C_R   0.349166 0.779046 0.067729 0.110230
C173  C     C_R   0.681661 0.323758 0.046988 0.110319
C174  C     C_R   0.650810 0.779098 0.932188 0.110222
C175  C     C_R   0.318343 0.323746 0.953020 0.110258
C176  C     C_R   0.849187 0.279091 0.067799 0.110217
C177  C     C_R   0.181673 0.823771 0.046997 0.110299
C178  C     C_R   0.150809 0.279103 0.932180 0.110234
C179  C     C_R   0.046216 0.928960 0.747786 0.326376
C180  C     C_R   0.818338 0.823758 0.953014 0.110208
C181  C     C_R   0.286266 0.793524 0.110778 0.059294
C182  C     C_R   0.760642 0.337474 0.044215 0.056451
C183  C     C_R   0.713733 0.793540 0.889181 0.059236
C184  C     C_R   0.239356 0.337482 0.955767 0.056449
C185  C     C_R   0.786264 0.293532 0.110804 0.059303
C186  C     C_R   0.260642 0.837461 0.044182 0.056445
C187  C     C_R   0.213734 0.293539 0.889178 0.059268
C188  C     C_R   0.739355 0.837483 0.955771 0.056439
C189  C     C_R   0.644903 0.578004 0.571194 -0.202282
C190  C     C_R   0.316836 0.630101 0.582043 -0.268192
C191  C     C_R   0.367145 0.398008 0.427841 -0.186965
C192  C     C_R   0.355099 0.578008 0.428804 -0.202278
C193  C     C_R   0.632855 0.398010 0.572159 -0.186937
C194  C     C_R   0.144902 0.078006 0.571195 -0.202275
C195  C     C_R   0.867147 0.898006 0.427841 -0.186981
C196  C     C_R   0.855098 0.078007 0.428804 -0.202275
C197  C     C_R   0.132853 0.898007 0.572159 -0.186959
C198  C     C_R   0.784984 0.357311 0.001019 -0.293966
C199  C     C_R   0.261425 0.772660 0.152587 -0.285442
C200  C     C_R   0.215012 0.357324 0.998955 -0.293968
H1    H     H_    0.698553 0.424952 0.925597 0.116884
H2    H     H_    0.427109 0.659611 0.109488 0.179083
H3    H     H_    0.316309 0.523972 0.158667 0.257537
H4    H     H_    0.697755 0.418771 0.806532 0.155072
H5    H     H_    0.704690 0.318542 0.766490 0.247522
H6    H     H_    0.634999 0.310370 0.711751 0.256005
H7    H     H_    0.675724 0.315308 0.830174 0.266864
H8    H     H_    0.680489 0.628991 0.737355 0.152946
H9    H     H_    0.735581 0.550858 0.830841 0.245605
H10   H     H_    0.680276 0.513949 0.738973 0.241759
H11   H     H_    0.683686 0.523976 0.841332 0.257546
H12   H     H_    0.302245 0.418775 0.193455 0.155082
H13   H     H_    0.442942 0.354330 0.117218 0.159401
H14   H     H_    0.295292 0.318552 0.233480 0.247524
H15   H     H_    0.364985 0.310373 0.288256 0.256002
H16   H     H_    0.324280 0.315309 0.169830 0.266860
H17   H     H_    0.819505 0.128991 0.262624 0.152968
H18   H     H_    0.764419 0.050850 0.169156 0.245607
H19   H     H_    0.819723 0.013947 0.261031 0.241768
H20   H     H_    0.816317 0.023967 0.158673 0.257540
H21   H     H_    0.197754 0.918767 0.806514 0.155054
H22   H     H_    0.204686 0.818534 0.766487 0.247506
H23   H     H_    0.134993 0.810367 0.711739 0.256007
H24   H     H_    0.572874 0.659667 0.890479 0.179109
H25   H     H_    0.175714 0.815302 0.830164 0.266864
H26   H     H_    0.180492 0.128992 0.737363 0.152950
H27   H     H_    0.235580 0.050855 0.830842 0.245606
H28   H     H_    0.180275 0.013949 0.738970 0.241758
H29   H     H_    0.183683 0.023972 0.841328 0.257547
H30   H     H_    0.802245 0.918771 0.193461 0.155080
H31   H     H_    0.795297 0.818545 0.233481 0.247523
H32   H     H_    0.864991 0.810371 0.288258 0.255999
H33   H     H_    0.824286 0.815307 0.169832 0.266857
H34   H     H_    0.809589 0.161644 0.716480 0.178527
H35   H     H_    0.057071 0.854375 0.882838 0.159421
H36   H     H_    0.811705 0.266209 0.730891 0.247110
H37   H     H_    0.777783 0.274283 0.613689 0.263712
H38   H     H_    0.844087 0.246188 0.675690 0.259087
H39   H     H_    0.182193 0.772435 0.323887 0.164830
H40   H     H_    0.272949 0.768277 0.379857 0.240926
H41   H     H_    0.286435 0.747537 0.485765 0.273844
H42   H     H_    0.262126 0.821267 0.443086 0.248400
H43   H     H_    0.190416 0.161652 0.283526 0.178526
H44   H     H_    0.188307 0.266224 0.269131 0.247108
H45   H     H_    0.222211 0.274285 0.386332 0.263708
H46   H     H_    0.927131 0.159665 0.109522 0.179104
H47   H     H_    0.155908 0.246188 0.324298 0.259086
H48   H     H_    0.817838 0.772406 0.676142 0.164801
H49   H     H_    0.727083 0.768247 0.620196 0.240927
H50   H     H_    0.713585 0.747536 0.514270 0.273841
H51   H     H_    0.737905 0.821256 0.556987 0.248397
H52   H     H_    0.309578 0.661619 0.716482 0.178525
H53   H     H_    0.311701 0.766183 0.730918 0.247113
H54   H     H_    0.277790 0.774269 0.613720 0.263712
H55   H     H_    0.344092 0.746167 0.675731 0.259089
H56   H     H_    0.682167 0.272415 0.323854 0.164829
H57   H     H_    0.942938 0.854344 0.117206 0.159397
H58   H     H_    0.772922 0.268260 0.379805 0.240927
H59   H     H_    0.786418 0.247543 0.485727 0.273842
H60   H     H_    0.762100 0.321264 0.443018 0.248404
H61   H     H_    0.690411 0.661636 0.283516 0.178524
H62   H     H_    0.688299 0.766202 0.269108 0.247110
H63   H     H_    0.722226 0.774277 0.386308 0.263709
H64   H     H_    0.655921 0.746183 0.324316 0.259087
H65   H     H_    0.317845 0.272408 0.676158 0.164806
H66   H     H_    0.227092 0.268250 0.620221 0.240929
H67   H     H_    0.213589 0.247540 0.514293 0.273843
H68   H     H_    0.072873 0.159672 0.890477 0.179109
H69   H     H_    0.237910 0.321259 0.557010 0.248401
H70   H     H_    0.820166 0.364402 0.899074 0.169291
H71   H     H_    0.887056 0.423612 0.026679 0.251152
H72   H     H_    0.909154 0.389891 0.962100 0.250389
H73   H     H_    0.926005 0.356423 0.064533 0.264296
H74   H     H_    0.207036 0.755379 0.224190 0.175705
H75   H     H_    0.195436 0.667948 0.135152 0.254175
H76   H     H_    0.135808 0.701995 0.047108 0.259335
H77   H     H_    0.141737 0.681273 0.148163 0.249714
H78   H     H_    0.179826 0.364430 0.100889 0.169294
H79   H     H_    0.395973 0.747730 0.018459 0.163234
H80   H     H_    0.112920 0.423615 0.973270 0.251158
H81   H     H_    0.090834 0.389895 0.037866 0.250394
H82   H     H_    0.073985 0.356415 0.935443 0.264299
H83   H     H_    0.793030 0.755372 0.775863 0.175681
H84   H     H_    0.804508 0.667860 0.864496 0.254061
H85   H     H_    0.863990 0.701888 0.953003 0.259326
H86   H     H_    0.858475 0.681328 0.852208 0.249715
H87   H     H_    0.320096 0.864292 0.898922 0.169294
H88   H     H_    0.387019 0.923524 0.026452 0.251166
H89   H     H_    0.409073 0.889759 0.961842 0.250410
H90   H     H_    0.605370 0.306628 0.025386 0.158804
H91   H     H_    0.425963 0.856334 0.064319 0.264305
H92   H     H_    0.707005 0.255318 0.224144 0.175711
H93   H     H_    0.695414 0.167928 0.135030 0.254193
H94   H     H_    0.635779 0.201984 0.047029 0.259332
H95   H     H_    0.641724 0.181211 0.148082 0.249708
H96   H     H_    0.679833 0.864408 0.100912 0.169293
H97   H     H_    0.612940 0.923619 0.973329 0.251154
H98   H     H_    0.590841 0.889877 0.037891 0.250402
H99   H     H_    0.573995 0.856428 0.935452 0.264300
H100  H     H_    0.293030 0.255327 0.775882 0.175689
H101  H     H_    0.603986 0.747816 0.981440 0.163237
H102  H     H_    0.304512 0.167877 0.864718 0.254107
H103  H     H_    0.364078 0.201892 0.953016 0.259311
H104  H     H_    0.358367 0.181225 0.852098 0.249698
H105  H     H_    0.353449 0.715457 0.241767 0.111778
H106  H     H_    0.394637 0.306580 0.974656 0.158833
H107  H     H_    0.896016 0.247811 0.018553 0.163229
H108  H     H_    0.105386 0.806649 0.025418 0.158804
H109  H     H_    0.103984 0.247823 0.981434 0.163234
H110  H     H_    0.894633 0.806595 0.974645 0.158867
H111  H     H_    0.769453 0.393038 0.954140 0.136365
H112  H     H_    0.279380 0.740864 0.205425 0.134134
H113  H     H_    0.230543 0.393053 0.045831 0.136358
H114  H     H_    0.720628 0.740871 0.794556 0.134120
H115  H     H_    0.269432 0.892989 0.954055 0.136382
H116  H     H_    0.301450 0.424956 0.074392 0.116876
H117  H     H_    0.779370 0.240862 0.205426 0.134133
H118  H     H_    0.730542 0.893048 0.045841 0.136359
H119  H     H_    0.220629 0.240864 0.794558 0.134124
H120  H     H_    0.678830 0.574215 0.636571 0.129981
H121  H     H_    0.332631 0.392882 0.363654 0.162451
H122  H     H_    0.321173 0.574223 0.363426 0.129995
H123  H     H_    0.667370 0.392885 0.636346 0.162434
H124  H     H_    0.178829 0.074219 0.636573 0.129986
H125  H     H_    0.832633 0.892878 0.363655 0.162452
H126  H     H_    0.821172 0.074222 0.363426 0.129994
H127  H     H_    0.646566 0.715445 0.758216 0.111756
H128  H     H_    0.167369 0.892883 0.636344 0.162440
H129  H     H_    0.177982 0.626353 0.370572 0.126619
H130  H     H_    0.676125 0.173213 0.588053 0.135162
H131  H     H_    0.822022 0.626333 0.629416 0.126633
H132  H     H_    0.323881 0.173209 0.411955 0.135157
H133  H     H_    0.677981 0.126343 0.370580 0.126620
H134  H     H_    0.176112 0.673205 0.588034 0.135163
H135  H     H_    0.322022 0.126333 0.629419 0.126626
H136  H     H_    0.823882 0.673206 0.411948 0.135164
H137  H     H_    0.249344 0.576872 0.371737 0.114414
H138  H     H_    0.198560 0.924950 0.925587 0.116890
H139  H     H_    0.634634 0.265410 0.592100 0.130770
H140  H     H_    0.750659 0.576855 0.628251 0.114410
H141  H     H_    0.365370 0.265408 0.407907 0.130756
H142  H     H_    0.749343 0.076862 0.371746 0.114418
H143  H     H_    0.134619 0.765401 0.592080 0.130767
H144  H     H_    0.250657 0.076854 0.628251 0.114415
H145  H     H_    0.865375 0.765404 0.407906 0.130757
H146  H     H_    0.355887 0.634726 0.639718 0.162386
H147  H     H_    0.661084 0.344731 0.403595 0.127483
H148  H     H_    0.644111 0.634731 0.360284 0.162378
H149  H     H_    0.853436 0.215445 0.241783 0.111756
H150  H     H_    0.338917 0.344729 0.596405 0.127479
H151  H     H_    0.855891 0.134737 0.639713 0.162391
H152  H     H_    0.161098 0.844739 0.403620 0.127485
H153  H     H_    0.144109 0.134747 0.360293 0.162400
H154  H     H_    0.838917 0.844724 0.596399 0.127482
H155  H     H_    0.584125 0.558752 0.300664 0.238282
H156  H     H_    0.617127 0.454707 0.329336 0.264917
H157  H     H_    0.651873 0.473594 0.444598 0.244462
H158  H     H_    0.665642 0.511759 0.371803 0.246130
H159  H     H_    0.429160 0.363185 0.687229 0.185331
H160  H     H_    0.801447 0.924959 0.074397 0.116875
H161  H     H_    0.505158 0.302317 0.736504 0.249074
H162  H     H_    0.502065 0.320379 0.636999 0.253041
H163  H     H_    0.451096 0.276259 0.632671 0.253872
H164  H     H_    0.415865 0.558735 0.699322 0.238298
H165  H     H_    0.382851 0.454696 0.670632 0.264883
H166  H     H_    0.348118 0.473595 0.555365 0.244470
H167  H     H_    0.334343 0.511766 0.628157 0.246128
H168  H     H_    0.570838 0.363181 0.312774 0.185340
H169  H     H_    0.494844 0.302310 0.263506 0.249070
H170  H     H_    0.497933 0.320378 0.363005 0.253045
H171  H     H_    0.146564 0.215446 0.758211 0.111759
H172  H     H_    0.548904 0.276258 0.367343 0.253876
H173  H     H_    0.084142 0.058748 0.300681 0.238271
H174  H     H_    0.117159 0.954736 0.329276 0.264887
H175  H     H_    0.151825 0.973536 0.444590 0.244455
H176  H     H_    0.165695 0.011794 0.371966 0.246105
H177  H     H_    0.929157 0.863206 0.687234 0.185339
H178  H     H_    0.005158 0.802330 0.736526 0.249081
H179  H     H_    0.002045 0.820356 0.636995 0.253047
H180  H     H_    0.951084 0.776256 0.632722 0.253876
H181  H     H_    0.915862 0.058736 0.699319 0.238290
H182  H     H_    0.557061 0.354360 0.882813 0.159417
H183  H     H_    0.882851 0.954702 0.670649 0.264868
H184  H     H_    0.848127 0.973584 0.555366 0.244458
H185  H     H_    0.834333 0.011771 0.628134 0.246109
H186  H     H_    0.070858 0.863216 0.312774 0.185355
H187  H     H_    0.994868 0.802323 0.263454 0.249063
H188  H     H_    0.997939 0.820361 0.362948 0.253035
H189  H     H_    0.048922 0.776262 0.367290 0.253869
H190  H     H_    0.319509 0.628995 0.262633 0.152967
H191  H     H_    0.264417 0.550857 0.169163 0.245610
H192  H     H_    0.319722 0.513949 0.261030 0.241770
N1    N     N_R   0.532910 0.558440 0.665240 -0.080633
N2    N     N_R   0.402970 0.441090 0.454460 -0.054767
N3    N     N_R   0.402970 0.558910 0.454460 -0.052895
N4    N     N_R   0.597030 0.441090 0.545540 -0.054768
N5    N     N_R   0.097030 0.058910 0.545540 -0.052899
N6    N     N_R   0.902970 0.941090 0.454460 -0.054768
N7    N     N_R   0.902970 0.058910 0.454460 -0.052897
N8    N     N_R   0.097030 0.941090 0.545540 -0.054774
N9    N     N_R   0.566200 0.559270 0.454460 -0.056431
N10   N     N_R   0.433800 0.440730 0.545540 -0.053738
N11   N     N_R   0.433800 0.559270 0.545540 -0.056432
N12   N     N_R   0.467090 0.441560 0.334760 -0.083211
N13   N     N_R   0.566200 0.440730 0.454460 -0.053741
N14   N     N_R   0.066200 0.059270 0.454460 -0.056431
N15   N     N_R   0.933800 0.940730 0.545540 -0.053744
N16   N     N_R   0.933800 0.059270 0.545540 -0.056432
N17   N     N_R   0.066200 0.940730 0.454460 -0.053758
N18   N     N_R   0.421050 0.559750 0.334770 -0.079081
N19   N     N_R   0.578950 0.440250 0.665230 -0.080211
N20   N     N_R   0.578950 0.559750 0.665230 -0.079085
N21   N     N_R   0.421050 0.440250 0.334770 -0.080211
N22   N     N_R   0.921050 0.059750 0.334770 -0.079082
N23   N     N_R   0.467090 0.558440 0.334760 -0.080636
N24   N     N_R   0.078950 0.940250 0.665230 -0.080206
N25   N     N_R   0.078950 0.059750 0.665230 -0.079085
N26   N     N_R   0.921050 0.940250 0.334770 -0.080208
N27   N     N_2   0.594091 0.535188 0.356211 -0.087068
N28   N     N_2   0.450234 0.367675 0.658535 -0.096601
N29   N     N_2   0.405901 0.535179 0.643774 -0.087076
N30   N     N_2   0.549764 0.367671 0.341468 -0.096605
N31   N     N_2   0.094095 0.035181 0.356220 -0.087057
N32   N     N_2   0.950232 0.867680 0.658540 -0.096599
N33   N     N_2   0.905902 0.035178 0.643774 -0.087076
N34   N     N_R   0.532910 0.441560 0.665240 -0.083210
N35   N     N_2   0.049776 0.867686 0.341456 -0.096576
N36   N     N_2   0.333348 0.600708 0.235298 -0.100907
N37   N     N_2   0.664782 0.395698 0.761628 -0.121475
N38   N     N_2   0.666651 0.600710 0.764697 -0.100898
N39   N     N_2   0.335215 0.395703 0.238368 -0.121478
N40   N     N_2   0.833347 0.100705 0.235297 -0.100907
N41   N     N_2   0.164780 0.895693 0.761621 -0.121477
N42   N     N_2   0.166652 0.100708 0.764701 -0.100902
N43   N     N_2   0.835216 0.895699 0.238370 -0.121477
N44   N     N_2   0.786520 0.186362 0.660212 -0.114777
N45   N     N_R   0.032910 0.058440 0.665240 -0.080633
N46   N     N_2   0.206642 0.752441 0.384060 -0.114990
N47   N     N_2   0.213483 0.186370 0.339796 -0.114774
N48   N     N_2   0.793381 0.752420 0.615966 -0.114981
N49   N     N_2   0.286515 0.686344 0.660220 -0.114776
N50   N     N_2   0.706623 0.252430 0.384031 -0.114996
N51   N     N_2   0.713483 0.686354 0.339784 -0.114774
N52   N     N_2   0.293387 0.252423 0.615981 -0.114989
N53   N     N_2   0.847723 0.345662 0.958737 -0.117272
N54   N     N_2   0.184052 0.757027 0.156555 -0.116347
N55   N     N_2   0.152271 0.345679 0.041234 -0.117271
N56   N     N_R   0.967090 0.941560 0.334760 -0.083214
N57   N     N_2   0.815981 0.756999 0.843502 -0.116367
N58   N     N_2   0.347666 0.845566 0.958588 -0.117278
N59   N     N_2   0.684029 0.256986 0.156510 -0.116348
N60   N     N_2   0.652275 0.845666 0.041251 -0.117274
N61   N     N_2   0.315984 0.256967 0.843519 -0.116366
N62   N     N_R   0.967090 0.058440 0.334760 -0.080632
N63   N     N_R   0.032910 0.941560 0.665240 -0.083203
N64   N     N_R   0.597030 0.558910 0.545540 -0.052894
Ni1   Ni    Ni4+2 0.483090 0.500000 0.604440 0.269120
Ni2   Ni    Ni4+2 0.516910 0.500000 0.395560 0.269110
Ni3   Ni    Ni4+2 0.983090 0.000000 0.604440 0.269119
Ni4   Ni    Ni4+2 0.016910 0.000000 0.395560 0.269122
Ni5   Ni    Ni4+2 0.586780 0.500000 0.604440 0.191292
Ni6   Ni    Ni4+2 0.413220 0.500000 0.395560 0.191294
Ni7   Ni    Ni4+2 0.086780 0.000000 0.604440 0.191289
Ni8   Ni    Ni4+2 0.913220 0.000000 0.395560 0.191294

loop_
_geom_bond_atom_site_label_1
_geom_bond_atom_site_label_2
_ccdc_geom_bond_type
C117  C126  A    
C94   H28   S    
C111  H98   S    
C28   C34   A    
C102  H58   S    
C66   C75   A    
C161  H171  S    
C142  C177  A    
N26   N56   A    
C155  H1    S    
C9    N54   S    
C128  C154  A    
C24   C73   A    
C116  C125  A    
C99   H50   S    
C81   H165  S    
C14   C173  A    
C50   C74   S    
C82   H169  S    
C28   N38   S    
H186  N35   S    
C102  H59   S    
C109  H89   S    
C115  N44   S    
C88   H6    S    
C40   C136  S    
C98   H44   S    
C183  C188  A    
C43   C189  A    
C181  C186  A    
C182  C198  A    
C154  C163  A    
C58   H134  S    
H177  N32   S    
H56   N50   S    
N6    Ni8   S    
C42   C133  S    
C15   N60   S    
C80   H163  S    
H78   N55   S    
Br6   C157  S    
C50   C196  A    
C25   C51   A    
C98   H45   S    
C122  C126  S    
C5    H117  S    
C103  H64   S    
C1    N1    A    
C46   C75   A    
Br8   C179  S    
N14   Ni4   S    
C92   N40   S    
N8    Ni7   S    
C35   H151  S    
C108  H85   S    
C158  C166  A    
C142  C151  A    
N12   Ni2   S    
C184  C187  A    
C101  N51   S    
C15   C174  A    
C106  N54   S    
C28   N20   A    
C171  C180  A    
C164  C182  A    
C165  C183  A    
C8    N53   S    
N34   Ni1   S    
C99   N48   S    
C92   H19   S    
C97   H40   S    
C11   C180  A    
C110  N59   S    
C56   C123  A    
C81   N29   S    
C108  H86   S    
C4    C12   A    
C116  N46   S    
C108  N57   S    
C156  C165  A    
C155  C164  A    
C193  H123  S    
C46   H152  S    
C39   C146  A    
C165  C174  A    
C36   C131  S    
C191  N2    A    
C90   N50   S    
C31   N24   A    
C104  N52   S    
C133  C160  A    
Br2   C112  S    
C138  C173  A    
C62   C71   A    
C24   C113  A    
C81   H167  S    
C104  H66   S    
C102  N50   S    
C189  H120  S    
C19   C45   A    
N1    N20   A    
N10   Ni1   S    
C109  H91   S    
C23   N16   A    
N7    N16   A    
C29   C36   A    
C45   C70   S    
C128  C145  A    
C6    H118  S    
C114  N61   S    
H181  N33   S    
N12   N21   A    
C114  H103  S    
C49   C77   S    
C83   H176  S    
C140  H106  S    
C78   N27   S    
C170  C178  A    
C84   H179  S    
C131  C149  A    
C37   C124  A    
C89   H10   S    
C70   C190  A    
C79   C190  A    
C68   C77   A    
C167  C185  A    
Br5   C146  S    
N22   Ni8   S    
C6    C15   A    
C143  C178  A    
C194  N5    A    
C137  C172  A    
N19   Ni5   S    
C59   H135  S    
C104  H67   S    
C113  C122  A    
N4    Ni5   S    
N5    Ni7   S    
H155  N27   S    
C8    C176  A    
C87   H191  S    
C110  H94   S    
N56   Ni4   S    
C111  H99   S    
C64   H141  S    
C65   H142  S    
N24   Ni7   S    
C21   N31   S    
C97   H42   S    
C145  H2    S    
C60   H136  S    
C93   N41   S    
C67   C76   A    
C18   N10   A    
C58   C66   A    
N15   Ni3   S    
C129  C147  A    
C99   H51   S    
C55   C122  A    
C30   N22   A    
H4    N37   S    
C132  C150  A    
C121  C127  S    
C86   H189  S    
C82   H172  S    
C97   N46   S    
C133  C151  A    
C40   C157  A    
C153  H57   S    
C95   H32   S    
C141  C176  A    
C56   C65   A    
C93   H22   S    
C7    H119  S    
C141  C150  A    
H8    N38   S    
C144  C153  A    
C182  C185  A    
C132  C159  A    
C69   C77   A    
N13   Ni2   S    
C149  H13   S    
C194  H124  S    
C196  H126  S    
C138  H90   S    
C80   H162  S    
C60   C69   A    
C91   H15   S    
C85   H185  S    
N6    N15   A    
C111  N60   S    
H43   N47   S    
C59   C126  A    
N45   Ni3   S    
C10   N55   S    
C129  C155  A    
C162  H160  S    
C57   C76   A    
C108  H84   S    
N18   N23   A    
H12   N39   S    
C150  H46   S    
C80   N28   S    
C83   H174  S    
N9    N64   A    
C148  H24   S    
N2    N10   A    
C85   H184  S    
Br7   C168  S    
C107  H82   S    
C94   N42   S    
C92   H18   S    
C105  H72   S    
N2    Ni6   S    
C23   N33   S    
C38   C129  S    
C7    C16   A    
C78   H158  S    
C96   H38   S    
C53   H130  S    
C101  C121  A    
C59   C67   A    
H173  N31   S    
C120  C123  S    
C35   C115  A    
C16   N61   S    
C159  C167  A    
C106  H76   S    
C94   H29   S    
C111  H97   S    
C60   C127  A    
N8    N17   A    
C13   C101  A    
N20   Ni5   S    
N22   N62   A    
C103  H62   S    
C162  C171  A    
C99   H49   S    
C87   H3    S    
C17   N27   S    
C18   N28   S    
C87   H192  S    
C86   H187  S    
C82   H170  S    
C98   N47   S    
C140  C175  A    
C43   C72   S    
C158  H116  S    
C110  H95   S    
C3    C183  A    
C140  C149  A    
C44   C73   S    
C4    H115  S    
C91   H14   S    
C195  N6    A    
C12   N58   S    
N21   Ni6   S    
C95   N43   S    
C197  H128  S    
C13   H148  S    
C144  H110  S    
C27   N19   A    
C166  C184  A    
C156  H127  S    
C53   C62   A    
C25   N17   A    
C136  C153  A    
C34   C130  S    
C68   C118  A    
H70   N53   S    
C103  H63   S    
C144  C180  A    
N3    Ni6   S    
C102  H60   S    
C83   N31   S    
C117  N47   S    
C30   C41   A    
C118  N48   S    
C200  H113  S    
C3    C11   A    
H164  N29   S    
C192  H122  S    
C51   C75   S    
N9    Ni2   S    
C24   H150  S    
C36   C112  A    
C160  C169  A    
C22   C49   A    
C136  C162  A    
C169  C177  A    
H159  N28   S    
C92   H20   S    
C20   N13   A    
C6    C188  A    
C196  N7    A    
C66   H143  S    
H190  N36   S    
C138  C147  A    
C9    C177  A    
H92   N59   S    
C197  N8    A    
C152  H68   S    
C27   N37   S    
N3    N11   A    
C64   C73   A    
C7    C187  A    
C51   C197  A    
C90   C120  A    
C94   H27   S    
C5    C185  A    
C16   C175  A    
C142  H108  S    
C151  H35   S    
C48   C76   S    
N1    Ni1   S    
C171  C188  A    
C2    H147  S    
N25   Ni7   S    
N17   Ni4   S    
C169  C186  A    
Br3   C124  S    
C31   N41   S    
C9    C199  A    
Br1   C1    S    
C81   H166  S    
C105  N53   S    
H83   N57   S    
C189  N64   A    
C100  N49   S    
C147  H182  S    
C88   H5    S    
C110  H93   S    
C54   H131  S    
C192  N3    A    
C47   C71   S    
C62   H139  S    
N11   Ni1   S    
C107  H80   S    
C78   H156  S    
C139  H101  S    
N19   N34   A    
C114  H104  S    
C100  H53   S    
C139  C148  A    
C83   H175  S    
C14   N59   S    
C134  C161  A    
C139  C174  A    
C84   H180  S    
C118  C127  A    
C199  H112  S    
C93   H25   S    
C89   H9    S    
C65   C74   A    
C11   N57   S    
C33   N43   S    
N18   Ni6   S    
C135  N34   A    
C168  N62   A    
N16   Ni3   S    
C46   C116  A    
C115  C123  A    
C52   C119  A    
C119  C125  S    
C166  C175  A    
C2    C71   A    
C3    H114  S    
C69   H145  S    
C21   C48   A    
H96   N60   S    
C97   H41   S    
C181  C199  A    
C61   H137  S    
C13   C72   A    
C22   N32   S    
C32   N25   A    
C5    C14   A    
C53   C120  A    
C137  H79   S    
N62   Ni4   S    
H34   N44   S    
C55   C64   A    
C95   H31   S    
C157  N56   A    
C85   N33   S    
C27   C38   A    
C41   C168  A    
C154  H105  S    
C105  H73   S    
C167  C176  A    
C47   C193  A    
C32   C39   A    
N64   Ni5   S    
C195  H125  S    
C52   H129  S    
C114  H102  S    
Br4   C135  S    
C79   C119  A    
C12   C172  A    
C39   C134  S    
H26   N42   S    
C1    C34   A    
C88   H7    S    
H21   N41   S    
C52   C61   A    
C23   C50   A    
C146  N45   A    
C8    C198  A    
C48   C194  A    
C193  N4    A    
C109  N58   S    
C56   H133  S    
C143  H109  S    
C163  C181  A    
C100  H55   S    
C10   C200  A    
C2    C90   A    
C104  H69   S    
C68   H154  S    
C160  H138  S    
C198  H111  S    
C190  H146  S    
C85   H183  S    
C54   C63   A    
C89   H11   S    
C21   N14   A    
N5    N14   A    
C105  H71   S    
C55   H132  S    
C137  C145  A    
N63   Ni3   S    
C184  C200  A    
C54   C121  A    
C20   N30   S    
C61   C70   A    
H74   N54   S    
C42   C179  A    
C164  C173  A    
C63   C72   A    
C20   C47   A    
C141  H107  S    
C86   N35   S    
H52   N49   S    
C109  H88   S    
H100  N61   S    
C87   N36   S    
C89   N38   S    
C100  H54   S    
H17   N40   S    
C179  N63   A    
C26   N18   A    
C96   H36   S    
C10   C178  A    
N26   Ni8   S    
C103  N51   S    
C57   C117  A    
C84   H178  S    
C131  C158  A    
C17   C43   A    
C107  H81   S    
C18   C44   A    
C25   N35   S    
C58   C125  A    
C86   H188  S    
C106  H75   S    
C26   N36   S    
C49   C195  A    
C124  N23   A    
C88   N37   S    
C31   C42   A    
N24   N63   A    
C93   H23   S    
C44   C191  A    
C84   N32   S    
C26   C37   A    
H30   N43   S    
H168  N30   S    
C159  H149  S    
N7    Ni8   S    
C163  C172  A    
H87   N58   S    
C32   N42   S    
C29   N39   S    
C161  C170  A    
C112  N12   A    
C30   N40   S    
C33   N26   A    
C130  C148  A    
C80   H161  S    
C191  H121  S    
C82   N30   S    
C91   H16   S    
C37   C128  S    
C45   C192  A    
C4    C186  A    
C98   H47   S    
C63   H140  S    
N23   Ni2   S    
C134  C152  A    
C130  C156  A    
C106  H77   S    
C38   C135  A    
C170  C187  A    
C113  N52   S    
C91   N39   S    
H39   N46   S    
N25   N45   A    
C143  C152  A    
H48   N48   S    
C57   H153  S    
C95   H33   S    
C33   C40   A    
C67   H144  S    
N4    N13   A    
C19   N11   A    
C22   N15   A    
C96   N44   S    
C17   N9    A    
C78   H157  S    
C79   N49   S    
C96   H37   S    
H61   N51   S    
C41   C132  S    
C35   C74   A    
H65   N52   S    
C29   N21   A    
C107  N55   S    
C19   N29   S    
