data_mof_unit_5457.cif
_audit_creation_date              2012-12-11T14:13:09-0500
_audit_creation_method            fapswitch 2.2
_symmetry_space_group_name_H-M    P1
_symmetry_Int_Tables_number       1
_space_group_crystal_system       triclinic
_cell_length_a                    11.781981
_cell_length_b                    18.476611
_cell_length_c                    10.103224
_cell_angle_alpha                 89.999984
_cell_angle_beta                  111.017604
_cell_angle_gamma                 90.000046
_cell_volume                      2053.05747835

loop_
_atom_site_label
_atom_site_type_symbol
_atom_type_description
_atom_site_fract_x
_atom_site_fract_y
_atom_site_fract_z
_atom_type_partial_charge
C1    C     C_R   0.077988 0.644740 0.141554 0.540987
C2    C     C_R   0.927206 0.353402 0.859825 0.551194
C3    C     C_R   0.922011 0.144739 0.858446 0.540973
C4    C     C_R   0.072794 0.853402 0.140175 0.551220
C5    C     C_R   0.425131 0.474875 0.566755 0.010249
C6    C     C_R   0.619408 0.549382 0.529970 0.005461
C7    C     C_R   0.574869 0.974874 0.433247 0.010231
C8    C     C_R   0.380593 0.049381 0.470032 0.005473
C9    C     C_2   0.419974 0.915689 0.902917 -0.090732
C10   C     C_2   0.637449 0.060436 0.009010 -0.122435
C11   C     C_2   0.580026 0.415689 0.097084 -0.090724
C12   C     C_2   0.362552 0.560436 0.990990 -0.122436
C13   C     C_2   0.524822 0.948860 0.970958 -0.172526
C14   C     C_2   0.542622 0.022418 0.927778 -0.160319
C15   C     C_2   0.475180 0.448861 0.029041 -0.172533
C16   C     C_2   0.457379 0.522418 0.072221 -0.160322
C17   C     C_2   0.003139 0.920245 0.112179 -0.124999
C18   C     C_2   0.971230 0.072284 0.880914 -0.078044
C19   C     C_2   0.996861 0.420245 0.887821 -0.125008
C20   C     C_2   0.028769 0.572284 0.119086 -0.078044
C21   C     C_2   0.984721 0.955019 0.990660 -0.140118
C22   C     C_2   0.948817 0.030249 0.976219 -0.157897
C23   C     C_2   0.015279 0.455019 0.009340 -0.140127
C24   C     C_2   0.051182 0.530249 0.023780 -0.157897
C25   C     C_R   0.474969 0.650951 0.449305 0.520420
C26   C     C_R   0.533447 0.356498 0.567013 0.529160
C27   C     C_R   0.525031 0.150950 0.550695 0.520413
C28   C     C_R   0.466554 0.856498 0.432988 0.529177
C29   C     C_R   0.351834 0.638096 0.009443 0.557499
C30   C     C_R   0.621533 0.353164 0.038868 0.589624
C31   C     C_R   0.648166 0.138096 0.990557 0.557503
C32   C     C_R   0.378467 0.853164 0.961132 0.589608
C33   C     C_R   0.515368 0.434855 0.530528 -0.009860
C34   C     C_R   0.520564 0.587069 0.542032 -0.023356
C35   C     C_R   0.484633 0.934855 0.469475 -0.009851
C36   C     C_R   0.479437 0.087069 0.457969 -0.023364
C37   C     C_R   0.320018 0.443409 0.581303 -0.115899
C38   C     C_R   0.720686 0.587482 0.524742 -0.116847
C39   C     C_R   0.679983 0.943408 0.418698 -0.115882
C40   C     C_R   0.279314 0.087481 0.475259 -0.116835
C41   C     C_R   0.241228 0.484072 0.626603 -0.097375
C42   C     C_R   0.800455 0.554849 0.471445 -0.050718
C43   C     C_R   0.758773 0.984072 0.373398 -0.097361
C44   C     C_R   0.199546 0.054848 0.528558 -0.050683
C45   C     C_R   0.254989 0.558645 0.640637 0.275888
C46   C     C_R   0.790195 0.481869 0.437520 0.222090
C47   C     C_R   0.745011 0.058645 0.359364 0.275871
C48   C     C_R   0.209807 0.981869 0.562487 0.221937
C49   C     C_R   0.359863 0.589943 0.636810 -0.062231
C50   C     C_R   0.696499 0.441593 0.456026 -0.109825
C51   C     C_R   0.640137 0.089942 0.363190 -0.062229
C52   C     C_R   0.303504 0.941592 0.543980 -0.109934
C53   C     C_R   0.438729 0.550335 0.587869 -0.036126
C54   C     C_R   0.610911 0.474034 0.506943 -0.036505
C55   C     C_R   0.561272 0.050334 0.412132 -0.036131
C56   C     C_R   0.389091 0.974033 0.493061 -0.036445
Cr1   Cr    Cr6+3 0.187610 0.750000 0.979860 1.100628
Cr2   Cr    Cr6+3 0.812390 0.250000 0.020140 1.100585
Cr3   Cr    Cr6+3 0.245810 0.750000 0.341640 1.091275
Cr4   Cr    Cr6+3 0.754190 0.250000 0.658360 1.091389
Cr5   Cr    Cr6+3 0.485760 0.750000 0.219910 1.011011
Cr6   Cr    Cr6+3 0.514240 0.250000 0.780090 1.010987
H1    H     H_    0.164237 0.457963 0.640565 0.168683
H2    H     H_    0.863387 0.588542 0.447119 0.220346
H3    H     H_    0.835764 0.957964 0.359435 0.168726
H4    H     H_    0.136615 0.088541 0.552884 0.220338
H5    H     H_    0.289854 0.389119 0.547469 0.167707
H6    H     H_    0.732661 0.644546 0.551042 0.146997
H7    H     H_    0.710147 0.889118 0.452532 0.167749
H8    H     H_    0.267338 0.144545 0.448958 0.146974
H9    H     H_    0.373531 0.647376 0.658129 0.170809
H10   H     H_    0.684575 0.387325 0.414308 0.173278
H11   H     H_    0.626469 0.147376 0.341871 0.170813
H12   H     H_    0.315430 0.887325 0.585699 0.173174
H13   H     H_    0.472045 0.047974 0.838929 0.170536
H14   H     H_    0.589883 0.926171 0.067854 0.156033
H15   H     H_    0.527956 0.547975 0.161071 0.170533
H16   H     H_    0.410121 0.426173 0.932142 0.156031
H17   H     H_    0.709617 0.033268 0.092746 0.113057
H18   H     H_    0.359437 0.940464 0.809517 0.161151
H19   H     H_    0.290383 0.533268 0.907255 0.113057
H20   H     H_    0.640562 0.440463 0.190486 0.161138
H21   H     H_    0.903986 0.051482 0.044906 0.190053
H22   H     H_    0.007644 0.930244 0.906162 0.232544
H23   H     H_    0.096013 0.551482 0.955093 0.190054
H24   H     H_    0.992358 0.430244 0.093838 0.232529
H25   H     H_    0.011579 0.050719 0.808678 0.219665
H26   H     H_    0.982831 0.946048 0.197915 0.141561
H27   H     H_    0.988420 0.550718 0.191323 0.219665
H28   H     H_    0.017169 0.446048 0.802084 0.141562
O1    O     O_R   0.267710 0.668200 0.902110 -0.455911
O2    O     O_R   0.732290 0.331800 0.097890 -0.403790
O3    O     O_R   0.732290 0.168200 0.097890 -0.455917
O4    O     O_R   0.267710 0.831800 0.902110 -0.403787
O5    O     O_R   0.099480 0.674460 0.038850 -0.519950
O6    O     O_R   0.900520 0.325540 0.961150 -0.486965
O7    O     O_R   0.900520 0.174460 0.961150 -0.519960
O8    O     O_R   0.099480 0.825540 0.038850 -0.486936
O9    O     O_R   0.116720 0.669210 0.267660 -0.435342
O10   O     O_R   0.883280 0.330790 0.732340 -0.514336
O11   O     O_R   0.883280 0.169210 0.732340 -0.435340
O12   O     O_R   0.116720 0.830790 0.267660 -0.514475
O13   O     O_R   0.366710 0.675440 0.427590 -0.487167
O14   O     O_R   0.633290 0.324560 0.572410 -0.502687
O15   O     O_R   0.633290 0.175440 0.572410 -0.487161
O16   O     O_R   0.366710 0.824560 0.427590 -0.502723
O17   O     O_R   0.534870 0.669390 0.371760 -0.532201
O18   O     O_R   0.465130 0.330610 0.628240 -0.532636
O19   O     O_R   0.465130 0.169390 0.628240 -0.532208
O20   O     O_R   0.534870 0.830610 0.371760 -0.532626
O21   O     O_R   0.453080 0.674480 0.075160 -0.498701
O22   O     O_R   0.546920 0.325520 0.924840 -0.514490
O23   O     O_R   0.546920 0.174480 0.924840 -0.498702
O24   O     O_R   0.453080 0.825520 0.075160 -0.514486
O25   O     O_3   0.306390 0.750000 0.180470 -0.297409
O26   O     O_3   0.693610 0.250000 0.819530 -0.297416
S1    S     S_3+6 0.127390 0.613850 0.611121 0.005309
O27   O     O_2   0.053460 0.608598 0.456779 -0.264599
O28   O     O_2   0.054316 0.587511 0.696569 -0.363188
O29   O     O_3   0.163954 0.701421 0.644540 -0.488813
H29   H     H_    0.095977 0.721745 0.668528 0.380038
S2    S     S_3+6 0.884647 0.442464 0.355905 -0.037836
O30   O     O_2   0.838066 0.461531 0.201409 -0.325972
O31   O     O_2   0.011425 0.470177 0.417922 -0.292571
O32   O     O_3   0.886878 0.352404 0.375688 -0.513262
H30   H     H_    0.931301 0.344185 0.478243 0.350472
S3    S     S_3+6 0.872610 0.113850 0.388879 0.005296
O33   O     O_2   0.946540 0.108598 0.543221 -0.264620
O34   O     O_2   0.945684 0.087512 0.303430 -0.363202
O35   O     O_3   0.836045 0.201422 0.355461 -0.488748
H31   H     H_    0.904017 0.221745 0.331461 0.379995
S4    S     S_3+6 0.115355 0.942466 0.644106 -0.037812
O36   O     O_2   0.161937 0.961542 0.798598 -0.325973
O37   O     O_2   0.988576 0.970176 0.582079 -0.292424
O38   O     O_3   0.113121 0.852405 0.624345 -0.513294
H32   H     H_    0.069095 0.844191 0.521733 0.350528

loop_
_geom_bond_atom_site_label_1
_geom_bond_atom_site_label_2
_ccdc_geom_bond_type
C32   O4    A    
C4    O8    A    
C12   C29   S    
C17   H26   S    
Cr3   O9    S    
C44   H4    S    
C7    C55   A    
C1    O9    A    
O38   H32   S    
Cr1   O25   S    
C50   C54   A    
C40   H8    S    
C5    C53   A    
Cr2   O3    S    
C38   C42   A    
C5    C37   A    
S1    O28   D    
C42   C46   A    
C15   H16   S    
Cr6   O18   S    
C27   O15   A    
C15   C16   S    
C9    C13   D    
C3    C18   S    
C16   H15   S    
C8    C36   A    
C50   H10   S    
Cr2   O6    S    
C9    C32   S    
C26   O14   A    
C11   C15   D    
C10   C31   S    
C20   C24   D    
C11   C30   S    
C28   O16   A    
S4    O36   D    
C23   H24   S    
C4    O12   A    
Cr5   O25   S    
C23   C24   S    
C6    C38   A    
C24   H23   S    
C40   C44   A    
C43   H3    S    
C25   C34   S    
C3    O11   A    
C35   C56   A    
C2    O10   A    
C13   C14   S    
Cr2   O26   S    
C8    C56   A    
Cr2   O7    S    
C6    C54   A    
Cr5   O20   S    
C11   H20   S    
Cr3   O16   S    
C12   C16   D    
C44   C48   A    
C28   C35   S    
Cr6   O23   S    
C30   O2    A    
C10   C14   D    
S1    O29   S    
C26   O18   A    
C25   O13   A    
C39   C43   A    
C28   O20   A    
C31   O3    A    
C17   C21   D    
C6    C34   A    
C30   O22   A    
C9    H18   S    
C19   C23   D    
S3    O34   D    
Cr6   O26   S    
C3    O7    A    
C26   C33   S    
C21   H22   S    
C45   C49   A    
C1    O5    A    
C39   H7    S    
C4    C17   S    
S4    O37   D    
C38   H6    S    
Cr1   O4    S    
Cr1   O5    S    
O32   H30   S    
Cr4   O26   S    
C41   H1    S    
S2    O31   D    
Cr4   O11   S    
Cr5   O21   S    
C42   H2    S    
C29   O1    A    
O29   H29   S    
C25   O17   A    
C45   S1    S    
C33   C54   A    
C1    C20   S    
C7    C39   A    
Cr1   O1    S    
C2    C19   S    
C18   C22   D    
Cr3   O12   S    
C7    C35   A    
C29   O21   A    
C46   S2    S    
C51   H11   S    
Cr4   O10   S    
C47   C51   A    
C10   H17   S    
C47   S3    S    
C27   C36   S    
C13   H14   S    
C20   H27   S    
C46   C50   A    
C52   H12   S    
C18   H25   S    
Cr3   O13   S    
C14   H13   S    
S2    O32   S    
C2    O6    A    
O35   H31   S    
S3    O35   S    
C19   H28   S    
Cr4   O14   S    
S1    O27   D    
C22   H21   S    
Cr6   O19   S    
C43   C47   A    
S4    O38   S    
C49   C53   A    
Cr1   O8    S    
C37   H5    S    
C12   H19   S    
C51   C55   A    
C5    C33   A    
C37   C41   A    
Cr5   O17   S    
C52   C56   A    
C48   C52   A    
Cr6   O22   S    
C27   O19   A    
C34   C53   A    
Cr3   O25   S    
C49   H9    S    
Cr5   O24   S    
C36   C55   A    
C41   C45   A    
C48   S4    S    
C8    C40   A    
C32   O24   A    
S2    O30   D    
C21   C22   S    
Cr2   O2    S    
C31   O23   A    
Cr4   O15   S    
S3    O33   D    
