data_mof_unit_57011.cif
_audit_creation_date              2012-12-11T15:47:01-0500
_audit_creation_method            fapswitch 2.2
_symmetry_space_group_name_H-M    P1
_symmetry_Int_Tables_number       1
_space_group_crystal_system       triclinic
_cell_length_a                    11.548065
_cell_length_b                    11.527355
_cell_length_c                    19.563875
_cell_angle_alpha                 90.502995
_cell_angle_beta                  90.072994
_cell_angle_gamma                 59.951051
_cell_volume                      2254.1894575

loop_
_atom_site_label
_atom_site_type_symbol
_atom_type_description
_atom_site_fract_x
_atom_site_fract_y
_atom_site_fract_z
_atom_type_partial_charge
C1    C     C_R   0.640411 0.117371 0.599287 0.546521
C2    C     C_1   0.652885 0.149719 0.668668 0.004073
C3    C     C_R   0.673971 0.642293 0.198040 0.017327
C4    C     C_R   0.612415 0.746093 0.598675 0.544696
C5    C     C_R   0.572832 0.637012 0.233681 0.074190
C6    C     C_R   0.565843 0.645420 0.303101 0.032423
C7    C     C_R   0.774713 0.646617 0.306023 -0.158726
C8    C     C_R   0.781738 0.635986 0.234785 -0.130943
C9    C     C_3   0.425587 0.718500 0.223546 -0.257362
C10   C     C_3   0.415582 0.728735 0.300300 -0.260851
C11   C     C_R   0.659477 0.664246 0.339739 0.008547
C12   C     C_1   0.641180 0.704041 0.668039 0.004892
C13   C     C_R   0.119372 0.209565 0.197436 0.018478
C14   C     C_R   0.108538 0.314175 0.237953 0.017208
C15   C     C_R   0.132546 0.298226 0.306832 0.019420
C16   C     C_R   0.241027 0.145304 0.598222 0.546355
C17   C     C_R   0.151184 0.080695 0.300999 -0.175462
C18   C     C_R   0.131120 0.095561 0.230171 -0.167282
C19   C     C_3   0.174453 0.395997 0.229531 -0.253153
C20   C     C_3   0.201008 0.379785 0.305497 -0.246420
C21   C     C_R   0.166692 0.176333 0.338512 0.018279
C22   C     C_R   0.661802 0.182047 0.190586 -0.025764
C23   C     C_1   0.126661 0.198705 0.859268 0.004513
C24   C     C_R   0.736454 0.054077 0.218985 0.045364
C25   C     C_R   0.733431 0.035158 0.287913 -0.025897
C26   C     C_R   0.568096 0.266963 0.303738 -0.108857
C27   C     C_R   0.564443 0.286309 0.232971 0.193957
C28   C     C_R   0.644644 0.112120 0.402240 0.549598
C29   C     C_3   0.881483 0.948204 0.214665 0.257946
C30   C     C_3   0.877046 0.928754 0.290830 -0.209704
C31   C     C_R   0.658731 0.142346 0.332131 -0.045716
C32   C     C_R   0.081782 0.231106 0.928569 0.543764
C33   C     C_R   0.683967 0.604336 0.929473 0.546651
C34   C     C_1   0.171563 0.170277 0.727722 -0.030203
C35   C     C_R   0.708466 0.206640 0.930105 0.546160
C36   C     C_R   0.079880 0.237512 0.126415 0.538763
C37   C     C_R   0.684678 0.608389 0.126702 0.555863
C38   C     C_R   0.706585 0.210602 0.126379 0.546834
C39   C     C_R   0.618452 0.735359 0.403893 0.547879
C40   C     C_R   0.241067 0.142363 0.402309 0.544212
C41   C     C_1   0.670422 0.646379 0.860105 0.006489
C42   C     C_1   0.654721 0.683771 0.728453 -0.030479
C43   C     C_1   0.663440 0.666645 0.799692 -0.029952
C44   C     C_1   0.150139 0.182227 0.798932 -0.029760
C45   C     C_1   0.195373 0.160934 0.667413 0.004087
C46   C     C_1   0.678735 0.191198 0.860752 0.005840
C47   C     C_1   0.658519 0.167230 0.729044 -0.030224
C48   C     C_1   0.665765 0.180853 0.800332 -0.029518
Cr1   Cr    Cr6+3 0.404720 0.198220 0.499960 1.023386
Cr2   Cr    Cr6+3 0.698290 0.897110 0.500380 1.027767
Cr3   Cr    Cr6+3 0.396970 0.904720 0.499610 1.022968
Cr4   Cr    Cr6+3 0.926290 0.152010 0.028150 1.052633
Cr5   Cr    Cr6+3 0.921440 0.451830 0.027490 1.059895
Cr6   Cr    Cr6+3 0.626370 0.446880 0.028730 1.040790
F1    F     F_    0.899745 0.838053 0.177006 -0.642518
H1    H     H_    0.852572 0.653038 0.333682 0.125889
H2    H     H_    0.382001 0.660212 0.201094 0.205069
H3    H     H_    0.394792 0.815863 0.198386 0.125466
H4    H     H_    0.377997 0.832793 0.318387 0.163731
H5    H     H_    0.365687 0.676668 0.322756 0.150721
H6    H     H_    0.164425 0.990794 0.325023 0.116708
H7    H     H_    0.129542 0.016387 0.200923 0.124628
H8    H     H_    0.103435 0.500929 0.214725 0.166328
H9    H     H_    0.442847 0.395118 0.162543 0.333008
H10   H     H_    0.266707 0.343965 0.197819 0.153309
H11   H     H_    0.309216 0.320129 0.317137 0.171486
H12   H     H_    0.144730 0.475410 0.334680 0.133122
H13   H     H_    0.498838 0.349122 0.336293 0.146225
H14   H     H_    0.950140 0.984966 0.200479 0.132500
H15   H     H_    0.890391 0.829581 0.304393 0.164629
H16   H     H_    0.938634 0.960210 0.320926 0.087979
H17   H     H_    0.868316 0.626956 0.208641 0.188746
O1    O     O_R   0.267750 0.231960 0.575440 -0.504916
O2    O     O_R   0.596230 0.579400 0.952760 -0.506024
O3    O     O_R   0.639160 0.321170 0.958690 -0.498652
O4    O     O_R   0.527290 0.186640 0.570530 -0.494024
O5    O     O_R   0.821370 0.124220 0.104400 -0.503075
O6    O     O_R   0.037020 0.167050 0.097880 -0.510074
O7    O     O_R   0.056310 0.349620 0.102920 -0.512196
O8    O     O_R   0.797790 0.564880 0.097980 -0.491337
O9    O     O_R   0.596000 0.584270 0.104310 -0.506694
O10   O     O_R   0.638950 0.325690 0.099180 -0.490955
O11   O     O_3   0.824700 0.350240 0.028120 -0.265853
O12   O     O_R   0.685950 0.784660 0.430010 -0.504564
O13   O     O_R   0.728110 0.003450 0.576380 -0.504973
O14   O     O_R   0.682980 0.789190 0.570500 -0.495184
O15   O     O_R   0.499300 0.771880 0.575540 -0.504725
O16   O     O_R   0.285350 0.030870 0.569740 -0.493351
O17   O     O_R   0.270960 0.227070 0.423890 -0.523400
O18   O     O_R   0.530270 0.182120 0.430040 -0.511368
O19   O     O_R   0.731320 0.998570 0.424830 -0.510753
O20   O     O_3   0.470063 0.409350 0.208449 -0.716695
O21   O     O_R   0.502510 0.767000 0.423980 -0.525328
O22   O     O_R   0.288320 0.026340 0.429250 -0.508917
O23   O     O_3   0.499990 0.000020 0.499980 -0.251673
O24   O     O_R   0.821590 0.119350 0.952850 -0.496354
O25   O     O_R   0.037230 0.162540 0.957390 -0.494470
O26   O     O_R   0.056530 0.344750 0.951370 -0.503476
O27   O     O_R   0.798000 0.560370 0.957490 -0.489488

loop_
_geom_bond_atom_site_label_1
_geom_bond_atom_site_label_2
_ccdc_geom_bond_type
C25   C31   A    
C20   H12   S    
C19   C20   S    
Cr1   O18   S    
C30   H16   S    
Cr2   O12   S    
C7    C8    A    
C4    O15   A    
C35   O24   A    
Cr5   O27   S    
C7    C11   A    
C35   O3    A    
C26   C27   A    
C13   C18   A    
C20   H11   S    
Cr5   O7    S    
C39   O12   A    
C1    C2    S    
C5    C6    A    
Cr2   O23   S    
C4    O14   A    
C22   C38   S    
Cr4   O25   S    
C32   O25   A    
C9    H3    S    
C24   C29   S    
C39   O21   A    
C12   C42   T    
Cr2   O13   S    
C17   H6    S    
Cr6   O2    S    
C19   H8    S    
Cr4   O24   S    
C40   O17   A    
C4    C12   S    
C9    C10   S    
C9    H2    S    
C26   C31   A    
C13   C14   A    
C38   O10   A    
C41   C43   T    
C37   O9    A    
C7    H1    S    
Cr4   O6    S    
Cr6   O11   S    
C30   H15   S    
C29   H14   S    
C1    O13   A    
C15   C20   S    
C37   O8    A    
C46   C48   T    
C8    H17   S    
C16   O1    A    
Cr5   O8    S    
C34   C44   S    
C24   C25   A    
C13   C36   S    
C3    C8    A    
Cr3   O15   S    
C6    C11   A    
C18   H7    S    
C29   F1    S    
C17   C21   A    
C23   C44   T    
C33   O27   A    
Cr3   O16   S    
Cr4   O11   S    
C10   H5    S    
C5    C9    S    
C29   C30   S    
Cr2   O19   S    
C47   C48   S    
C17   C18   A    
Cr1   O4    S    
C27   O20   S    
C34   C45   T    
Cr1   O23   S    
C11   C39   S    
Cr3   O21   S    
C22   C27   A    
Cr5   O26   S    
Cr1   O1    S    
C42   C43   S    
H9    O20   S    
Cr4   O5    S    
Cr6   O10   S    
C25   C30   S    
Cr1   O17   S    
C1    O4    A    
C14   C19   S    
C28   C31   S    
C40   O22   A    
C3    C5    A    
C36   O7    A    
C16   C45   S    
C6    C10   S    
C38   O5    A    
C2    C47   T    
Cr5   O11   S    
C33   C41   S    
C23   C32   S    
C10   H4    S    
C26   H13   S    
C36   O6    A    
C21   C40   S    
C32   O26   A    
C19   H10   S    
C28   O19   A    
C22   C24   A    
Cr2   O14   S    
Cr3   O22   S    
Cr6   O3    S    
C33   O2    A    
C15   C21   A    
C3    C37   S    
C16   O16   A    
C14   C15   A    
C28   O18   A    
C35   C46   S    
Cr6   O9    S    
Cr3   O23   S    
