data_mof_unit_26675.cif
_audit_creation_date              2012-10-26T18:53:18-0400
_audit_creation_method            fapswitch 2.2
_symmetry_space_group_name_H-M    P1
_symmetry_Int_Tables_number       1
_space_group_crystal_system       triclinic
_cell_length_a                    14.706841
_cell_length_b                    14.893329
_cell_length_c                    15.910204
_cell_angle_alpha                 76.325451
_cell_angle_beta                  102.974253
_cell_angle_gamma                 115.271267
_cell_volume                      3031.5899098

loop_
_atom_site_label
_atom_site_type_symbol
_atom_type_description
_atom_site_fract_x
_atom_site_fract_y
_atom_site_fract_z
_atom_type_partial_charge
C1    C     C_R   0.880003 0.312684 0.514664 0.546371
C2    C     C_R   0.186555 0.794774 0.480109 0.057773
C3    C     C_R   0.780999 0.030182 0.574559 -0.079613
C4    C     C_R   0.999906 0.499954 0.659475 0.545315
C5    C     C_R   0.848358 0.130436 0.560964 -0.132972
C6    C     C_R   0.706757 0.180052 0.505693 -0.117612
C7    C     C_R   0.636854 0.080157 0.522701 -0.001309
C8    C     C_R   0.675345 0.003830 0.555770 0.101977
C9    C     C_R   0.530106 0.054344 0.506721 -0.016851
C10   C     C_R   0.463605 0.951808 0.512894 -0.015687
C11   C     C_R   0.503594 0.877830 0.549402 -0.113741
C12   C     C_3   0.036932 0.422050 0.072583 0.096984
C13   C     C_R   0.608249 0.902725 0.570571 0.245268
C14   C     C_R   0.487627 0.127388 0.487479 -0.093609
C15   C     C_R   0.382761 0.100749 0.474945 0.233558
C16   C     C_R   0.119786 0.687405 0.485149 0.585632
C17   C     C_R   0.316834 0.998534 0.480375 0.012339
C18   C     C_R   0.357442 0.925338 0.489304 -0.007260
C19   C     C_R   0.211444 0.966711 0.478052 -0.094552
C20   C     C_R   0.147885 0.865288 0.482007 -0.177208
C21   C     C_R   0.289711 0.827103 0.474539 0.239337
C22   C     C_R   0.692027 0.625896 0.330929 -0.129154
C23   C     C_3   0.998683 0.502136 0.082614 -0.048236
C24   C     C_R   0.784207 0.617029 0.364380 0.071005
C25   C     C_R   0.719867 0.517093 0.494715 0.066013
C26   C     C_R   0.624519 0.524949 0.465102 0.006069
C27   C     C_R   0.610985 0.577386 0.379806 -0.003728
C28   C     C_R   0.000131 0.500145 0.340475 0.564566
C29   C     C_R   0.541741 0.480657 0.515224 0.018505
C30   C     C_R   0.446848 0.488731 0.478248 0.042493
C31   C     C_R   0.431759 0.522471 0.386580 0.256944
C32   C     C_R   0.514827 0.574067 0.341216 -0.046123
C33   C     C_R   0.548982 0.425082 0.599427 -0.094406
C34   C     C_3   0.073776 0.608339 0.039801 0.057811
C35   C     C_R   0.467362 0.380398 0.646245 -0.012133
C36   C     C_R   0.377888 0.397499 0.615854 -0.007696
C37   C     C_R   0.369138 0.457224 0.532883 -0.055119
C38   C     C_R   0.296767 0.356109 0.666288 0.210028
C39   C     C_R   0.205982 0.369833 0.629286 0.375639
C40   C     C_3   0.016807 0.409392 0.975020 0.149375
C41   C     C_R   0.284826 0.486730 0.510531 0.323028
C42   C     C_3   0.895659 0.500039 0.929190 0.039211
C43   C     C_3   0.886793 0.480108 0.031010 0.411065
C44   C     C_1   0.000346 0.500635 0.251073 0.107902
C45   C     C_3   0.087484 0.602064 0.945625 0.101543
C46   C     C_3   0.000442 0.502456 0.915933 -0.081075
C47   C     C_1   0.999925 0.501444 0.175426 0.138712
C48   C     C_1   0.000202 0.501526 0.823815 0.103831
C49   C     C_1   0.000077 0.500660 0.748624 0.088965
C50   C     C_R   0.811406 0.205881 0.526593 0.006742
Cu1   Cu    Cu3+1 0.081750 0.475690 0.522550 1.148176
Cu2   Cu    Cu3+1 0.918250 0.524310 0.477450 0.988645
H1    H     H_    0.120375 0.450145 0.093715 0.245606
H2    H     H_    0.177562 0.018587 0.477278 0.214733
H3    H     H_    0.502309 0.605044 0.272809 0.156141
H4    H     H_    0.476556 0.332534 0.707215 0.219061
H5    H     H_    0.682862 0.666923 0.265758 0.126658
H6    H     H_    0.845276 0.650704 0.325030 0.148943
H7    H     H_    0.734546 0.473040 0.556165 0.140868
H8    H     H_    0.901057 0.577900 0.902678 0.094756
H9    H     H_    0.615985 0.411489 0.630272 0.145342
H10   H     H_    0.073997 0.666202 0.900458 0.103443
H11   H     H_    0.030417 0.331045 0.183595 0.347974
H12   H     H_    0.035223 0.660697 0.027896 0.098975
H13   H     H_    0.094125 0.328514 0.984569 0.356781
H14   H     H_    0.589282 0.762276 0.610480 0.335943
H15   H     H_    0.378442 0.808123 0.413144 0.330104
H16   H     H_    0.269865 0.167418 0.316013 0.357951
H17   H     H_    0.354389 0.615317 0.443505 0.337719
H18   H     H_    0.114820 0.248601 0.690790 0.346608
H19   H     H_    0.289776 0.434612 0.366845 0.377240
H20   H     H_    0.232000 0.250400 0.889739 0.384474
H21   H     H_    0.814564 0.321065 0.812729 0.335119
H22   H     H_    0.633229 0.284384 0.071244 0.374132
H23   H     H_    0.068017 0.842397 0.484936 0.152210
H24   H     H_    0.874331 0.612601 0.012837 0.305052
H25   H     H_    0.341780 0.587970 0.004106 0.383748
H26   H     H_    0.309501 0.640843 0.198436 0.395279
H27   H     H_    0.812117 0.973497 0.600567 0.186672
H28   H     H_    0.929184 0.148786 0.577498 0.157018
H29   H     H_    0.681626 0.239443 0.474168 0.139894
H30   H     H_    0.946839 0.341689 0.962691 0.219653
H31   H     H_    0.453496 0.799885 0.565190 0.158510
H32   H     H_    0.534408 0.206119 0.486558 0.151339
N1    N     N_R   0.795410 0.560790 0.443550 -0.242747
N2    N     N_R   0.204590 0.439170 0.556520 -0.207740
O1    O     O_R   0.977910 0.338120 0.529720 -0.471296
O2    O     O_3   0.097524 0.395951 0.953866 -0.602058
O3    O     O_3   0.646313 0.829292 0.605496 -0.690357
O4    O     O_3   0.319954 0.765439 0.445351 -0.673172
O5    O     O_2   0.299487 0.204523 0.524643 -0.265725
O6    O     O_2   0.420662 0.297396 0.419962 -0.298489
O7    O     O_3   0.241288 0.174582 0.363619 -0.500958
O8    O     O_3   0.283349 0.566414 0.446433 -0.573678
O9    O     O_3   0.118562 0.317703 0.667061 -0.607188
O10   O     O_3   0.337021 0.498617 0.337249 -0.636840
O11   O     O_2   0.303900 0.192540 0.777819 -0.255675
O12   O     O_R   0.839850 0.379180 0.491640 -0.518640
O13   O     O_2   0.411558 0.355866 0.824475 -0.227429
O14   O     O_3   0.219555 0.287311 0.830740 -0.468502
O15   O     O_2   0.689251 0.424707 0.883292 -0.118353
O16   O     O_2   0.790831 0.487142 0.765785 -0.338303
O17   O     O_3   0.774644 0.314051 0.858159 -0.457534
O18   O     O_2   0.795770 0.272946 0.031178 -0.193516
O19   O     O_2   0.818453 0.329670 0.168756 -0.262153
O20   O     O_3   0.678280 0.354041 0.049500 -0.383746
O21   O     O_3   0.849363 0.545647 0.049447 -0.629962
O22   O     O_2   0.210632 0.581228 0.850438 -0.221937
O23   O     O_R   0.069060 0.479460 0.639610 -0.433772
O24   O     O_2   0.278717 0.732370 0.915543 -0.206233
O25   O     O_3   0.271325 0.564967 0.015977 -0.427833
O26   O     O_2   0.259084 0.764938 0.063129 -0.180463
O27   O     O_2   0.155154 0.706322 0.179071 -0.277708
O28   O     O_3   0.246467 0.596834 0.166046 -0.466778
O29   O     O_R   0.931000 0.520530 0.601530 -0.511799
O30   O     O_R   0.160150 0.620820 0.508360 -0.405311
O31   O     O_R   0.022090 0.661880 0.470280 -0.532361
O32   O     O_R   0.069000 0.479470 0.398470 -0.448200
O33   O     O_R   0.930940 0.520540 0.360390 -0.506612
O34   O     O_3   0.991706 0.327978 0.123814 -0.638356
S1    S     S_3+6 0.337315 0.198354 0.446860 -0.011336
S2    S     S_3+6 0.310230 0.296143 0.777074 0.040137
S3    S     S_3+6 0.784112 0.430826 0.857612 0.060382
S4    S     S_3+6 0.795813 0.354621 0.071208 0.172084
S5    S     S_3+6 0.214610 0.621485 0.929914 0.117282
S6    S     S_3+6 0.186889 0.672687 0.112563 0.062189

loop_
_geom_bond_atom_site_label_1
_geom_bond_atom_site_label_2
_ccdc_geom_bond_type
C1    O1    A    
C4    O23   A    
C8    C13   A    
C18   C21   A    
C4    O29   A    
C19   C20   A    
C14   H32   S    
O17   S3    S    
C22   H5    S    
C7    C8    A    
C45   C46   S    
C40   C46   S    
C41   N2    A    
C12   C23   S    
C26   C27   A    
O15   S3    D    
C36   C37   A    
O7    S1    S    
C30   C31   A    
O28   S6    S    
C31   O10   S    
C29   C33   A    
C45   H10   S    
Cu1   O32   S    
C23   C43   S    
C30   C37   A    
C15   C17   A    
C42   C46   S    
H25   O25   S    
C17   C19   A    
C12   O34   S    
C35   C36   A    
C45   S5    S    
O25   S5    S    
O22   S5    D    
C2    C16   S    
C1    C50   S    
C32   H3    S    
O26   S6    D    
C12   H1    S    
C44   C47   T    
Cu2   O31   S    
C27   C32   A    
C3    H27   S    
Cu1   O23   S    
C6    H29   S    
O11   S2    D    
H26   O28   S    
C16   O30   A    
Cu1   N2    S    
C34   H12   S    
C42   S3    S    
H14   O3    S    
C21   O4    S    
C46   C48   S    
C23   C47   S    
C2    C20   A    
Cu1   Cu2   S    
C40   H30   S    
C3    C8    A    
Cu1   O1    S    
C24   N1    A    
O27   S6    D    
C11   H31   S    
C25   C26   A    
C28   C44   S    
H15   O4    S    
C20   H23   S    
C12   C40   S    
C9    C14   A    
C29   C30   A    
H22   O20   S    
C41   O8    S    
C34   S6    S    
C23   C34   S    
C2    C21   A    
C25   N1    A    
C17   C18   A    
C34   C45   S    
C43   O21   S    
C6    C50   A    
C5    H28   S    
C39   O9    S    
C38   S2    S    
O13   S2    D    
O18   S4    D    
C19   H2    S    
C24   H6    S    
C48   C49   T    
H17   O8    S    
H24   O21   S    
C22   C27   A    
C22   C24   A    
C5    C50   A    
C42   C43   S    
C42   H8    S    
O16   S3    D    
H13   O2    S    
H20   O14   S    
Cu2   O29   S    
C7    C9    A    
Cu2   N1    S    
C15   S1    S    
C13   O3    S    
C35   H4    S    
C31   C32   A    
H16   O7    S    
C3    C5    A    
C28   O33   A    
C1    O12   A    
C6    C7    A    
H19   O10   S    
Cu1   O30   S    
C4    C49   S    
C40   O2    S    
C36   C38   A    
H18   O9    S    
C28   O32   A    
C16   O31   A    
H11   O34   S    
C11   C13   A    
C38   C39   A    
C10   C18   A    
Cu2   O12   S    
C33   C35   A    
C9    C10   A    
O14   S2    S    
C37   C41   A    
C10   C11   A    
O24   S5    D    
Cu2   O33   S    
H21   O17   S    
O19   S4    D    
C26   C29   A    
C33   H9    S    
O5    S1    D    
O20   S4    S    
C14   C15   A    
C25   H7    S    
C39   N2    A    
O6    S1    D    
C43   S4    S    
