data_mof_unit_44092.cif
_audit_creation_date              2012-12-10T19:17:48-0500
_audit_creation_method            fapswitch 2.2
_symmetry_space_group_name_H-M    P1
_symmetry_Int_Tables_number       1
_space_group_crystal_system       triclinic
_cell_length_a                    16.180646
_cell_length_b                    14.787059
_cell_length_c                    10.769922
_cell_angle_alpha                 89.069591
_cell_angle_beta                  90.053357
_cell_angle_gamma                 90.052376
_cell_volume                      2576.51451282

loop_
_atom_site_label
_atom_site_type_symbol
_atom_type_description
_atom_site_fract_x
_atom_site_fract_y
_atom_site_fract_z
_atom_type_partial_charge
C1    C     C_R   0.340801 0.499772 0.497317 0.814055
C2    C     C_R   0.659014 0.499705 0.499793 0.800004
C3    C     C_1   0.822229 0.494476 0.495326 -0.052366
C4    C     C_1   0.176981 0.495727 0.488587 -0.046567
C5    C     C_R   0.955136 0.574533 0.468370 -0.053585
C6    C     C_R   0.043510 0.411510 0.497719 -0.046088
C7    C     C_R   0.042517 0.575450 0.470268 -0.053302
C8    C     C_R   0.955952 0.411582 0.506209 -0.044790
C9    C     C_R   0.911775 0.493107 0.489888 0.003258
C10   C     C_R   0.087112 0.493914 0.484470 0.014397
C11   C     C_R   0.499885 0.500917 0.259261 0.884038
C12   C     C_R   0.499695 0.499344 0.741024 0.826610
C13   C     C_1   0.251698 0.498371 0.492895 -0.195345
C14   C     C_1   0.747731 0.497769 0.498300 -0.177100
C15   C     C_R   0.576764 0.951520 0.519703 0.350169
C16   C     C_R   0.426671 0.047019 0.494355 0.341517
C17   C     C_R   0.427885 0.951612 0.483041 0.358984
C18   C     C_R   0.576216 0.047726 0.521187 0.345782
C19   C     C_R   0.502305 0.902571 0.500736 -0.315589
C20   C     C_R   0.501105 0.096691 0.507323 -0.290470
C21   C     C_3   0.498147 0.586618 0.037079 0.411896
C22   C     C_3   0.501352 0.414441 0.965510 0.352586
C23   C     C_3   0.565209 0.544238 0.955779 0.357945
C24   C     C_3   0.433161 0.458069 0.044858 0.345558
C25   C     C_3   0.429689 0.542656 0.959135 -0.228111
C26   C     C_3   0.569697 0.460892 0.043902 -0.235398
C27   C     C_3   0.497500 0.498718 0.876893 -0.292166
C28   C     C_3   0.500904 0.503103 0.123855 -0.253880
C29   C     C_1   0.501277 0.802447 0.499953 0.232811
C30   C     C_1   0.500505 0.197231 0.503268 0.235294
Cu1   Cu    Cu3+1 0.500000 0.589220 0.500000 0.985524
Cu2   Cu    Cu3+1 0.500000 0.410780 0.500000 0.963484
N1    N     N_1   0.500000 0.276710 0.500000 -0.195562
N2    N     N_1   0.500000 0.723290 0.500000 -0.166401
O1    O     O_R   0.380310 0.575320 0.500020 -0.574590
O2    O     O_R   0.619690 0.424680 0.499980 -0.583973
O3    O     O_R   0.619690 0.575320 0.499980 -0.578469
O4    O     O_R   0.380310 0.424680 0.500020 -0.582773
O5    O     O_R   0.499980 0.575330 0.316850 -0.552310
O6    O     O_R   0.500020 0.424670 0.683150 -0.550476
O7    O     O_R   0.500020 0.575330 0.683150 -0.587258
O8    O     O_R   0.499980 0.424670 0.316850 -0.579826
O9    O     O_3   0.651398 0.092652 0.527139 -0.574434
C31   C     C_3   0.659691 0.138906 0.640922 0.025839
H1    H     H_    0.707875 0.104648 0.697749 0.143706
H2    H     H_    0.602279 0.140687 0.698435 0.128380
C32   C     C_3   0.688946 0.235406 0.613820 -0.279565
H3    H     H_    0.749676 0.234594 0.568939 0.241245
H4    H     H_    0.647971 0.268273 0.545830 0.253791
C33   C     C_3   0.693427 0.291690 0.730622 -0.913258
H5    H     H_    0.630361 0.302161 0.767989 0.290375
H6    H     H_    0.721103 0.358590 0.707819 0.253841
H7    H     H_    0.732587 0.257412 0.801750 0.239148
O10   O     O_3   0.353785 0.906990 0.461823 -0.577925
C34   C     C_3   0.352745 0.869395 0.341089 0.093050
H8    H     H_    0.313515 0.807761 0.345168 0.180590
H9    H     H_    0.414375 0.847181 0.307316 0.131526
C35   C     C_3   0.316031 0.936059 0.245954 -0.393998
H10   H     H_    0.254891 0.959832 0.278229 0.215630
H11   H     H_    0.358301 0.994578 0.234896 0.198832
C36   C     C_3   0.305291 0.893285 0.119392 -0.926288
H12   H     H_    0.262578 0.835067 0.125833 0.252202
H13   H     H_    0.365537 0.869580 0.084783 0.267376
H14   H     H_    0.279763 0.943848 0.052403 0.256994
O11   O     O_3   0.350919 0.089823 0.504325 -0.569314
C37   C     C_3   0.331417 0.137226 0.393252 0.046850
H15   H     H_    0.278163 0.103379 0.348936 0.151560
H16   H     H_    0.382897 0.140563 0.324302 0.109696
C38   C     C_3   0.304697 0.232963 0.423642 -0.328576
H17   H     H_    0.247518 0.232049 0.477968 0.242792
H18   H     H_    0.350264 0.265250 0.483862 0.256072
C39   C     C_3   0.293056 0.288714 0.305468 -0.841035
H19   H     H_    0.353806 0.297023 0.259296 0.287091
H20   H     H_    0.267825 0.356191 0.327410 0.269528
H21   H     H_    0.249622 0.254037 0.242055 0.226677
O12   O     O_3   0.652695 0.907949 0.517777 -0.580991
C40   C     C_3   0.666052 0.855984 0.627678 0.099482
H22   H     H_    0.704817 0.797201 0.602463 0.182697
H23   H     H_    0.609106 0.826762 0.669252 0.114801
C41   C     C_3   0.711232 0.911660 0.725184 -0.364507
H24   H     H_    0.761276 0.952020 0.680628 0.225174
H25   H     H_    0.666741 0.958911 0.767868 0.199188
C42   C     C_3   0.748644 0.851204 0.826740 -0.944701
H26   H     H_    0.701739 0.803291 0.864070 0.279663
H27   H     H_    0.771931 0.893523 0.903490 0.253553
H28   H     H_    0.801071 0.811897 0.789028 0.243582
C43   C     C_R   0.348802 0.588816 0.930108 0.131620
C44   C     C_R   0.305106 0.631543 0.025595 -0.135326
C45   C     C_R   0.227648 0.669934 0.001992 -0.185941
C46   C     C_R   0.193489 0.666486 0.883166 -0.104035
C47   C     C_R   0.236439 0.623746 0.788240 -0.131629
C48   C     C_R   0.313465 0.584781 0.811712 -0.137841
H29   H     H_    0.330292 0.633523 0.118731 0.159814
H30   H     H_    0.193390 0.700839 0.076222 0.122466
H31   H     H_    0.133338 0.695825 0.865408 0.114046
H32   H     H_    0.209766 0.619088 0.696807 0.146984
H33   H     H_    0.343686 0.548888 0.738717 0.128104
C49   C     C_R   0.652822 0.429124 0.091467 0.149848
C50   C     C_R   0.688939 0.349067 0.049132 -0.167642
C51   C     C_R   0.770262 0.326797 0.080616 -0.158961
C52   C     C_R   0.817174 0.385688 0.151948 -0.105744
C53   C     C_R   0.782039 0.465565 0.194152 -0.148767
C54   C     C_R   0.700011 0.486838 0.165688 -0.115189
H34   H     H_    0.656146 0.305947 0.986979 0.157906
H35   H     H_    0.797824 0.265557 0.045798 0.121182
H36   H     H_    0.881276 0.370681 0.171802 0.112274
H37   H     H_    0.819083 0.512189 0.246121 0.136876
H38   H     H_    0.674684 0.550446 0.196377 0.142662
O13   O     O_3   0.501795 0.676310 0.080581 -0.592203
C55   C     C_3   0.490241 0.738870 0.981194 0.092205
H39   H     H_    0.423361 0.752272 0.968941 0.154061
H40   H     H_    0.515051 0.714693 0.891094 0.176005
C56   C     C_3   0.533378 0.827832 0.011112 -0.326783
H41   H     H_    0.513085 0.851992 0.103374 0.220578
H42   H     H_    0.601031 0.816195 0.015905 0.232850
C57   C     C_3   0.514457 0.900424 0.912345 -0.949464
H43   H     H_    0.520360 0.872932 0.817760 0.253205
H44   H     H_    0.558301 0.957540 0.920872 0.255082
H45   H     H_    0.450650 0.926418 0.923495 0.267553
O14   O     O_3   0.501547 0.323142 0.927427 -0.611119
C58   C     C_3   0.496392 0.264628 0.032978 0.073245
H46   H     H_    0.431725 0.258545 0.064610 0.158176
H47   H     H_    0.533407 0.289221 0.112837 0.160224
C59   C     C_3   0.526357 0.169723 0.000746 -0.367177
H48   H     H_    0.484518 0.139970 0.930364 0.226712
H49   H     H_    0.589415 0.172858 0.960485 0.210671
C60   C     C_3   0.527895 0.108719 0.116758 -0.922207
H50   H     H_    0.564572 0.140244 0.191878 0.266779
H51   H     H_    0.556665 0.042855 0.095636 0.265245
H52   H     H_    0.464003 0.096409 0.150042 0.241274
O15   O     O_3   0.631324 0.599039 0.912948 -0.614130
C61   C     C_3   0.688845 0.549400 0.843013 0.075931
H53   H     H_    0.678638 0.564889 0.743138 0.144478
H54   H     H_    0.683248 0.474900 0.855525 0.145243
C62   C     C_3   0.776129 0.580135 0.878303 -0.311130
H55   H     H_    0.789154 0.646695 0.833213 0.202047
H56   H     H_    0.780311 0.588919 0.980279 0.239511
C63   C     C_3   0.841991 0.512570 0.839682 -0.953708
H57   H     H_    0.831450 0.445982 0.885922 0.271262
H58   H     H_    0.904027 0.537776 0.866587 0.251235
H59   H     H_    0.840731 0.503915 0.738105 0.265370
O16   O     O_3   0.362589 0.415678 0.097284 -0.634526
C64   C     C_3   0.308554 0.383080 0.004014 0.098536
H60   H     H_    0.310736 0.308173 0.004124 0.138818
H61   H     H_    0.324596 0.406044 0.907967 0.152703
C65   C     C_3   0.219427 0.410254 0.033644 -0.329905
H62   H     H_    0.198381 0.375318 0.119768 0.208563
H63   H     H_    0.215513 0.483687 0.049823 0.244621
C66   C     C_3   0.160802 0.386334 0.928366 -0.957925
H64   H     H_    0.178652 0.423360 0.841869 0.265685
H65   H     H_    0.096742 0.405891 0.953215 0.254159
H66   H     H_    0.162374 0.312362 0.912122 0.249532
C67   C     C_R   0.085728 0.663568 0.460676 0.151609
C68   C     C_R   0.095592 0.715622 0.567375 -0.172472
C69   C     C_R   0.124942 0.804272 0.557896 -0.108543
C70   C     C_R   0.142330 0.842266 0.441351 -0.067739
C71   C     C_R   0.131836 0.791050 0.334424 -0.171020
C72   C     C_R   0.104408 0.701514 0.343910 -0.137861
H67   H     H_    0.077390 0.688471 0.657136 0.107628
H68   H     H_    0.131959 0.844297 0.640501 0.128278
H69   H     H_    0.162692 0.911781 0.434094 0.131229
H70   H     H_    0.143073 0.821375 0.244104 0.126177
H71   H     H_    0.094206 0.663171 0.260442 0.114194
C73   C     C_R   0.913591 0.325033 0.538402 0.140913
C74   C     C_R   0.909769 0.297285 0.663695 -0.148411
C75   C     C_R   0.896337 0.206274 0.695272 -0.151318
C76   C     C_R   0.886142 0.142410 0.602113 -0.103723
C77   C     C_R   0.886481 0.170056 0.477322 -0.113531
C78   C     C_R   0.899229 0.261181 0.445553 -0.143254
H72   H     H_    0.923134 0.344807 0.736462 0.129355
H73   H     H_    0.895641 0.184980 0.791875 0.119310
H74   H     H_    0.876897 0.071858 0.626579 0.117756
H75   H     H_    0.878271 0.120709 0.405216 0.133981
H76   H     H_    0.904578 0.280446 0.348739 0.116812
C79   C     C_R   0.909951 0.660134 0.443089 0.153636
C80   C     C_R   0.889648 0.685060 0.320476 -0.156911
C81   C     C_R   0.855187 0.769929 0.294422 -0.138874
C82   C     C_R   0.843295 0.831343 0.389996 -0.065773
C83   C     C_R   0.864951 0.807425 0.511770 -0.146558
C84   C     C_R   0.896355 0.721383 0.539000 -0.146652
H77   H     H_    0.902834 0.640037 0.244821 0.110089
H78   H     H_    0.839599 0.788885 0.199773 0.127210
H79   H     H_    0.818307 0.897820 0.369561 0.150643
H80   H     H_    0.858271 0.855936 0.584873 0.133396
H81   H     H_    0.913243 0.703804 0.633693 0.118158
C85   C     C_R   0.086665 0.322954 0.502863 0.142535
C86   C     C_R   0.087612 0.269442 0.396144 -0.151067
C87   C     C_R   0.100998 0.176079 0.406513 -0.161753
C88   C     C_R   0.115562 0.135992 0.523038 -0.086625
C89   C     C_R   0.118600 0.189561 0.628812 -0.124874
C90   C     C_R   0.104225 0.282698 0.618765 -0.158536
H82   H     H_    0.072045 0.298907 0.306408 0.115840
H83   H     H_    0.099176 0.134750 0.324548 0.119700
H84   H     H_    0.125487 0.063795 0.531166 0.127820
H85   H     H_    0.129813 0.158589 0.718979 0.128013
H86   H     H_    0.100235 0.322214 0.701973 0.133371

loop_
_geom_bond_atom_site_label_1
_geom_bond_atom_site_label_2
_ccdc_geom_bond_type
C7    C10   A    
C37   H16   S    
C34   H8    S    
C50   C51   A    
C89   C90   A    
C62   C63   S    
C15   C18   A    
C63   H57   S    
C43   C44   A    
C82   C83   A    
C76   H74   S    
C66   H64   S    
C62   H55   S    
C32   H4    S    
C20   C30   S    
C40   H22   S    
C31   H1    S    
C22   O14   S    
C51   H35   S    
C74   C75   A    
Cu2   O2    S    
C73   C74   A    
C65   H62   S    
C66   H65   S    
C37   C38   S    
C35   H11   S    
C49   C54   A    
C49   C50   A    
C64   H61   S    
C25   C43   S    
C57   H43   S    
C11   O8    A    
C36   H13   S    
C23   C26   S    
C67   C72   A    
C38   H18   S    
C90   H86   S    
C58   C59   S    
C47   H32   S    
C55   H39   S    
C88   H84   S    
C71   C72   A    
Cu1   Cu2   S    
C24   O16   S    
C61   H53   S    
C32   H3    S    
C33   H6    S    
C78   H76   S    
C54   H38   S    
C23   C27   S    
C18   C20   A    
C36   H12   S    
C31   C32   S    
C39   H19   S    
C56   C57   S    
C35   C36   S    
C37   H15   S    
C75   H73   S    
C67   C68   A    
C43   C48   A    
C5    C79   S    
C73   C78   A    
C80   H77   S    
C41   C42   S    
C31   H2    S    
C48   H33   S    
C32   C33   S    
C65   H63   S    
C40   H23   S    
C77   H75   S    
C33   H7    S    
C12   C27   S    
C53   C54   A    
C52   C53   A    
C24   C28   S    
C46   H31   S    
C52   H36   S    
O12   C40   S    
C39   H20   S    
C57   H44   S    
C8    C73   S    
C66   H66   S    
C47   C48   A    
C5    C7    A    
C44   H29   S    
C8    C9    A    
C6    C8    A    
C35   H10   S    
C29   N2    T    
Cu1   O3    S    
C87   C88   A    
C70   C71   A    
C12   O6    A    
C36   H14   S    
C15   C19   A    
O9    C31   S    
C60   H51   S    
C5    C9    A    
C12   O7    A    
C3    C9    S    
C65   C66   S    
C42   H26   S    
C7    C67   S    
C16   C20   A    
C33   H5    S    
C68   C69   A    
Cu1   N2    S    
C23   O15   S    
C88   C89   A    
C24   C25   S    
C11   O5    A    
C55   C56   S    
C58   H46   S    
C56   H41   S    
C3    C14   T    
C63   H58   S    
C1    O4    A    
C26   C49   S    
C59   C60   S    
C89   H85   S    
C41   H25   S    
C77   C78   A    
C42   H27   S    
C21   C28   S    
C70   H69   S    
C81   C82   A    
Cu2   O4    S    
C22   C27   S    
C34   H9    S    
C75   C76   A    
C22   C24   S    
C1    C13   S    
C64   C65   S    
C4    C10   S    
C60   H50   S    
C19   C29   S    
C53   H37   S    
C76   C77   A    
C38   C39   S    
O14   C58   S    
C1    O1    A    
C59   H49   S    
C83   H80   S    
C85   C90   A    
C40   C41   S    
C2    O2    A    
C74   H72   S    
C62   H56   S    
C21   C25   S    
O10   C34   S    
C80   C81   A    
Cu1   O7    S    
C30   N1    T    
C69   H68   S    
C72   H71   S    
C82   H79   S    
C41   H24   S    
C63   H59   S    
C84   H81   S    
C45   H30   S    
C21   O13   S    
C79   C84   A    
C25   C27   S    
C6    C85   S    
C26   C28   S    
C57   H45   S    
Cu2   N1    S    
C21   C23   S    
C64   H60   S    
C45   C46   A    
C60   H52   S    
C68   H67   S    
C79   C80   A    
O15   C61   S    
C2    O3    A    
C39   H21   S    
C46   C47   A    
C16   C17   A    
C11   C28   S    
C61   C62   S    
C71   H70   S    
C51   C52   A    
C17   C19   A    
C86   H82   S    
C50   H34   S    
Cu1   O1    S    
Cu2   O6    S    
C38   H17   S    
C2    C14   S    
C55   H40   S    
C58   H47   S    
C87   H83   S    
C6    C10   A    
C83   C84   A    
C86   C87   A    
C42   H28   S    
C44   C45   A    
C61   H54   S    
O11   C37   S    
C22   C26   S    
C34   C35   S    
C18   O9    S    
C69   C70   A    
Cu1   O5    S    
Cu2   O8    S    
O16   C64   S    
C15   O12   S    
C16   O11   S    
C85   C86   A    
O13   C55   S    
C17   O10   S    
C81   H78   S    
C4    C13   T    
C59   H48   S    
C56   H42   S    
