data_mof_unit_56658.cif
_audit_creation_date              2012-12-11T15:19:34-0500
_audit_creation_method            fapswitch 2.2
_symmetry_space_group_name_H-M    P1
_symmetry_Int_Tables_number       1
_space_group_crystal_system       triclinic
_cell_length_a                    19.959904
_cell_length_b                    6.879981
_cell_length_c                    18.126962
_cell_angle_alpha                 89.993867
_cell_angle_beta                  104.025666
_cell_angle_gamma                 89.994384
_cell_volume                      2415.05080886

loop_
_atom_site_label
_atom_site_type_symbol
_atom_type_description
_atom_site_fract_x
_atom_site_fract_y
_atom_site_fract_z
_atom_type_partial_charge
O1    O     O_R   0.312200 0.620210 0.189560 -0.537601
O2    O     O_R   0.687800 0.379790 0.810440 -0.539899
O3    O     O_R   0.187800 0.120210 0.310440 -0.539783
O4    O     O_R   0.812200 0.879790 0.689560 -0.538102
O5    O     O_R   0.171590 0.286140 0.165000 -0.533065
O6    O     O_R   0.828410 0.713860 0.835000 -0.532449
O7    O     O_R   0.328410 0.786140 0.335000 -0.532892
O8    O     O_R   0.671590 0.213860 0.665000 -0.533181
C1    C     C_R   0.145638 0.459513 0.143866 0.710504
C2    C     C_R   0.854316 0.540478 0.856195 0.713992
C3    C     C_R   0.354326 0.959498 0.356184 0.712292
C4    C     C_R   0.645644 0.040507 0.643853 0.710404
O9    O     O_R   0.310670 0.290220 0.180540 -0.539890
O10   O     O_R   0.689330 0.709780 0.819460 -0.540801
O11   O     O_R   0.189330 0.790220 0.319460 -0.542892
O12   O     O_R   0.810670 0.209780 0.680540 -0.540708
O13   O     O_R   0.327870 0.124170 0.326080 -0.532346
O14   O     O_R   0.672130 0.875830 0.673920 -0.532661
O15   O     O_R   0.172130 0.624170 0.173920 -0.532194
O16   O     O_R   0.827870 0.375830 0.826080 -0.532910
C5    C     C_R   0.331799 0.459334 0.164865 0.702487
C6    C     C_R   0.667894 0.540766 0.834884 0.705427
C7    C     C_R   0.168232 0.959353 0.335296 0.704500
C8    C     C_R   0.831954 0.040697 0.665054 0.703547
O17   O     O_3   0.255480 0.455050 0.297740 -0.364868
O18   O     O_3   0.744520 0.544950 0.702260 -0.363400
O19   O     O_3   0.244520 0.955050 0.202260 -0.362532
O20   O     O_3   0.755480 0.044950 0.797740 -0.364127
V1    V     V_3+5 0.248980 0.178550 0.241140 1.413979
V2    V     V_3+5 0.751020 0.821450 0.758860 1.414288
V3    V     V_3+5 0.251020 0.678550 0.258860 1.411949
V4    V     V_3+5 0.748980 0.321450 0.741140 1.412011
C9    C     C_R   0.936491 0.158829 0.626736 -0.232876
C10   C     C_R   0.069078 0.827025 0.380926 -0.221804
C11   C     C_R   0.566464 0.668035 0.877442 -0.221968
C12   C     C_R   0.438166 0.347606 0.128886 -0.230494
C13   C     C_R   0.881010 0.030523 0.615720 -0.081403
C14   C     C_R   0.119442 0.969580 0.385196 -0.086174
C15   C     C_R   0.619187 0.531442 0.884854 -0.081267
C16   C     C_R   0.380869 0.469577 0.115512 -0.088510
C17   C     C_R   0.872735 0.890772 0.558657 -0.217791
C18   C     C_R   0.122779 0.123284 0.436051 -0.219195
C19   C     C_R   0.625775 0.387058 0.940000 -0.225275
C20   C     C_R   0.371648 0.606140 0.057305 -0.212028
C21   C     C_R   0.919421 0.875877 0.511391 0.058277
C22   C     C_R   0.077673 0.134707 0.485259 0.058841
C23   C     C_R   0.582862 0.383235 0.991761 0.060704
C24   C     C_R   0.418683 0.622466 0.010499 0.062610
C25   C     C_R   0.976264 0.006767 0.523354 -0.029512
C26   C     C_R   0.024157 0.993928 0.477586 -0.015993
C27   C     C_R   0.525488 0.512012 0.979298 -0.018805
C28   C     C_R   0.477433 0.497741 0.024799 -0.030962
C29   C     C_R   0.985232 0.149567 0.581721 0.060523
C30   C     C_R   0.018901 0.839913 0.424052 0.060449
C31   C     C_R   0.517207 0.657406 0.921858 0.059881
C32   C     C_R   0.487711 0.358572 0.084741 0.061393
C33   C     C_R   0.910765 0.731372 0.453580 0.046642
C34   C     C_R   0.085737 0.281639 0.542223 0.039938
C35   C     C_R   0.596890 0.255416 0.055598 0.046559
C36   C     C_R   0.408558 0.762884 0.950993 0.045060
C37   C     C_R   0.963319 0.704472 0.413554 0.043843
C38   C     C_R   0.042228 0.280105 0.594005 0.053091
C39   C     C_R   0.547829 0.237904 0.101111 0.056504
C40   C     C_R   0.460200 0.788210 0.909595 0.043654
H1    H     H_    0.940509 0.264870 0.671436 0.127910
H2    H     H_    0.068443 0.711297 0.340631 0.130477
H3    H     H_    0.563475 0.776906 0.833956 0.126292
H4    H     H_    0.443751 0.248880 0.176205 0.132373
H5    H     H_    0.829126 0.794311 0.552526 0.128135
H6    H     H_    0.163033 0.228964 0.437841 0.131512
H7    H     H_    0.665661 0.279894 0.941894 0.129001
H8    H     H_    0.326975 0.698934 0.050032 0.124831
C41   C     C_1   0.583089 0.027561 0.581708 -0.199909
C42   C     C_1   0.416780 0.972455 0.418457 -0.203682
C43   C     C_1   0.916769 0.527491 0.918469 -0.203786
C44   C     C_1   0.083082 0.472489 0.081727 -0.198252
C45   C     C_1   0.530740 0.010940 0.530321 0.004779
C46   C     C_1   0.469066 0.989077 0.469926 0.002808
C47   C     C_1   0.969056 0.510896 0.969941 0.000080
C48   C     C_1   0.030733 0.489083 0.030339 0.004048
C49   C     C_3   0.842969 0.617965 0.430358 -0.376102
C50   C     C_3   0.842241 0.437660 0.480142 -0.291084
C51   C     C_3   0.771681 0.338944 0.460104 -0.754502
H9    H     H_    0.731301 0.440090 0.469842 0.223973
H10   H     H_    0.758577 0.292161 0.399651 0.220158
H11   H     H_    0.772425 0.208859 0.496470 0.216518
H12   H     H_    0.881493 0.331985 0.471537 0.201999
H13   H     H_    0.854907 0.477028 0.541264 0.196531
H14   H     H_    0.798827 0.715045 0.431771 0.168886
H15   H     H_    0.831871 0.573040 0.369969 0.174737
C52   C     C_3   0.140229 0.440779 0.547378 -0.351072
C53   C     C_3   0.212505 0.370419 0.589669 -0.309664
C54   C     C_3   0.266170 0.530797 0.594102 -0.772869
H16   H     H_    0.268693 0.576437 0.536041 0.232087
H17   H     H_    0.252911 0.658467 0.625319 0.225321
H18   H     H_    0.317767 0.476153 0.624779 0.217481
H19   H     H_    0.212167 0.324714 0.648323 0.187683
H20   H     H_    0.228433 0.242534 0.560732 0.194977
H21   H     H_    0.140402 0.495176 0.489771 0.170175
H22   H     H_    0.127071 0.572768 0.575714 0.180488
C55   C     C_3   0.666414 0.149334 0.077288 -0.361694
C56   C     C_3   0.661063 0.944342 0.043010 -0.281958
C57   C     C_3   0.730760 0.841019 0.061874 -0.768133
H23   H     H_    0.768701 0.922960 0.038159 0.226912
H24   H     H_    0.750498 0.827220 0.124446 0.222497
H25   H     H_    0.724843 0.693141 0.036563 0.219421
H26   H     H_    0.623856 0.856077 0.065155 0.199070
H27   H     H_    0.642075 0.953369 0.980235 0.199522
H28   H     H_    0.707255 0.232699 0.059315 0.164328
H29   H     H_    0.688450 0.146509 0.139393 0.159451
C58   C     C_3   0.340709 0.876516 0.928365 -0.374833
C59   C     C_3   0.341425 0.059226 0.977320 -0.293165
C60   C     C_3   0.273644 0.171027 0.952523 -0.756241
H30   H     H_    0.265874 0.220790 0.892740 0.220652
H31   H     H_    0.229591 0.077517 0.957518 0.224781
H32   H     H_    0.274792 0.300254 0.989397 0.217433
H33   H     H_    0.349327 0.019970 0.038143 0.195641
H34   H     H_    0.384448 0.156153 0.972198 0.202230
H35   H     H_    0.328549 0.918565 0.867638 0.178143
H36   H     H_    0.296461 0.781361 0.931119 0.166000
C61   C     C_3   0.960948 0.529536 0.360874 -0.349880
C62   C     C_3   0.932333 0.583856 0.276777 -0.314793
C63   C     C_3   0.938209 0.413368 0.224844 -0.763750
H37   H     H_    0.993233 0.372087 0.231941 0.225835
H38   H     H_    0.908966 0.286180 0.238257 0.227373
H39   H     H_    0.916550 0.455534 0.164636 0.220571
H40   H     H_    0.877204 0.626377 0.266697 0.186237
H41   H     H_    0.960473 0.709904 0.260736 0.196371
H42   H     H_    0.013100 0.463508 0.370202 0.172792
H43   H     H_    0.929759 0.409142 0.375419 0.177898
C64   C     C_3   0.059808 0.405570 0.665801 -0.374028
C65   C     C_3   0.019103 0.597082 0.656033 -0.291182
C66   C     C_3   0.031870 0.708512 0.730925 -0.763165
H44   H     H_    0.014480 0.621378 0.774427 0.222617
H45   H     H_    0.087650 0.742694 0.751806 0.224329
H46   H     H_    0.002483 0.846837 0.722370 0.225459
H47   H     H_    0.035103 0.689384 0.613251 0.198744
H48   H     H_    0.962935 0.569661 0.635530 0.196425
H49   H     H_    0.050822 0.321912 0.714925 0.169746
H50   H     H_    0.115727 0.438160 0.683600 0.175574
C67   C     C_3   0.560201 0.099298 0.169557 -0.370445
C68   C     C_3   0.513092 0.919491 0.154997 -0.291519
C69   C     C_3   0.513181 0.816008 0.229557 -0.758108
H51   H     H_    0.566393 0.770005 0.258560 0.223916
H52   H     H_    0.492688 0.913751 0.267687 0.217783
H53   H     H_    0.479968 0.685238 0.218214 0.226283
H54   H     H_    0.459244 0.957570 0.126042 0.196848
H55   H     H_    0.531939 0.817259 0.117357 0.195700
H56   H     H_    0.613210 0.043043 0.187906 0.173034
H57   H     H_    0.553684 0.181458 0.220130 0.169552
C70   C     C_3   0.455453 0.957615 0.853797 -0.352128
C71   C     C_3   0.424648 0.893879 0.771159 -0.311020
C72   C     C_3   0.422601 0.062914 0.716110 -0.768598
H58   H     H_    0.390273 0.182955 0.729586 0.226446
H59   H     H_    0.475646 0.117765 0.719662 0.227755
H60   H     H_    0.399990 0.013159 0.657035 0.221886
H61   H     H_    0.455340 0.774039 0.754790 0.195478
H62   H     H_    0.371317 0.838537 0.764911 0.188397
H63   H     H_    0.424575 0.079413 0.867955 0.180604
H64   H     H_    0.506997 0.025420 0.859889 0.169575

loop_
_geom_bond_atom_site_label_1
_geom_bond_atom_site_label_2
_ccdc_geom_bond_type
C34   C38   A    
C69   H53   S    
C20   C24   A    
O1    C5    A    
C55   C56   S    
O19   V1    S    
O13   V1    S    
O3    C7    A    
C58   C59   S    
C18   H6    S    
C61   H43   S    
O15   V3    S    
C10   H2    S    
C49   C50   S    
C9    H1    S    
C63   H37   S    
C45   C46   S    
O7    C3    A    
C5    C16   S    
C21   C33   A    
C26   C30   A    
C13   C17   A    
C58   H35   S    
C14   C18   A    
C59   H33   S    
O4    C8    A    
C25   C29   A    
C63   H38   S    
C55   H28   S    
C50   H12   S    
O1    V3    S    
C53   H19   S    
O2    V4    S    
C18   C22   A    
C62   H40   S    
O3    V1    S    
C12   C16   A    
C64   H50   S    
C1    O15   A    
O17   V3    S    
C2    O16   A    
C65   C66   S    
O2    C6    A    
C66   H46   S    
C70   C71   S    
C56   H27   S    
O14   V2    S    
C1    C44   S    
C21   C25   A    
C52   H22   S    
C72   H59   S    
C34   C52   S    
C16   C20   A    
C60   H32   S    
C49   H14   S    
O11   C7    A    
O12   C8    A    
C4    C41   S    
C22   C34   A    
O17   V1    S    
O10   V2    S    
C38   C64   S    
C59   C60   S    
C67   H57   S    
C24   C36   A    
O5    V1    S    
C9    C29   A    
C71   H62   S    
O7    V3    S    
C40   C70   S    
C53   H20   S    
C27   C28   A    
C35   C55   S    
C68   H55   S    
O20   V4    S    
C52   C53   S    
O18   V4    S    
C63   H39   S    
C15   C19   A    
C65   H47   S    
O19   V3    S    
C50   C51   S    
C11   C31   A    
C9    C13   A    
C60   H31   S    
C58   H36   S    
C70   H63   S    
C11   C15   A    
O5    C1    A    
C12   C32   A    
C2    C43   S    
C51   H9    S    
C11   H3    S    
O8    C4    A    
C31   C40   A    
C8    C13   S    
C39   C67   S    
C32   C39   A    
O9    C5    A    
C56   H26   S    
C57   H24   S    
C54   H16   S    
C72   H60   S    
C33   C37   A    
C61   C62   S    
C49   H15   S    
C51   H10   S    
C10   C30   A    
C54   H18   S    
C66   H44   S    
C33   C49   S    
C43   C47   T    
C64   C65   S    
C17   H5    S    
C60   H30   S    
O16   V4    S    
O9    V1    S    
C69   H52   S    
C71   H61   S    
C3    O13   A    
C19   H7    S    
O6    V2    S    
C10   C14   A    
C68   H54   S    
C44   C48   T    
C37   C61   S    
C61   H42   S    
C3    C42   S    
O6    C2    A    
C23   C27   A    
C12   H4    S    
O11   V3    S    
C30   C37   A    
O12   V4    S    
C7    C14   S    
C22   C26   A    
C35   C39   A    
C36   C40   A    
C70   H64   S    
O10   C6    A    
O20   V2    S    
C55   H29   S    
C36   C58   S    
C17   C21   A    
C67   C68   S    
C59   H34   S    
C67   H56   S    
O8    V4    S    
C19   C23   A    
C50   H13   S    
C6    C15   S    
C53   C54   S    
C20   H8    S    
C57   H25   S    
C27   C31   A    
C62   H41   S    
C56   C57   S    
C64   H49   S    
C23   C35   A    
C47   C48   S    
C28   C32   A    
C24   C28   A    
C51   H11   S    
C71   C72   S    
C29   C38   A    
C54   H17   S    
C25   C26   A    
C42   C46   T    
C4    O14   A    
C57   H23   S    
C66   H45   S    
C41   C45   T    
C68   C69   S    
C52   H21   S    
C62   C63   S    
C65   H48   S    
O4    V2    S    
C69   H51   S    
C72   H58   S    
O18   V2    S    
