data_mof_unit_9547.cif
_audit_creation_date              2012-12-10T17:33:04-0500
_audit_creation_method            fapswitch 2.2
_symmetry_space_group_name_H-M    P1
_symmetry_Int_Tables_number       1
_space_group_crystal_system       triclinic
_cell_length_a                    12.441196
_cell_length_b                    13.34837
_cell_length_c                    14.276049
_cell_angle_alpha                 93.786618
_cell_angle_beta                  108.033303
_cell_angle_gamma                 117.506688
_cell_volume                      1937.13950927

loop_
_atom_site_label
_atom_site_type_symbol
_atom_type_description
_atom_site_fract_x
_atom_site_fract_y
_atom_site_fract_z
_atom_type_partial_charge
C1    C     C_R   0.652027 0.714091 0.510556 0.773695
C2    C     C_R   0.115305 0.380836 0.008009 0.180084
C3    C     C_R   0.118275 0.459333 0.082238 0.078691
C4    C     C_R   0.619690 0.518598 0.686882 0.786584
C5    C     C_R   0.205368 0.341778 0.033397 -0.199370
C6    C     C_R   0.296949 0.377935 0.132529 -0.192975
C7    C     C_R   0.224462 0.507328 0.176572 -0.272329
C8    C     C_R   0.130837 0.966798 0.358500 -0.167684
C9    C     C_R   0.250306 0.162212 0.465089 -0.057023
C10   C     C_R   0.746083 0.920545 0.591442 -0.185568
C11   C     C_R   0.845165 0.036251 0.619482 -0.156167
C12   C     C_R   0.847876 0.503790 0.924771 0.089761
C13   C     C_R   0.944203 0.070569 0.582104 -0.136255
C14   C     C_R   0.942778 0.989812 0.511184 0.084598
C15   C     C_R   0.834399 0.874062 0.475454 0.074590
C16   C     C_R   0.345736 0.285569 0.485477 0.794423
C17   C     C_R   0.044384 0.020215 0.473661 0.076096
C18   C     C_R   0.031829 0.937600 0.396734 0.154038
C19   C     C_R   0.918824 0.828122 0.356274 -0.207873
C20   C     C_R   0.820450 0.797542 0.393505 -0.196492
C21   C     C_R   0.157827 0.130822 0.509351 -0.195147
C22   C     C_R   0.239247 0.079193 0.391877 -0.203371
C23   C     C_R   0.832541 0.564062 0.000161 0.112559
C24   C     C_R   0.741886 0.837990 0.522167 -0.099128
C25   C     C_R   0.258383 0.697192 0.652025 -0.285528
C26   C     C_R   0.650583 0.345747 0.358771 0.076787
C27   C     C_R   0.725592 0.320008 0.318864 -0.270357
C28   C     C_R   0.381220 0.482423 0.313303 0.780026
C29   C     C_R   0.861464 0.381682 0.367878 -0.079913
C30   C     C_R   0.925708 0.466832 0.461281 0.035285
C31   C     C_R   0.844298 0.496219 0.494291 0.269065
C32   C     C_R   0.066739 0.528879 0.519567 -0.004990
C33   C     C_R   0.121952 0.628834 0.598890 0.162279
C34   C     C_R   0.934344 0.459500 0.953859 0.062832
C35   C     C_R   0.040711 0.659288 0.626265 -0.261837
C36   C     C_R   0.905068 0.592504 0.577248 -0.182879
C37   C     C_R   0.156234 0.495891 0.505398 0.150793
C38   C     C_R   0.341245 0.666118 0.628656 0.060562
C39   C     C_R   0.689321 0.532090 0.794964 -0.055118
C40   C     C_R   0.304679 0.459294 0.205102 -0.051423
C41   C     C_R   0.742999 0.603533 0.972750 -0.188907
C42   C     C_R   0.670663 0.586422 0.870768 -0.186797
C43   C     C_R   0.778241 0.492441 0.822270 -0.247699
C44   C     C_2   0.105329 0.378609 0.445527 0.361406
C45   C     C_R   0.017812 0.489282 0.058238 -0.036104
C46   C     C_2   0.042524 0.546431 0.242637 0.324575
C47   C     C_R   0.993405 0.543603 0.133071 -0.008908
C48   C     C_R   0.903620 0.581921 0.102335 -0.223925
C49   C     C_R   0.936002 0.382468 0.881912 -0.206222
C50   C     C_R   0.022755 0.341948 0.909316 -0.229628
Cu1   Cu    Cu3+1 0.416420 0.526630 0.522910 0.940072
Cu2   Cu    Cu3+1 0.583580 0.473370 0.477090 0.921929
H1    H     H_    0.885083 0.622716 0.158959 0.168203
H2    H     H_    0.732058 0.713881 0.355349 0.172486
H3    H     H_    0.446449 0.720282 0.668588 0.120275
H4    H     H_    0.246522 0.581887 0.229873 0.161265
H5    H     H_    0.082458 0.734660 0.688014 0.151888
H6    H     H_    0.300978 0.774927 0.711453 0.137456
H7    H     H_    0.545001 0.299186 0.319523 0.122393
H8    H     H_    0.912396 0.363420 0.327316 0.124173
H9    H     H_    0.678653 0.254149 0.248326 0.144152
H10   H     H_    0.850947 0.621031 0.605195 0.203302
H11   H     H_    0.359202 0.340419 0.152887 0.145320
H12   H     H_    0.201809 0.280123 0.977452 0.132726
H13   H     H_    0.018845 0.281270 0.852151 0.135728
H14   H     H_    0.729115 0.647932 0.030341 0.132197
H15   H     H_    0.602695 0.618182 0.851356 0.151891
H16   H     H_    0.794378 0.455897 0.762061 0.156386
H17   H     H_    0.866803 0.347109 0.804106 0.142477
H18   H     H_    0.130047 0.366562 0.381017 0.091930
H19   H     H_    0.065541 0.481076 0.266713 0.049070
H20   H     H_    0.310656 0.102663 0.356964 0.149994
H21   H     H_    0.905717 0.766080 0.294765 0.154763
H22   H     H_    0.121773 0.904049 0.299918 0.155418
H23   H     H_    0.175807 0.196296 0.569761 0.159318
H24   H     H_    0.675300 0.894899 0.627091 0.149427
H25   H     H_    0.018904 0.161364 0.609380 0.159446
H26   H     H_    0.847863 0.099216 0.673423 0.137506
N1    N     N_R   0.290690 0.566960 0.557640 -0.209736
N2    N     N_R   0.709100 0.433710 0.442970 -0.206273
O1    O     O_R   0.545970 0.684450 0.528810 -0.577342
O2    O     O_2   0.056669 0.621206 0.307207 -0.561124
O3    O     O_R   0.687130 0.639470 0.490120 -0.596828
O4    O     O_R   0.519670 0.535100 0.660030 -0.580711
O5    O     O_R   0.660830 0.490120 0.621340 -0.598882
O6    O     O_R   0.312870 0.360530 0.509880 -0.580938
O7    O     O_R   0.454030 0.315550 0.471190 -0.584690
O8    O     O_R   0.339170 0.509880 0.378660 -0.599790
O9    O     O_R   0.480330 0.464900 0.339970 -0.591352
O10   O     O_2   0.033052 0.292884 0.467642 -0.582635

loop_
_geom_bond_atom_site_label_1
_geom_bond_atom_site_label_2
_ccdc_geom_bond_type
C27   C29   A    
C41   C42   A    
C19   C20   A    
C31   N2    A    
C37   N1    A    
C12   C23   A    
C26   C27   A    
Cu2   O5    S    
C9    C16   S    
C12   C43   A    
C3    C7    A    
C30   C31   A    
C9    C22   A    
C38   N1    A    
C28   C40   S    
C1    O1    A    
C18   C19   A    
C27   H9    S    
C46   O2    D    
C10   H24   S    
C38   H3    S    
C35   C36   A    
C43   H16   S    
C28   O8    A    
C16   O7    A    
C8    C22   A    
C7    C40   A    
C29   H8    S    
C44   H18   S    
C28   O9    A    
C2    C50   A    
C26   H7    S    
Cu1   O1    S    
C49   H17   S    
C13   C14   A    
C16   O6    A    
C14   C17   A    
Cu2   O9    S    
C15   C20   A    
C7    H4    S    
C36   H10   S    
Cu1   O6    S    
C22   H20   S    
C39   C42   A    
C45   C47   A    
C48   H1    S    
C13   H25   S    
Cu1   Cu2   S    
C19   H21   S    
C20   H2    S    
C39   C43   A    
C4    O5    A    
C10   C24   A    
C3    C45   A    
C26   N2    A    
C5    H12   S    
C6    H11   S    
Cu2   O3    S    
C29   C30   A    
C11   H26   S    
C25   C38   A    
C47   C48   A    
C4    O4    A    
C4    C39   S    
C8    H22   S    
C17   C18   A    
C34   C45   A    
C32   C37   A    
C46   H19   S    
C15   C24   A    
C42   H15   S    
C6    C40   A    
C2    C5    A    
C25   H6    S    
C8    C18   A    
C12   C34   A    
C44   O10   D    
C46   C47   S    
C34   C49   A    
C23   C48   A    
C31   C36   A    
Cu2   O7    S    
Cu1   O8    S    
C41   H14   S    
C1    O3    A    
C21   H23   S    
C23   C41   A    
C35   H5    S    
C32   C33   A    
C37   C44   S    
C2    C3    A    
C30   C32   A    
C11   C13   A    
C9    C21   A    
C5    C6    A    
C33   C35   A    
C50   H13   S    
Cu1   N1    S    
C10   C11   A    
C1    C24   S    
C49   C50   A    
C14   C15   A    
Cu2   N2    S    
Cu1   O4    S    
C25   C33   A    
C17   C21   A    
