data_mof_unit_60638.cif
_audit_creation_date              2012-12-10T17:17:48-0500
_audit_creation_method            fapswitch 2.2
_symmetry_space_group_name_H-M    P1
_symmetry_Int_Tables_number       1
_space_group_crystal_system       orthorhombic
_cell_length_a                    21.793929
_cell_length_b                    30.719916
_cell_length_c                    30.675479
_cell_angle_alpha                 90.0
_cell_angle_beta                  90.0
_cell_angle_gamma                 90.0
_cell_volume                      20537.4684159

loop_
_atom_site_label
_atom_site_type_symbol
_atom_type_description
_atom_site_fract_x
_atom_site_fract_y
_atom_site_fract_z
_atom_type_partial_charge
C1    C     C_R   0.250130 0.559477 0.059514 0.884317
C2    C     C_R   0.249870 0.440523 0.559514 0.884316
C3    C     C_R   0.935860 0.000000 0.000000 -0.045620
C4    C     C_R   0.064140 0.500000 0.500000 -0.045620
C5    C     C_R   0.935860 0.500000 0.500000 -0.045620
C6    C     C_R   0.564140 0.000000 0.500000 -0.045621
C7    C     C_R   0.435860 0.000000 0.500000 -0.045620
C8    C     C_R   0.249963 0.309646 0.690859 0.880887
C9    C     C_R   0.750036 0.690354 0.690859 0.880887
C10   C     C_R   0.249963 0.690354 0.309141 0.880887
C11   C     C_R   0.750036 0.309646 0.309141 0.880887
C12   C     C_R   0.749963 0.809646 0.690859 0.880887
C13   C     C_R   0.750130 0.440523 0.440486 0.884316
C14   C     C_R   0.250036 0.190354 0.690859 0.880887
C15   C     C_R   0.749963 0.190354 0.309141 0.880887
C16   C     C_R   0.250037 0.809646 0.309141 0.880886
C17   C     C_R   0.749963 0.309646 0.190858 0.880887
C18   C     C_R   0.250036 0.690354 0.190858 0.880887
C19   C     C_R   0.749963 0.690354 0.809141 0.880887
C20   C     C_R   0.250037 0.309646 0.809141 0.880887
C21   C     C_R   0.249963 0.809646 0.190858 0.880887
C22   C     C_R   0.750036 0.190354 0.190858 0.880887
C23   C     C_R   0.249963 0.190354 0.809141 0.880887
C24   C     C_R   0.249870 0.559477 0.440486 0.884317
C25   C     C_R   0.750036 0.809646 0.809141 0.880886
C26   C     C_R   0.131330 0.500000 0.000000 0.747160
C27   C     C_R   0.868670 0.500000 0.000000 0.747160
C28   C     C_R   0.631330 0.000000 0.000000 0.747160
C29   C     C_R   0.368670 0.000000 0.000000 0.747160
C30   C     C_R   0.631330 0.500000 0.500000 0.747160
C31   C     C_R   0.368670 0.500000 0.500000 0.747160
C32   C     C_R   0.131330 0.000000 0.500000 0.747160
C33   C     C_R   0.868670 0.000000 0.500000 0.747160
C34   C     C_R   0.368869 0.500000 0.000000 0.884721
C35   C     C_R   0.250130 0.059477 0.559514 0.884317
C36   C     C_R   0.631131 0.500000 0.000000 0.884721
C37   C     C_R   0.868869 0.000000 0.000000 0.884721
C38   C     C_R   0.131131 0.000000 0.000000 0.884721
C39   C     C_R   0.868869 0.500000 0.500000 0.884721
C40   C     C_R   0.131130 0.500000 0.500000 0.884721
C41   C     C_R   0.368869 0.000000 0.500000 0.884721
C42   C     C_R   0.631131 0.000000 0.500000 0.884721
C43   C     C_R   0.062874 0.419561 0.992657 -0.110603
C44   C     C_R   0.937125 0.580439 0.992657 -0.110603
C45   C     C_R   0.062874 0.580439 0.007343 -0.110603
C46   C     C_R   0.749870 0.940523 0.559514 0.884316
C47   C     C_R   0.937125 0.419561 0.007343 -0.110603
C48   C     C_R   0.562875 0.919561 0.992657 -0.110603
C49   C     C_R   0.437125 0.080439 0.992657 -0.110603
C50   C     C_R   0.562875 0.080439 0.007343 -0.110603
C51   C     C_R   0.437125 0.919561 0.007343 -0.110603
C52   C     C_R   0.562875 0.419561 0.492657 -0.110603
C53   C     C_R   0.437125 0.580439 0.492656 -0.110603
C54   C     C_R   0.562875 0.580439 0.507343 -0.110603
C55   C     C_R   0.437125 0.419561 0.507343 -0.110603
C56   C     C_R   0.062874 0.919561 0.492656 -0.110602
C57   C     C_R   0.250130 0.940523 0.440486 0.884317
C58   C     C_R   0.937125 0.080439 0.492656 -0.110603
C59   C     C_R   0.062874 0.080439 0.507343 -0.110603
C60   C     C_R   0.937125 0.919561 0.507343 -0.110603
C61   C     C_R   0.031258 0.380294 0.995733 -0.119906
C62   C     C_R   0.968742 0.619706 0.995733 -0.119906
C63   C     C_R   0.031258 0.619706 0.004267 -0.119906
C64   C     C_R   0.968742 0.380294 0.004267 -0.119906
C65   C     C_R   0.531258 0.880294 0.995733 -0.119906
C66   C     C_R   0.468742 0.119706 0.995733 -0.119906
C67   C     C_R   0.531258 0.119706 0.004267 -0.119906
C68   C     C_R   0.749870 0.059477 0.440486 0.884317
C69   C     C_R   0.468742 0.880294 0.004267 -0.119906
C70   C     C_R   0.531258 0.380294 0.495733 -0.119906
C71   C     C_R   0.468742 0.619706 0.495733 -0.119906
C72   C     C_R   0.531258 0.619706 0.504267 -0.119906
C73   C     C_R   0.468742 0.380294 0.504267 -0.119906
C74   C     C_R   0.031258 0.880294 0.495733 -0.119906
C75   C     C_R   0.968742 0.119706 0.495733 -0.119906
C76   C     C_R   0.031258 0.119706 0.504267 -0.119906
C77   C     C_R   0.968742 0.880294 0.504267 -0.119906
C78   C     C_R   0.967757 0.459933 0.001871 0.053954
C79   C     C_R   0.250208 0.656537 0.157947 -0.171812
C80   C     C_R   0.032243 0.540067 0.001871 0.053954
C81   C     C_R   0.967757 0.540067 0.998129 0.053954
C82   C     C_R   0.032243 0.459933 0.998129 0.053954
C83   C     C_R   0.467757 0.959933 0.001871 0.053954
C84   C     C_R   0.532242 0.040067 0.001871 0.053954
C85   C     C_R   0.467757 0.040067 0.998129 0.053954
C86   C     C_R   0.532242 0.959933 0.998129 0.053954
C87   C     C_R   0.467757 0.459933 0.501871 0.053954
C88   C     C_R   0.532243 0.540067 0.501871 0.053954
C89   C     C_R   0.467757 0.540067 0.498129 0.053954
C90   C     C_R   0.749792 0.343463 0.157947 -0.171812
C91   C     C_R   0.532243 0.459933 0.498129 0.053954
C92   C     C_R   0.967757 0.959933 0.501871 0.053954
C93   C     C_R   0.032243 0.040067 0.501871 0.053954
C94   C     C_R   0.967757 0.040067 0.498129 0.053954
C95   C     C_R   0.032243 0.959933 0.498129 0.053954
C96   C     C_R   0.935629 0.500000 0.000000 -0.161244
C97   C     C_R   0.064370 0.500000 0.000000 -0.161244
C98   C     C_R   0.435629 0.000000 0.000000 -0.161244
C99   C     C_R   0.564370 0.000000 0.000000 -0.161244
C100  C     C_R   0.435629 0.500000 0.500000 -0.161243
C101  C     C_R   0.250208 0.343463 0.842052 -0.171812
C102  C     C_R   0.564371 0.500000 0.500000 -0.161244
C103  C     C_R   0.935629 0.000000 0.500000 -0.161244
C104  C     C_R   0.064370 0.000000 0.500000 -0.161244
C105  C     C_R   0.283677 0.586177 0.131856 0.511165
C106  C     C_R   0.716322 0.413823 0.131856 0.511165
C107  C     C_R   0.283677 0.413823 0.868144 0.511165
C108  C     C_R   0.716322 0.586177 0.868144 0.511165
C109  C     C_R   0.783677 0.086177 0.131856 0.511164
C110  C     C_R   0.216322 0.913823 0.131856 0.511164
C111  C     C_R   0.783677 0.913823 0.868144 0.511164
C112  C     C_R   0.749870 0.440523 0.059514 0.884316
C113  C     C_R   0.749792 0.656537 0.842052 -0.171812
C114  C     C_R   0.216322 0.086177 0.868144 0.511165
C115  C     C_R   0.783678 0.586177 0.631856 0.511164
C116  C     C_R   0.216323 0.413823 0.631856 0.511165
C117  C     C_R   0.783677 0.413823 0.368144 0.511164
C118  C     C_R   0.216322 0.586177 0.368144 0.511164
C119  C     C_R   0.283678 0.086177 0.631856 0.511165
C120  C     C_R   0.716322 0.913823 0.631856 0.511165
C121  C     C_R   0.283678 0.913823 0.368144 0.511166
C122  C     C_R   0.716322 0.086177 0.368144 0.511165
C123  C     C_R   0.284078 0.618155 0.164245 0.054563
C124  C     C_R   0.750208 0.156537 0.157947 -0.171812
C125  C     C_R   0.715922 0.381845 0.164245 0.054563
C126  C     C_R   0.284078 0.381845 0.835755 0.054563
C127  C     C_R   0.715922 0.618155 0.835755 0.054563
C128  C     C_R   0.784078 0.118155 0.164245 0.054562
C129  C     C_R   0.215922 0.881845 0.164245 0.054563
C130  C     C_R   0.784078 0.881845 0.835755 0.054564
C131  C     C_R   0.215922 0.118155 0.835755 0.054563
C132  C     C_R   0.784078 0.618155 0.664245 0.054564
C133  C     C_R   0.215922 0.381845 0.664245 0.054563
C134  C     C_R   0.784078 0.381845 0.335755 0.054564
C135  C     C_R   0.249792 0.843463 0.157947 -0.171812
C136  C     C_R   0.215922 0.618155 0.335755 0.054563
C137  C     C_R   0.284078 0.118155 0.664245 0.054563
C138  C     C_R   0.715922 0.881845 0.664245 0.054563
C139  C     C_R   0.284078 0.881845 0.335755 0.054563
C140  C     C_R   0.715922 0.118155 0.335755 0.054563
C141  C     C_R   0.750208 0.843463 0.842052 -0.171812
C142  C     C_R   0.249792 0.156537 0.842052 -0.171812
C143  C     C_R   0.750208 0.656537 0.657947 -0.171812
C144  C     C_R   0.249792 0.343463 0.657947 -0.171811
C145  C     C_R   0.750208 0.343463 0.342052 -0.171812
C146  C     C_R   0.249792 0.656537 0.342052 -0.171812
C147  C     C_R   0.250208 0.156537 0.657947 -0.171811
C148  C     C_R   0.250130 0.440523 0.940486 0.884316
C149  C     C_R   0.749792 0.843463 0.657947 -0.171812
C150  C     C_R   0.250208 0.843463 0.342052 -0.171812
C151  C     C_R   0.749792 0.156537 0.342052 -0.171812
C152  C     C_R   0.216595 0.662968 0.119704 -0.298217
C153  C     C_R   0.783405 0.337032 0.119704 -0.298218
C154  C     C_R   0.216595 0.337032 0.880296 -0.298217
C155  C     C_R   0.783405 0.662968 0.880296 -0.298218
C156  C     C_R   0.716595 0.162968 0.119704 -0.298217
C157  C     C_R   0.283405 0.837032 0.119704 -0.298218
C158  C     C_R   0.716595 0.837032 0.880296 -0.298217
C159  C     C_R   0.749870 0.559477 0.940486 0.884317
C160  C     C_R   0.283405 0.162968 0.880296 -0.298217
C161  C     C_R   0.716595 0.662968 0.619704 -0.298218
C162  C     C_R   0.283405 0.337032 0.619704 -0.298219
C163  C     C_R   0.716595 0.337032 0.380296 -0.298218
C164  C     C_R   0.283405 0.662968 0.380296 -0.298218
C165  C     C_R   0.216595 0.162968 0.619704 -0.298218
C166  C     C_R   0.783405 0.837032 0.619704 -0.298218
C167  C     C_R   0.216595 0.837032 0.380296 -0.298217
C168  C     C_R   0.783405 0.162968 0.380296 -0.298218
C169  C     C_R   0.217306 0.631626 0.087121 0.553745
C170  C     C_R   0.750130 0.059477 0.059514 0.884317
C171  C     C_R   0.782694 0.368374 0.087121 0.553744
C172  C     C_R   0.217306 0.368374 0.912879 0.553745
C173  C     C_R   0.782694 0.631626 0.912879 0.553744
C174  C     C_R   0.717306 0.131626 0.087121 0.553744
C175  C     C_R   0.282694 0.868374 0.087121 0.553744
C176  C     C_R   0.717306 0.868374 0.912879 0.553746
C177  C     C_R   0.282694 0.131626 0.912879 0.553746
C178  C     C_R   0.717306 0.631626 0.587121 0.553744
C179  C     C_R   0.282694 0.368374 0.587121 0.553746
C180  C     C_R   0.717306 0.368374 0.412879 0.553744
C181  C     C_R   0.249870 0.940523 0.059514 0.884316
C182  C     C_R   0.282694 0.631626 0.412879 0.553745
C183  C     C_R   0.217306 0.131626 0.587121 0.553744
C184  C     C_R   0.782694 0.868374 0.587121 0.553744
C185  C     C_R   0.217306 0.868374 0.412879 0.553744
C186  C     C_R   0.782694 0.131626 0.412879 0.553745
C187  C     C_R   0.250451 0.592911 0.093188 -0.290729
C188  C     C_R   0.749549 0.407089 0.093188 -0.290729
C189  C     C_R   0.250451 0.407089 0.906812 -0.290729
C190  C     C_R   0.749549 0.592911 0.906812 -0.290728
C191  C     C_R   0.750451 0.092911 0.093188 -0.290728
C192  C     C_R   0.750130 0.940523 0.940486 0.884316
C193  C     C_R   0.249549 0.907089 0.093188 -0.290729
C194  C     C_R   0.750451 0.907089 0.906812 -0.290729
C195  C     C_R   0.249549 0.092911 0.906812 -0.290729
C196  C     C_R   0.750451 0.592911 0.593188 -0.290728
C197  C     C_R   0.249549 0.407089 0.593188 -0.290729
C198  C     C_R   0.750451 0.407089 0.406812 -0.290729
C199  C     C_R   0.249549 0.592911 0.406812 -0.290729
C200  C     C_R   0.250451 0.092911 0.593188 -0.290728
C201  C     C_R   0.749549 0.907089 0.593188 -0.290729
C202  C     C_R   0.250451 0.907089 0.406812 -0.290730
C203  C     C_R   0.249870 0.059477 0.940486 0.884317
C204  C     C_R   0.749549 0.092911 0.406812 -0.290728
C205  C     C_R   0.467757 0.460179 0.999900 0.070708
C206  C     C_R   0.532243 0.539821 0.999900 0.070708
C207  C     C_R   0.467757 0.539821 0.000100 0.070708
C208  C     C_R   0.532243 0.460179 0.000100 0.070708
C209  C     C_R   0.967757 0.960179 0.999900 0.070708
C210  C     C_R   0.032243 0.039821 0.999900 0.070708
C211  C     C_R   0.967757 0.039821 0.000100 0.070708
C212  C     C_R   0.032243 0.960179 0.000100 0.070708
C213  C     C_R   0.967757 0.460179 0.499900 0.070708
C214  C     C_R   0.750130 0.559477 0.559514 0.884317
C215  C     C_R   0.032243 0.539821 0.499900 0.070708
C216  C     C_R   0.967757 0.539821 0.500100 0.070708
C217  C     C_R   0.032243 0.460179 0.500100 0.070708
C218  C     C_R   0.467757 0.960179 0.499900 0.070708
C219  C     C_R   0.532243 0.039821 0.499900 0.070708
C220  C     C_R   0.467757 0.039821 0.500100 0.070708
C221  C     C_R   0.532243 0.960179 0.500100 0.070708
C222  C     C_R   0.564140 0.500000 0.000000 -0.045621
C223  C     C_R   0.435860 0.500000 0.000000 -0.045621
C224  C     C_R   0.064140 0.000000 0.000000 -0.045620
Cu1   Cu    Cu3+1 0.250020 0.530890 0.969080 1.061739
Cu2   Cu    Cu3+1 0.249980 0.469110 0.469080 1.061740
Cu3   Cu    Cu3+1 0.750020 0.469110 0.530920 1.061739
Cu4   Cu    Cu3+1 0.249980 0.530890 0.530920 1.061739
Cu5   Cu    Cu3+1 0.250020 0.030890 0.469080 1.061739
Cu6   Cu    Cu3+1 0.749980 0.969110 0.469080 1.061739
Cu7   Cu    Cu3+1 0.250020 0.969110 0.530920 1.061739
Cu8   Cu    Cu3+1 0.749980 0.030890 0.530920 1.061739
Cu9   Cu    Cu3+1 0.311820 0.250000 0.750000 1.000037
Cu10  Cu    Cu3+1 0.688180 0.750000 0.750000 1.000037
Cu11  Cu    Cu3+1 0.311820 0.750000 0.250000 1.000037
Cu12  Cu    Cu3+1 0.749980 0.469110 0.969080 1.061739
Cu13  Cu    Cu3+1 0.688180 0.250000 0.250000 1.000037
Cu14  Cu    Cu3+1 0.811820 0.750000 0.750000 1.000037
Cu15  Cu    Cu3+1 0.188180 0.250000 0.750000 1.000037
Cu16  Cu    Cu3+1 0.811820 0.250000 0.250000 1.000037
Cu17  Cu    Cu3+1 0.188180 0.750000 0.250000 1.000037
Cu18  Cu    Cu3+1 0.250020 0.469110 0.030920 1.061739
Cu19  Cu    Cu3+1 0.749980 0.530890 0.030920 1.061739
Cu20  Cu    Cu3+1 0.750020 0.030890 0.969080 1.061739
Cu21  Cu    Cu3+1 0.249980 0.969110 0.969080 1.061739
Cu22  Cu    Cu3+1 0.750020 0.969110 0.030920 1.061739
Cu23  Cu    Cu3+1 0.249980 0.030890 0.030920 1.061739
Cu24  Cu    Cu3+1 0.750020 0.530890 0.469080 1.061739
F1    F     F_    0.316756 0.549140 0.137794 -0.645033
F2    F     F_    0.183244 0.450860 0.637795 -0.645033
F3    F     F_    0.816757 0.450859 0.362206 -0.645033
F4    F     F_    0.183243 0.549141 0.362206 -0.645033
F5    F     F_    0.316756 0.049140 0.637794 -0.645033
F6    F     F_    0.683243 0.950859 0.637794 -0.645033
F7    F     F_    0.316757 0.950859 0.362206 -0.645033
F8    F     F_    0.683243 0.049140 0.362206 -0.645033
F9    F     F_    0.184768 0.638859 0.050103 -0.670606
F10   F     F_    0.815233 0.361141 0.050103 -0.670606
F11   F     F_    0.184768 0.361141 0.949897 -0.670606
F12   F     F_    0.683243 0.450859 0.137794 -0.645033
F13   F     F_    0.815233 0.638859 0.949897 -0.670606
F14   F     F_    0.684767 0.138859 0.050103 -0.670606
F15   F     F_    0.315233 0.861141 0.050103 -0.670606
F16   F     F_    0.684767 0.861141 0.949897 -0.670607
F17   F     F_    0.315233 0.138859 0.949897 -0.670607
F18   F     F_    0.684767 0.638859 0.550103 -0.670607
F19   F     F_    0.315232 0.361140 0.550103 -0.670606
F20   F     F_    0.684767 0.361141 0.449897 -0.670606
F21   F     F_    0.315232 0.638859 0.449897 -0.670606
F22   F     F_    0.184767 0.138859 0.550103 -0.670606
F23   F     F_    0.316756 0.450860 0.862205 -0.645033
F24   F     F_    0.815233 0.861141 0.550103 -0.670606
F25   F     F_    0.184767 0.861141 0.449897 -0.670607
F26   F     F_    0.815233 0.138859 0.449897 -0.670606
F27   F     F_    0.683243 0.549141 0.862206 -0.645033
F28   F     F_    0.816756 0.049140 0.137794 -0.645033
F29   F     F_    0.183243 0.950859 0.137794 -0.645033
F30   F     F_    0.816757 0.950859 0.862206 -0.645033
F31   F     F_    0.183243 0.049140 0.862206 -0.645033
F32   F     F_    0.816757 0.549141 0.637794 -0.645033
H1    H     H_    0.055557 0.650226 0.007917 0.183600
H2    H     H_    0.444443 0.349774 0.507917 0.183600
H3    H     H_    0.054272 0.598583 0.525932 0.234506
H4    H     H_    0.946629 0.597139 0.529486 0.225411
H5    H     H_    0.945729 0.598583 0.474068 0.234506
H6    H     H_    0.053370 0.402861 0.529485 0.225411
H7    H     H_    0.054272 0.401417 0.474068 0.234506
H8    H     H_    0.446630 0.902861 0.470515 0.225411
H9    H     H_    0.445728 0.901417 0.525932 0.234506
H10   H     H_    0.553370 0.097139 0.470515 0.225411
H11   H     H_    0.554272 0.098583 0.525932 0.234506
H12   H     H_    0.446630 0.097139 0.529485 0.225411
H13   H     H_    0.555557 0.349774 0.492083 0.183600
H14   H     H_    0.445729 0.098583 0.474068 0.234506
H15   H     H_    0.553370 0.902861 0.529485 0.225411
H16   H     H_    0.554272 0.901417 0.474068 0.234506
H17   H     H_    0.444443 0.650226 0.492083 0.183600
H18   H     H_    0.055557 0.150226 0.507917 0.183600
H19   H     H_    0.944443 0.849774 0.507917 0.183600
H20   H     H_    0.055557 0.849774 0.492083 0.183600
H21   H     H_    0.944443 0.150226 0.492083 0.183600
H22   H     H_    0.111286 0.417682 0.985585 0.199486
H23   H     H_    0.888714 0.582318 0.985585 0.199486
H24   H     H_    0.111286 0.582318 0.014415 0.199486
H25   H     H_    0.944443 0.349774 0.007917 0.183600
H26   H     H_    0.888714 0.417682 0.014415 0.199486
H27   H     H_    0.611286 0.917682 0.985585 0.199487
H28   H     H_    0.388714 0.082318 0.985585 0.199486
H29   H     H_    0.611286 0.082318 0.014415 0.199486
H30   H     H_    0.388714 0.917682 0.014415 0.199486
H31   H     H_    0.611286 0.417682 0.485585 0.199487
H32   H     H_    0.388714 0.582318 0.485585 0.199486
H33   H     H_    0.611286 0.582318 0.514415 0.199487
H34   H     H_    0.388714 0.417682 0.514415 0.199486
H35   H     H_    0.111286 0.917682 0.485585 0.199487
H36   H     H_    0.055557 0.349774 0.992083 0.183600
H37   H     H_    0.888714 0.082318 0.485585 0.199486
H38   H     H_    0.111286 0.082318 0.514415 0.199486
H39   H     H_    0.888714 0.917682 0.514415 0.199487
H40   H     H_    0.190627 0.692663 0.114836 0.187788
H41   H     H_    0.809373 0.307337 0.114836 0.187789
H42   H     H_    0.190627 0.307337 0.885164 0.187788
H43   H     H_    0.809373 0.692663 0.885164 0.187789
H44   H     H_    0.690627 0.192663 0.114836 0.187788
H45   H     H_    0.309373 0.807337 0.114836 0.187789
H46   H     H_    0.690627 0.807337 0.885163 0.187788
H47   H     H_    0.944443 0.650226 0.992083 0.183600
H48   H     H_    0.309373 0.192663 0.885163 0.187788
H49   H     H_    0.690626 0.692663 0.614837 0.187789
H50   H     H_    0.309373 0.307337 0.614836 0.187789
H51   H     H_    0.690627 0.307337 0.385164 0.187789
H52   H     H_    0.309373 0.692663 0.385163 0.187789
H53   H     H_    0.190627 0.192663 0.614836 0.187789
H54   H     H_    0.809373 0.807337 0.614836 0.187789
H55   H     H_    0.190626 0.807337 0.385163 0.187789
H56   H     H_    0.809373 0.192663 0.385164 0.187789
H57   H     H_    0.363648 0.606169 0.195878 0.261047
H58   H     H_    0.555557 0.150226 0.007917 0.183600
H59   H     H_    0.300893 0.583126 0.218731 0.250724
H60   H     H_    0.636352 0.393830 0.195878 0.261047
H61   H     H_    0.699107 0.416874 0.218731 0.250724
H62   H     H_    0.363648 0.393830 0.804122 0.261047
H63   H     H_    0.300893 0.416874 0.781269 0.250724
H64   H     H_    0.636352 0.606170 0.804122 0.261047
H65   H     H_    0.699107 0.583126 0.781269 0.250724
H66   H     H_    0.863648 0.106170 0.195878 0.261047
H67   H     H_    0.800893 0.083126 0.218731 0.250724
H68   H     H_    0.136352 0.893830 0.195878 0.261047
H69   H     H_    0.444443 0.849774 0.007917 0.183600
H70   H     H_    0.199107 0.916874 0.218731 0.250724
H71   H     H_    0.863648 0.893830 0.804122 0.261046
H72   H     H_    0.800893 0.916874 0.781269 0.250724
H73   H     H_    0.136352 0.106170 0.804122 0.261047
H74   H     H_    0.199107 0.083126 0.781269 0.250724
H75   H     H_    0.863649 0.606170 0.695877 0.261046
H76   H     H_    0.800894 0.583126 0.718730 0.250724
H77   H     H_    0.136352 0.393831 0.695878 0.261047
H78   H     H_    0.199108 0.416874 0.718731 0.250724
H79   H     H_    0.863648 0.393831 0.304122 0.261047
H80   H     H_    0.555557 0.849774 0.992083 0.183600
H81   H     H_    0.800893 0.416874 0.281269 0.250723
H82   H     H_    0.136352 0.606170 0.304122 0.261046
H83   H     H_    0.199107 0.583126 0.281269 0.250724
H84   H     H_    0.363648 0.106170 0.695878 0.261046
H85   H     H_    0.300893 0.083126 0.718731 0.250724
H86   H     H_    0.636352 0.893830 0.695878 0.261047
H87   H     H_    0.699107 0.916874 0.718731 0.250723
H88   H     H_    0.363649 0.893830 0.304123 0.261047
H89   H     H_    0.300894 0.916874 0.281269 0.250724
H90   H     H_    0.636352 0.106170 0.304122 0.261047
H91   H     H_    0.444443 0.150226 0.992083 0.183600
H92   H     H_    0.699107 0.083126 0.281269 0.250724
H93   H     H_    0.446629 0.402861 0.970514 0.225411
H94   H     H_    0.445728 0.401417 0.025932 0.234506
H95   H     H_    0.553370 0.597139 0.970515 0.225411
H96   H     H_    0.554271 0.598583 0.025932 0.234506
H97   H     H_    0.446630 0.597139 0.029486 0.225411
H98   H     H_    0.445728 0.598584 0.974068 0.234506
H99   H     H_    0.553370 0.402861 0.029485 0.225411
H100  H     H_    0.554272 0.401417 0.974068 0.234506
H101  H     H_    0.946630 0.902861 0.970515 0.225411
H102  H     H_    0.555557 0.650226 0.507916 0.183600
H103  H     H_    0.945728 0.901417 0.025932 0.234506
H104  H     H_    0.053370 0.097139 0.970514 0.225411
H105  H     H_    0.054272 0.098583 0.025932 0.234506
H106  H     H_    0.946629 0.097139 0.029485 0.225411
H107  H     H_    0.945729 0.098583 0.974068 0.234506
H108  H     H_    0.053370 0.902861 0.029485 0.225411
H109  H     H_    0.054272 0.901417 0.974068 0.234506
H110  H     H_    0.946630 0.402861 0.470515 0.225411
H111  H     H_    0.945728 0.401417 0.525932 0.234506
H112  H     H_    0.053370 0.597139 0.470515 0.225411
N1    N     N_3   0.317598 0.611379 0.203882 -0.545965
N2    N     N_3   0.182402 0.388621 0.703882 -0.545965
N3    N     N_3   0.817598 0.388621 0.296118 -0.545964
N4    N     N_3   0.182402 0.611379 0.296118 -0.545964
N5    N     N_3   0.317598 0.111379 0.703882 -0.545965
N6    N     N_3   0.682402 0.888621 0.703882 -0.545964
N7    N     N_3   0.317599 0.888621 0.296118 -0.545965
N8    N     N_3   0.682402 0.111379 0.296118 -0.545965
N9    N     N_3   0.434164 0.419977 0.998593 -0.567535
N10   N     N_3   0.565835 0.580023 0.998593 -0.567535
N11   N     N_3   0.434165 0.580023 0.001407 -0.567535
N12   N     N_3   0.682402 0.388621 0.203882 -0.545965
N13   N     N_3   0.565835 0.419977 0.001407 -0.567535
N14   N     N_3   0.934164 0.919977 0.998593 -0.567535
N15   N     N_3   0.065835 0.080023 0.998593 -0.567535
N16   N     N_3   0.934164 0.080023 0.001407 -0.567535
N17   N     N_3   0.065835 0.919977 0.001407 -0.567535
N18   N     N_3   0.934164 0.419977 0.498593 -0.567535
N19   N     N_3   0.065835 0.580023 0.498593 -0.567535
N20   N     N_3   0.934164 0.580023 0.501407 -0.567535
N21   N     N_3   0.065835 0.419977 0.501407 -0.567535
N22   N     N_3   0.434165 0.919977 0.498593 -0.567535
N23   N     N_3   0.317598 0.388621 0.796118 -0.545965
N24   N     N_3   0.565835 0.080023 0.498593 -0.567535
N25   N     N_3   0.434165 0.080023 0.501407 -0.567535
N26   N     N_3   0.565835 0.919977 0.501407 -0.567535
N27   N     N_3   0.682402 0.611379 0.796118 -0.545965
N28   N     N_3   0.817598 0.111379 0.203882 -0.545965
N29   N     N_3   0.182402 0.888621 0.203882 -0.545965
N30   N     N_3   0.817598 0.888621 0.796118 -0.545964
N31   N     N_3   0.182402 0.111379 0.796118 -0.545965
N32   N     N_3   0.817599 0.611379 0.703881 -0.545964
O1    O     O_R   0.250030 0.571170 0.018980 -0.550698
O2    O     O_R   0.249970 0.428830 0.518980 -0.550698
O3    O     O_R   0.750030 0.428830 0.481020 -0.550698
O4    O     O_R   0.249970 0.571170 0.481020 -0.550699
O5    O     O_R   0.250030 0.071170 0.518980 -0.550698
O6    O     O_R   0.749970 0.928830 0.518980 -0.550698
O7    O     O_R   0.250030 0.928830 0.481020 -0.550699
O8    O     O_R   0.749970 0.071170 0.481020 -0.550699
O9    O     O_R   0.250030 0.519000 0.071200 -0.541735
O10   O     O_R   0.749970 0.481000 0.071200 -0.541735
O11   O     O_R   0.250030 0.481000 0.928800 -0.541735
O12   O     O_R   0.749970 0.428830 0.018980 -0.550698
O13   O     O_R   0.749970 0.519000 0.928800 -0.541735
O14   O     O_R   0.750030 0.019000 0.071200 -0.541735
O15   O     O_R   0.249970 0.981000 0.071200 -0.541735
O16   O     O_R   0.750030 0.981000 0.928800 -0.541735
O17   O     O_R   0.249970 0.019000 0.928800 -0.541735
O18   O     O_R   0.750030 0.519000 0.571200 -0.541736
O19   O     O_R   0.249970 0.481000 0.571200 -0.541735
O20   O     O_R   0.750030 0.481000 0.428800 -0.541735
O21   O     O_R   0.249970 0.519000 0.428800 -0.541735
O22   O     O_R   0.250030 0.019000 0.571200 -0.541735
O23   O     O_R   0.250030 0.428830 0.981020 -0.550698
O24   O     O_R   0.749970 0.981000 0.571200 -0.541735
O25   O     O_R   0.250030 0.981000 0.428800 -0.541735
O26   O     O_R   0.749970 0.019000 0.428800 -0.541735
O27   O     O_R   0.159850 0.526090 0.973890 -0.590090
O28   O     O_R   0.840150 0.473910 0.973890 -0.590090
O29   O     O_R   0.159850 0.473910 0.026110 -0.590090
O30   O     O_R   0.840150 0.526090 0.026110 -0.590090
O31   O     O_R   0.659850 0.026090 0.973890 -0.590090
O32   O     O_R   0.340150 0.973910 0.973890 -0.590090
O33   O     O_R   0.659850 0.973910 0.026110 -0.590090
O34   O     O_R   0.749970 0.571170 0.981020 -0.550698
O35   O     O_R   0.340150 0.026090 0.026110 -0.590090
O36   O     O_R   0.659850 0.526090 0.473890 -0.590090
O37   O     O_R   0.340150 0.473910 0.473890 -0.590090
O38   O     O_R   0.659850 0.473910 0.526110 -0.590090
O39   O     O_R   0.340150 0.526090 0.526110 -0.590090
O40   O     O_R   0.159850 0.026090 0.473890 -0.590090
O41   O     O_R   0.840150 0.973910 0.473890 -0.590090
O42   O     O_R   0.159850 0.973910 0.526110 -0.590090
O43   O     O_R   0.840150 0.026090 0.526110 -0.590090
O44   O     O_R   0.340200 0.526080 0.973890 -0.564052
O45   O     O_R   0.750030 0.071170 0.018980 -0.550698
O46   O     O_R   0.659800 0.473920 0.973890 -0.564051
O47   O     O_R   0.340200 0.473920 0.026110 -0.564052
O48   O     O_R   0.659800 0.526080 0.026110 -0.564052
O49   O     O_R   0.840200 0.026080 0.973890 -0.564052
O50   O     O_R   0.159800 0.973920 0.973890 -0.564051
O51   O     O_R   0.840200 0.973920 0.026110 -0.564052
O52   O     O_R   0.159800 0.026080 0.026110 -0.564052
O53   O     O_R   0.840200 0.526080 0.473890 -0.564052
O54   O     O_R   0.159800 0.473920 0.473890 -0.564051
O55   O     O_R   0.840200 0.473920 0.526110 -0.564052
O56   O     O_R   0.249970 0.928830 0.018980 -0.550698
O57   O     O_R   0.159800 0.526080 0.526110 -0.564052
O58   O     O_R   0.340200 0.026080 0.473890 -0.564052
O59   O     O_R   0.659800 0.973920 0.473890 -0.564051
O60   O     O_R   0.340200 0.973920 0.526110 -0.564052
O61   O     O_R   0.659800 0.026080 0.526110 -0.564052
O62   O     O_R   0.302180 0.295120 0.704840 -0.589131
O63   O     O_R   0.697820 0.704880 0.704840 -0.589131
O64   O     O_R   0.302180 0.704880 0.295160 -0.589131
O65   O     O_R   0.697820 0.295120 0.295160 -0.589131
O66   O     O_R   0.802180 0.795120 0.704840 -0.589131
O67   O     O_R   0.750030 0.928830 0.981020 -0.550698
O68   O     O_R   0.197820 0.204880 0.704840 -0.589131
O69   O     O_R   0.802180 0.204880 0.295160 -0.589131
O70   O     O_R   0.197820 0.795120 0.295160 -0.589132
O71   O     O_R   0.802180 0.295120 0.204840 -0.589131
O72   O     O_R   0.197820 0.704880 0.204840 -0.589131
O73   O     O_R   0.802180 0.704880 0.795160 -0.589131
O74   O     O_R   0.197820 0.295120 0.795160 -0.589131
O75   O     O_R   0.302180 0.795120 0.204840 -0.589131
O76   O     O_R   0.697820 0.204880 0.204840 -0.589131
O77   O     O_R   0.302180 0.204880 0.795160 -0.589131
O78   O     O_R   0.249970 0.071170 0.981020 -0.550698
O79   O     O_R   0.697820 0.795120 0.795160 -0.589131
O80   O     O_R   0.197800 0.295110 0.704850 -0.570054
O81   O     O_R   0.802200 0.704890 0.704850 -0.570054
O82   O     O_R   0.197800 0.704890 0.295150 -0.570054
O83   O     O_R   0.802200 0.295110 0.295150 -0.570054
O84   O     O_R   0.697800 0.795110 0.704850 -0.570054
O85   O     O_R   0.302200 0.204890 0.704850 -0.570054
O86   O     O_R   0.697800 0.204890 0.295150 -0.570054
O87   O     O_R   0.302200 0.795110 0.295150 -0.570053
O88   O     O_R   0.697800 0.295110 0.204850 -0.570054
O89   O     O_R   0.750030 0.571170 0.518980 -0.550699
O90   O     O_R   0.302200 0.704890 0.204850 -0.570054
O91   O     O_R   0.697800 0.704890 0.795150 -0.570054
O92   O     O_R   0.302200 0.295110 0.795150 -0.570054
O93   O     O_R   0.197800 0.795110 0.204850 -0.570054
O94   O     O_R   0.802200 0.204890 0.204850 -0.570054
O95   O     O_R   0.197800 0.204890 0.795150 -0.570054
O96   O     O_R   0.802200 0.795110 0.795150 -0.570054

loop_
_geom_bond_atom_site_label_1
_geom_bond_atom_site_label_2
_ccdc_geom_bond_type
C73   H2    S    
C169  F9    S    
H99   N13   S    
C87   C91   A    
C130  N30   S    
C210  N15   S    
C15   C151  S    
C9    C143  S    
C2    O2    A    
C21   O93   A    
Cu4   O39   S    
Cu5   O25   S    
Cu3   O55   S    
C195  C203  S    
C19   C113  S    
C167  C185  A    
Cu4   O19   S    
Cu23  O35   S    
C105  C123  A    
H93   N9    S    
C45   H24   S    
Cu20  O31   S    
H11   N24   S    
C127  N27   S    
Cu3   Cu24  S    
H68   N29   S    
Cu17  O82   S    
C140  N8    S    
C78   C96   A    
Cu5   O58   S    
C57   C202  S    
C58   C75   A    
C32   C104  S    
Cu5   O40   S    
C48   C65   A    
C212  N17   S    
C123  N1    S    
H74   N31   S    
C174  C191  A    
Cu18  O9    S    
Cu7   O7    S    
Cu11  O87   S    
Cu21  O50   S    
C183  F22   S    
H107  N16   S    
Cu21  O32   S    
C1    O9    A    
C113  C155  A    
Cu11  O90   S    
C24   O4    A    
C156  H44   S    
C62   H47   S    
C214  O18   A    
H8    N22   S    
H60   N12   S    
H3    N19   S    
C215  N19   S    
C18   O90   A    
C210  C224  A    
C119  C200  A    
C165  C183  A    
C13   O3    A    
C166  C184  A    
C8    O80   A    
C44   C81   A    
C47   C64   A    
C206  C207  A    
C116  C133  A    
Cu1   Cu18  S    
H73   N31   S    
C205  C223  A    
C167  H55   S    
Cu20  O45   S    
C54   H33   S    
C21   C135  S    
C185  C202  A    
C75   C76   A    
C177  F17   S    
C174  F14   S    
C78   C82   A    
C111  C130  A    
C37   O49   A    
C5    C213  A    
C30   C102  S    
C22   O76   A    
Cu21  O17   S    
C31   C100  S    
C90   C153  A    
C20   O74   A    
C86   C99   A    
Cu14  O73   S    
Cu24  O53   S    
C221  N26   S    
C60   H39   S    
C29   C98   S    
C5    C39   S    
C53   C89   A    
H72   N30   S    
C120  C138  A    
C53   C71   A    
Cu24  O20   S    
C118  C136  A    
C43   C61   A    
C177  C195  A    
Cu8   O43   S    
C33   O41   A    
C171  F10   S    
Cu12  O46   S    
C182  C199  A    
Cu14  O66   S    
C88   C102  A    
H77   N2    S    
C186  F26   S    
C24   O21   A    
Cu1   O44   S    
C35   O22   A    
H64   N27   S    
C139  C150  A    
C44   H23   S    
Cu9   O85   S    
Cu9   Cu15  S    
H103  N14   S    
C181  O56   A    
C54   C88   A    
C116  C197  A    
C39   O55   A    
C146  C164  A    
Cu12  O13   S    
C14   C147  S    
C161  H49   S    
C45   C63   A    
C45   C80   A    
C180  C198  A    
H101  N14   S    
C111  C194  A    
C16   O70   A    
Cu8   O24   S    
C83   C86   A    
C88   C89   A    
C3    C37   S    
C6    C42   S    
Cu10  O84   S    
C159  O34   A    
C51   C69   A    
C175  C193  A    
C11   O83   A    
C40   O54   A    
Cu18  O29   S    
H10   N24   S    
C115  F32   S    
C23   O77   A    
C56   C95   A    
C9    O81   A    
C115  C196  A    
C207  C223  A    
C135  C157  A    
C80   C97   A    
Cu12  O28   S    
C32   O42   A    
C74   H20   S    
C23   O95   A    
C108  F27   S    
Cu15  O95   S    
C17   O88   A    
Cu11  O64   S    
H16   N26   S    
C106  C125  A    
C203  O17   A    
Cu2   O21   S    
H109  N17   S    
C25   O79   A    
C162  H50   S    
C155  H43   S    
C37   O51   A    
C208  C222  A    
C110  C129  A    
H78   N2    S    
H83   N4    S    
H86   N6    S    
C137  N5    S    
Cu11  Cu17  S    
C59   H38   S    
C147  C165  A    
C175  F15   S    
C129  C135  A    
C176  F16   S    
C46   C201  S    
C4    C40   S    
C46   O24   A    
C74   C77   A    
H97   N11   S    
C75   H21   S    
C50   C67   A    
C12   O84   A    
C129  N29   S    
C9    O63   A    
C51   H30   S    
C66   C67   A    
Cu7   O60   S    
C105  C187  A    
C33   O43   A    
C159  C190  S    
C108  C190  A    
C1    O1    A    
C180  F20   S    
C121  F7    S    
Cu15  O74   S    
C115  C132  A    
C60   C92   A    
C138  C149  A    
C3    C211  A    
C43   H22   S    
C131  N31   S    
Cu22  O33   S    
C168  C186  A    
C49   C66   A    
C154  C172  A    
C205  N9    S    
C67   H58   S    
C55   H34   S    
C39   O53   A    
C20   C101  S    
C145  C163  A    
C54   C72   A    
C178  C196  A    
C170  C191  S    
H66   N28   S    
C192  C194  S    
C51   C83   A    
C71   H17   S    
C217  N21   S    
C29   O35   A    
H79   N3    S    
Cu6   O6    S    
C196  C214  S    
C141  C158  A    
H104  N15   S    
Cu9   O62   S    
Cu1   O27   S    
C110  C193  A    
C14   O68   A    
H108  N17   S    
C68   O8    A    
C172  F11   S    
C12   O66   A    
Cu8   O61   S    
H7    N21   S    
C114  F31   S    
C10   C146  S    
C7    C220  A    
C28   C99   S    
Cu6   O59   S    
C158  H46   S    
Cu19  O48   S    
C69   H69   S    
C34   O47   A    
Cu4   O57   S    
C48   C86   A    
H67   N28   S    
Cu19  O10   S    
C30   O38   A    
C30   O36   A    
C34   C223  S    
C218  C221  A    
C87   C100  A    
C212  C224  A    
Cu22  O51   S    
C26   O29   A    
C133  C144  A    
C184  C201  A    
Cu20  O49   S    
C165  H53   S    
C48   H27   S    
C52   C91   A    
C178  F18   S    
C214  O89   A    
C157  H45   S    
C183  C200  A    
H76   N32   S    
Cu16  O71   S    
C148  O23   A    
C122  C140  A    
C71   C72   A    
Cu8   O8    S    
C13   O20   A    
C27   O30   A    
C101  C154  A    
C206  C222  A    
Cu23  O78   S    
C143  C161  A    
C7    C41   S    
C192  O16   A    
C55   C87   A    
Cu10  O91   S    
C136  C146  A    
C50   H29   S    
Cu3   O3    S    
C26   C97   S    
C55   C73   A    
Cu19  O34   S    
C38   O52   A    
Cu12  O12   S    
Cu13  Cu16  S    
C72   H102  S    
H4    N20   S    
C16   C150  S    
C47   C78   A    
C59   C76   A    
C117  C198  A    
C57   O25   A    
Cu15  O80   S    
C154  H42   S    
C3    C209  A    
H100  N13   S    
Cu2   O37   S    
H96   N10   S    
C36   C222  S    
Cu10  O79   S    
C2    C197  S    
C114  C131  A    
H61   N12   S    
C163  H51   S    
C10   O64   A    
C50   C84   A    
C156  C174  A    
C34   O44   A    
C171  C188  A    
C20   O92   A    
Cu6   O26   S    
Cu12  Cu19  S    
H75   N32   S    
C148  O11   A    
Cu22  O14   S    
Cu14  O81   S    
C122  F8    S    
C208  N13   S    
C68   C204  S    
Cu3   O38   S    
C173  C190  A    
C40   O57   A    
C209  C212  A    
Cu10  Cu14  S    
C70   H13   S    
C38   C224  S    
H87   N6    S    
H92   N8    S    
C7    C218  A    
Cu16  O94   S    
C18   C79   S    
C163  C180  A    
C125  N12   S    
C218  N22   S    
C181  C193  S    
C124  C128  A    
C29   O32   A    
C132  C143  A    
Cu15  O68   S    
C160  H48   S    
Cu7   O22   S    
Cu9   O77   S    
C27   C96   S    
C14   O85   A    
C117  C134  A    
H70   N29   S    
Cu17  O70   S    
C122  C204  A    
C6    C219  A    
Cu3   O18   S    
C56   C74   A    
C114  C195  A    
C19   O73   A    
C89   C100  A    
C107  F23   S    
C184  F24   S    
C42   O61   A    
C84   C85   A    
Cu16  O83   S    
C219  C220  A    
C81   C96   A    
C27   O28   A    
C164  H52   S    
C65   H80   S    
C15   O86   A    
C11   O65   A    
C61   C64   A    
C62   C63   A    
C38   O50   A    
C109  C128  A    
Cu14  O96   S    
C136  N4    S    
C107  C189  A    
C70   C73   A    
C152  H40   S    
C126  N23   S    
H15   N26   S    
C64   H25   S    
C140  C151  A    
C169  C187  A    
C28   O33   A    
C182  F21   S    
C94   C103  A    
Cu21  Cu23  S    
H106  N16   S    
H12   N25   S    
C82   C97   A    
C206  N10   S    
H71   N30   S    
C128  N28   S    
H9    N22   S    
H112  N19   S    
C134  C145  A    
C2    O19   A    
C36   O46   A    
C33   C103  S    
C84   C99   A    
C139  N7    S    
C12   C149  S    
C137  C147  A    
C25   C141  S    
C17   C90   S    
Cu13  O65   S    
C220  N25   S    
C46   O6    A    
Cu18  O23   S    
C8    O62   A    
C172  C189  A    
Cu4   O4    S    
Cu5   O5    S    
C112  O12   A    
C105  F1    S    
Cu5   Cu7   S    
C76   H18   S    
C152  C169  A    
C121  C139  A    
C116  F2    S    
C58   H37   S    
C65   C69   A    
C150  C167  A    
C216  N20   S    
Cu2   O54   S    
C90   C125  A    
C18   O72   A    
C120  F6    S    
C160  C177  A    
C28   O31   A    
C164  C182  A    
C66   H91   S    
C35   O5    A    
Cu13  O86   S    
Cu10  O63   S    
C25   O96   A    
C118  F4    S    
C49   C85   A    
C176  C194  A    
C161  C178  A    
Cu22  O67   S    
Cu17  O72   S    
C10   O82   A    
C179  F19   S    
H6    N21   S    
C31   O39   A    
C93   C94   A    
C215  C216  A    
C117  F3    S    
C159  O13   A    
H95   N10   S    
H57   N1    S    
Cu11  O75   S    
H111  N18   S    
H88   N7    S    
C121  C202  A    
H105  N15   S    
Cu19  O30   S    
C151  C168  A    
C192  O67   A    
C112  O10   A    
C53   H32   S    
C41   O58   A    
C207  N11   S    
C85   C98   A    
C92   C103  A    
H14   N25   S    
C24   C199  S    
Cu20  Cu22  S    
C23   C142  S    
C1    C187  S    
Cu9   O92   S    
H62   N23   S    
C15   O69   A    
C173  F13   S    
Cu13  O76   S    
C56   H35   S    
C6    C221  A    
C155  C173  A    
C181  O15   A    
C49   H28   S    
C4    C215  A    
Cu23  O15   S    
C36   O48   A    
C106  F12   S    
C120  C201  A    
C219  N24   S    
C203  O78   A    
C22   O94   A    
C118  C199  A    
C119  F5    S    
C93   C104  A    
H84   N5    S    
C35   C200  S    
C61   H36   S    
Cu23  O52   S    
Cu24  O36   S    
C60   C77   A    
C13   C198  S    
Cu24  O89   S    
C109  F28   S    
C111  F30   S    
C132  N32   S    
C211  N16   S    
C213  C217  A    
C11   C145  S    
C68   O26   A    
C179  C197  A    
C44   C62   A    
C42   O59   A    
C5    C216  A    
C79   C123  A    
Cu18  O47   S    
C83   C98   A    
C92   C95   A    
H89   N7    S    
H90   N8    S    
H63   N23   S    
Cu6   Cu8   S    
C168  H56   S    
Cu6   O41   S    
C185  F25   S    
H81   N3    S    
Cu13  O88   S    
H82   N4    S    
C153  C171  A    
C101  C126  A    
C186  C204  A    
C8    C144  S    
C170  O45   A    
H98   N11   S    
C17   O71   A    
C162  C179  A    
C130  C141  A    
C131  C142  A    
Cu7   O42   S    
C157  C175  A    
H5    N20   S    
C158  C176  A    
C31   O37   A    
Cu2   Cu4   S    
C213  N18   S    
C124  C156  A    
C19   O91   A    
C91   C102  A    
Cu20  O16   S    
H59   N1    S    
C153  H41   S    
C95   C104  A    
C63   H1    S    
Cu16  O69   S    
C205  C208  A    
C148  C189  S    
Cu21  O56   S    
C166  H54   S    
C144  C162  A    
C57   O7    A    
H94   N9    S    
C149  C166  A    
C107  C126  A    
C142  C160  A    
C80   C81   A    
C112  C188  S    
C22   C124  S    
C113  C127  A    
C32   O40   A    
C52   H31   S    
C77   H19   S    
C21   O75   A    
C110  F29   S    
C58   C94   A    
C41   O60   A    
C106  C188  A    
C133  N2    S    
Cu17  O93   S    
C170  O14   A    
H110  N18   S    
C119  C137  A    
C109  C191  A    
C26   O27   A    
C16   O87   A    
C47   H26   S    
C210  C211  A    
C108  C127  A    
Cu1   O11   S    
C52   C70   A    
C209  N14   S    
Cu1   O1    S    
C4    C217  A    
C138  N6    S    
C134  N3    S    
C43   C82   A    
C79   C152  A    
H85   N5    S    
C59   C93   A    
H65   N27   S    
Cu2   O2    S    
