data_mof_unit_34221.cif
_audit_creation_date              2013-03-05T16:48:47-0500
_audit_creation_method            fapswitch 2.2
_symmetry_space_group_name_H-M    P1
_symmetry_Int_Tables_number       1
_space_group_crystal_system       triclinic
_cell_length_a                    10.907588
_cell_length_b                    10.90551
_cell_length_c                    13.12013
_cell_angle_alpha                 91.41874
_cell_angle_beta                  90.720728
_cell_angle_gamma                 90.335025
_cell_volume                      1560.04485286

loop_
_atom_site_label
_atom_site_type_symbol
_atom_site_description
_atom_site_fract_x
_atom_site_fract_y
_atom_site_fract_z
_atom_type_partial_charge
O1    O     O_R   0.499980 0.319630 0.578260 -0.585751
O2    O     O_R   0.500020 0.680370 0.421740 -0.585832
O3    O     O_R   0.500000 0.319650 0.421740 -0.586715
O4    O     O_R   0.500000 0.680350 0.578260 -0.586834
C1    C     C_R   0.496758 0.259463 0.498607 0.847077
C2    C     C_R   0.503242 0.740536 0.501396 0.847159
O5    O     O_R   0.319630 0.500000 0.578260 -0.586368
O6    O     O_R   0.680370 0.500000 0.421740 -0.586346
O7    O     O_R   0.319650 0.500020 0.421740 -0.568047
O8    O     O_R   0.680350 0.499980 0.578260 -0.568036
C3    C     C_R   0.259643 0.506452 0.499349 0.850864
C4    C     C_R   0.740362 0.493579 0.500651 0.850900
Cu1   Cu    Cu3+1 0.499990 0.499990 0.592680 1.001649
Cu2   Cu    Cu3+1 0.500010 0.500010 0.407320 1.001665
H1    H     H_    0.261572 0.668429 0.058368 0.176106
H2    H     H_    0.738421 0.332559 0.941855 0.176635
C5    C     C_R   0.237554 0.715809 0.217204 -0.097432
C6    C     C_R   0.762345 0.284813 0.783074 -0.097386
H3    H     H_    0.292007 0.798904 0.214294 0.140262
H4    H     H_    0.707761 0.201821 0.786096 0.140320
C7    C     C_R   0.184835 0.681472 0.308966 -0.093070
C8    C     C_R   0.815090 0.318893 0.691255 -0.093204
H5    H     H_    0.199035 0.738659 0.376833 0.132311
H6    H     H_    0.800797 0.261604 0.623462 0.132072
C9    C     C_R   0.114889 0.572997 0.312956 0.113494
C10   C     C_R   0.885147 0.427275 0.687107 0.113715
C11   C     C_R   0.095920 0.501556 0.223528 -0.128407
C12   C     C_R   0.904240 0.498852 0.776444 -0.128254
H7    H     H_    0.040691 0.418781 0.224888 0.152656
H8    H     H_    0.959562 0.581555 0.774965 0.153048
C13   C     C_R   0.149134 0.535924 0.132180 -0.165664
C14   C     C_R   0.851019 0.464730 0.867850 -0.166190
H9    H     H_    0.135441 0.479704 0.063781 0.142705
H10   H     H_    0.864797 0.521062 0.936176 0.142760
C15   C     C_R   0.220080 0.642726 0.129104 -0.089614
C16   C     C_R   0.779937 0.358041 0.871077 -0.089360
C17   C     C_R   0.932061 0.525746 0.412504 -0.167278
C18   C     C_R   0.067954 0.474283 0.587484 -0.167202
H11   H     H_    0.879168 0.548054 0.344942 0.156826
H12   H     H_    0.120848 0.451986 0.655049 0.156793
C19   C     C_R   0.872948 0.492579 0.501814 -0.055953
C20   C     C_R   0.127063 0.507457 0.498181 -0.055901
C21   C     C_R   0.941327 0.465188 0.590410 0.034213
C22   C     C_R   0.058691 0.534880 0.409592 0.034000
H13   H     H_    0.324807 0.244530 0.050353 0.168649
H14   H     H_    0.674486 0.755668 0.949942 0.168658
C23   C     C_R   0.276032 0.210328 0.203997 -0.173266
C24   C     C_R   0.723485 0.789532 0.796302 -0.173308
H15   H     H_    0.186047 0.249429 0.193238 0.175043
H16   H     H_    0.813362 0.750228 0.807193 0.175145
C25   C     C_R   0.310346 0.162612 0.298231 0.388495
C26   C     C_R   0.689396 0.837178 0.701979 0.388470
C27   C     C_R   0.428650 0.110723 0.309643 -0.122842
C28   C     C_R   0.571182 0.889278 0.690433 -0.122714
C29   C     C_R   0.508529 0.103171 0.224766 -0.063978
C30   C     C_R   0.491218 0.897081 0.775254 -0.064305
C31   C     C_R   0.471376 0.153448 0.130293 0.056151
C32   C     C_R   0.528169 0.846910 0.869817 0.055931
C33   C     C_R   0.354948 0.205736 0.121645 -0.266106
C34   C     C_R   0.644485 0.794404 0.878591 -0.266140
C35   C     C_R   0.469837 0.930210 0.412889 -0.188874
C36   C     C_R   0.530206 0.069787 0.587118 -0.188849
H17   H     H_    0.445142 0.876122 0.345168 0.147638
H18   H     H_    0.554928 0.123880 0.654831 0.147827
C37   C     C_R   0.502636 0.872938 0.503283 -0.064779
C38   C     C_R   0.497369 0.127057 0.496732 -0.065285
C39   C     C_R   0.533248 0.943160 0.591817 0.051312
C40   C     C_R   0.466733 0.056833 0.408210 0.051001
N1    N     N_1   0.500030 0.500030 0.268070 -0.136298
N2    N     N_1   0.499970 0.499970 0.731930 -0.136299
C41   C     C_1   0.500098 0.499984 0.173569 0.165666
C42   C     C_1   0.499890 0.500019 0.826431 0.165584
C43   C     C_1   0.500061 0.499991 0.050681 -0.103341
C44   C     C_1   0.499915 0.500015 0.949319 -0.103503
C45   C     C_2   0.627702 0.039206 0.236419 0.460474
H19   H     H_    0.682737 0.053952 0.305246 0.090154
O9    O     O_2   0.661506 0.963905 0.172499 -0.515919
C46   C     C_2   0.372128 0.961120 0.763428 0.461164
H20   H     H_    0.316912 0.945799 0.694833 0.090042
O10   O     O_2   0.338614 0.037080 0.826909 -0.516053
C47   C     C_2   0.550671 0.158015 0.039117 0.380196
H21   H     H_    0.509787 0.174715 0.964886 0.089733
O11   O     O_2   0.661884 0.148709 0.045478 -0.528515
C48   C     C_2   0.448796 0.842681 0.960979 0.379245
H22   H     H_    0.489548 0.825432 0.035173 0.089260
O12   O     O_2   0.337645 0.852959 0.954673 -0.528153
N3    N     N_R   0.222928 0.164895 0.379901 0.112878
O13   O     O_R   0.219159 0.077245 0.445328 -0.356987
O14   O     O_R   0.135824 0.245919 0.381090 -0.388603
N4    N     N_R   0.776939 0.834519 0.620376 0.112930
O15   O     O_R   0.780336 0.921439 0.554246 -0.357091
O16   O     O_R   0.864365 0.753832 0.619757 -0.388825

loop_
_geom_bond_atom_site_label_1
_geom_bond_atom_site_label_2
_geom_bond_distance
_ccdc_geom_bond_type
C38   C40   1.410762 A    
N3    O13   1.301268 A    
C11   H7    1.082959 S    
C43   C44   1.329864 T    
C26   N4    1.443413 S    
O7    Cu2   1.978737 S    
C47   H21   1.085988 S    
C23   H15   1.081456 S    
O5    C3    1.221506 A    
C36   C39   1.384398 A    
O1    C1    1.220155 A    
C14   C16   1.396192 A    
C48   O12   1.220169 D    
C18   C20   1.398799 A    
C46   O10   1.220886 D    
C31   C33   1.399588 A    
Cu1   N2    1.826986 S    
C32   C34   1.399601 A    
C30   C46   1.486622 S    
C3    C20   1.446128 S    
C35   H17   1.084478 S    
O4    Cu1   1.980653 S    
N1    C41   1.239860 T    
C27   C40   1.489070 S    
C36   H18   1.084495 S    
C2    C37   1.443565 S    
C37   C39   1.410822 A    
C13   H9    1.082519 S    
C29   C45   1.486797 S    
C24   H16   1.081500 S    
Cu1   Cu2   2.431955 S    
C19   C21   1.412328 A    
O2    C2    1.220186 A    
C20   C22   1.412304 A    
C9    C22   1.482807 S    
H1    C15   1.080124 S    
C47   O11   1.219879 D    
C26   C28   1.419972 A    
C10   C21   1.482761 S    
C24   C34   1.389984 A    
C27   C29   1.423629 A    
C7    H5    1.083367 S    
C28   C30   1.423743 A    
C36   C38   1.397602 A    
C11   C13   1.396773 A    
C12   C14   1.396707 A    
C48   H22   1.086142 S    
C42   C44   1.612312 S    
C25   N3    1.443139 S    
C41   C43   1.612307 S    
C46   H20   1.085523 S    
C23   C25   1.400696 A    
C28   C39   1.489164 S    
C5    C7    1.399128 A    
C25   C27   1.419737 A    
C14   H10   1.082519 S    
C45   H19   1.086135 S    
C4    C19   1.446188 S    
C32   C48   1.486796 S    
O7    C3    1.218154 A    
N4    O16   1.301297 A    
O5    Cu1   1.974001 S    
O6    C4    1.221506 A    
C45   O9    1.221001 D    
O3    Cu2   1.980652 S    
O8    C4    1.218177 A    
O4    C2    1.217562 A    
C29   C31   1.422971 A    
Cu2   N1    1.826988 S    
C8    H6    1.083344 S    
O1    Cu1   1.971328 S    
C7    C9    1.406332 A    
H13   C33   1.084179 S    
O6    Cu2   1.973998 S    
H14   C34   1.084156 S    
C6    C8    1.399097 A    
C1    C38   1.443608 S    
O3    C1    1.217604 A    
O8    Cu1   1.978737 S    
C9    C11   1.404710 A    
C10   C12   1.404694 A    
C17   C22   1.385299 A    
C12   H8    1.082935 S    
C18   C21   1.385253 A    
C17   H11   1.085014 S    
H2    C16   1.080045 S    
C18   H12   1.085020 S    
C35   C40   1.384358 A    
N4    O15   1.301456 A    
C13   C15   1.396299 A    
C5    H3    1.082320 S    
C30   C32   1.422926 A    
C6    H4    1.082246 S    
C17   C19   1.398872 A    
O2    Cu2   1.971326 S    
C31   C47   1.486610 S    
C23   C33   1.389999 A    
C35   C37   1.397592 A    
C24   C26   1.400802 A    
C8    C10   1.406270 A    
N3    O14   1.301230 A    
N2    C42   1.239860 T    
C5    C15   1.398106 A    
C6    C16   1.398099 A    
