data_mof_unit_55491.cif
_audit_creation_date              2012-12-11T16:24:26-0500
_audit_creation_method            fapswitch 2.2
_symmetry_space_group_name_H-M    P1
_symmetry_Int_Tables_number       1
_space_group_crystal_system       triclinic
_cell_length_a                    14.74158
_cell_length_b                    14.765913
_cell_length_c                    33.286683
_cell_angle_alpha                 96.004271
_cell_angle_beta                  96.254127
_cell_angle_gamma                 61.22802
_cell_volume                      6301.95730256

loop_
_atom_site_label
_atom_site_type_symbol
_atom_type_description
_atom_site_fract_x
_atom_site_fract_y
_atom_site_fract_z
_atom_type_partial_charge
C1    C     C_R   0.390949 0.699696 0.446161 0.546038
C2    C     C_1   0.314409 0.340888 0.229004 -0.010322
C3    C     C_1   0.114693 0.485435 0.830610 0.217055
C4    C     C_1   0.852897 0.488401 0.693460 0.209466
C5    C     C_1   0.556731 0.736169 0.612463 0.224609
C6    C     C_1   0.184553 0.809049 0.595631 0.229484
C7    C     C_1   0.319727 0.345236 0.265342 -0.011104
C8    C     C_R   0.405812 0.386483 0.433971 0.543079
C9    C     C_R   0.291589 0.294125 0.101780 0.018284
C10   C     C_R   0.756521 0.373389 0.410212 0.021510
C11   C     C_R   0.789225 0.435496 0.393587 -0.129068
C12   C     C_R   0.818944 0.414548 0.353981 -0.118225
C13   C     C_R   0.816794 0.330964 0.330343 0.035393
C14   C     C_R   0.793560 0.263193 0.348200 -0.113234
C15   C     C_R   0.763514 0.284319 0.387859 -0.127570
C16   C     C_R   0.329986 0.348750 0.308635 0.040240
C17   C     C_R   0.836964 0.310706 0.205075 0.345591
C18   C     C_R   0.828701 0.321092 0.286517 0.347167
C19   C     C_R   0.836823 0.389381 0.142454 -0.117750
C20   C     C_R   0.700691 0.410076 0.447519 0.544127
C21   C     C_R   0.866232 0.378476 0.103184 -0.128736
C22   C     C_R   0.910814 0.197122 0.099460 -0.129501
C23   C     C_R   0.881335 0.208063 0.138839 -0.117344
C24   C     C_R   0.848733 0.303187 0.161305 0.033137
C25   C     C_R   0.908112 0.281171 0.082071 0.020434
C26   C     C_R   0.370987 0.755102 0.409308 0.009222
C27   C     C_R   0.411678 0.265900 0.328327 -0.107364
C28   C     C_R   0.271833 0.799842 0.389334 -0.132102
C29   C     C_R   0.257391 0.831120 0.349874 -0.014387
C30   C     C_R   0.344095 0.815576 0.329676 0.020115
C31   C     C_R   0.440946 0.780351 0.351514 -0.130620
C32   C     C_R   0.393105 0.702412 0.561284 0.536610
C33   C     C_R   0.454217 0.750702 0.390900 -0.133972
C34   C     C_R   0.339581 0.826271 0.204056 0.341314
C35   C     C_R   0.339186 0.825360 0.285599 0.341039
C36   C     C_R   0.267721 0.814965 0.131830 -0.012211
C37   C     C_R   0.249000 0.848558 0.092574 -0.133583
C38   C     C_R   0.431579 0.274712 0.370078 -0.122442
C39   C     C_R   0.372515 0.913400 0.107250 -0.136007
C40   C     C_R   0.390639 0.881557 0.146500 -0.131754
C41   C     C_R   0.334550 0.837363 0.160076 0.020798
C42   C     C_R   0.297449 0.902236 0.080735 0.008412
C43   C     C_R   0.368860 0.367923 0.584011 0.007677
C44   C     C_R   0.407143 0.388720 0.548887 0.546459
C45   C     C_R   0.273577 0.441805 0.598896 -0.131261
C46   C     C_R   0.246639 0.433263 0.636785 -0.016750
C47   C     C_R   0.316475 0.349820 0.660428 0.019944
C48   C     C_R   0.406928 0.271346 0.643559 -0.130395
C49   C     C_R   0.393682 0.252067 0.166002 -0.108647
C50   C     C_R   0.432903 0.280286 0.605795 -0.132513
C51   C     C_R   0.298187 0.342646 0.784496 0.338631
C52   C     C_R   0.303450 0.346911 0.703566 0.339913
C53   C     C_R   0.206765 0.404388 0.849728 -0.015915
C54   C     C_R   0.203139 0.385520 0.889661 -0.133997
C55   C     C_R   0.377352 0.241580 0.888327 -0.132680
C56   C     C_R   0.701669 0.413406 0.562604 0.544434
C57   C     C_R   0.381799 0.260017 0.848659 -0.131527
C58   C     C_R   0.295602 0.338403 0.828359 0.022518
C59   C     C_R   0.286235 0.301030 0.908497 0.008730
C60   C     C_R   0.384714 0.233350 0.124212 -0.125150
C61   C     C_R   0.756058 0.379316 0.602541 0.003119
C62   C     C_R   0.791143 0.440725 0.627431 -0.123840
C63   C     C_R   0.821896 0.420841 0.668280 -0.003188
C64   C     C_R   0.817870 0.338451 0.684394 0.023842
C65   C     C_R   0.789729 0.273132 0.659046 -0.123535
C66   C     C_R   0.759417 0.293039 0.618400 -0.126648
C67   C     C_R   0.889798 0.212311 0.822378 -0.111467
C68   C     C_R   0.370048 0.366927 0.392465 0.018983
C69   C     C_R   0.915439 0.201338 0.863883 -0.125921
C70   C     C_R   0.875051 0.381736 0.873049 -0.123216
C71   C     C_R   0.210599 0.378702 0.121549 -0.117066
C72   C     C_R   0.849417 0.392459 0.831610 -0.102496
C73   C     C_R   0.859631 0.307087 0.806118 0.038729
C74   C     C_1   0.845479 0.315629 0.763130 -0.010214
C75   C     C_1   0.834200 0.324652 0.727190 -0.009616
C76   C     C_R   0.911735 0.285120 0.889427 0.018055
C77   C     C_R   0.374726 0.759034 0.602129 -0.014540
C78   C     C_R   0.277366 0.797591 0.619247 -0.026223
C79   C     C_R   0.268823 0.824676 0.660690 -0.113093
C80   C     C_R   0.283567 0.446935 0.372735 -0.123636
C81   C     C_R   0.354453 0.816657 0.685464 0.012410
C82   C     C_R   0.219793 0.397157 0.163388 -0.095162
C83   C     C_R   0.447169 0.789812 0.668688 -0.115240
C84   C     C_R   0.457979 0.762390 0.627317 -0.033536
C85   C     C_R   0.396042 0.884570 0.832902 -0.108377
C86   C     C_R   0.376637 0.912082 0.873683 -0.125067
C87   C     C_R   0.228921 0.879800 0.863398 -0.124436
C88   C     C_R   0.248632 0.852191 0.822664 -0.108061
C89   C     C_R   0.330302 0.857461 0.807196 0.038930
C90   C     C_1   0.341517 0.842562 0.764479 -0.012576
C91   C     C_1   0.348148 0.831557 0.728470 -0.008974
C92   C     C_R   0.263981 0.437936 0.330950 -0.105458
C93   C     C_R   0.310090 0.331838 0.185710 0.041300
C94   C     C_R   0.290670 0.913392 0.889012 0.019148
C95   C     C_R   0.963617 0.264097 0.045568 0.545466
C96   C     C_R   0.272791 0.259362 0.060041 0.544163
C97   C     C_R   0.259354 0.959528 0.043724 0.547263
C98   C     C_R   0.962816 0.267603 0.930669 0.542823
C99   C     C_R   0.270457 0.263801 0.945124 0.547728
C100  C     C_R   0.256223 0.964836 0.929053 0.543546
C101  C     C_1   0.153222 0.877384 0.331068 0.221344
C102  C     C_1   0.216005 0.759442 0.142090 0.221187
C103  C     C_1   0.147729 0.511670 0.650576 0.225361
Cr1   Cr    Cr6+3 0.576280 0.580550 0.506370 1.050690
Cr2   Cr    Cr6+3 0.346780 0.572400 0.496520 1.040296
Cr3   Cr    Cr6+3 0.576960 0.347070 0.497150 1.021867
Cr4   Cr    Cr6+3 0.087320 0.083240 0.984860 1.018697
Cr5   Cr    Cr6+3 0.087720 0.316210 0.996740 1.019443
Cr6   Cr    Cr6+3 0.317350 0.090340 0.995890 1.016768
H1    H     H_    0.448445 0.167739 0.109903 0.131408
H2    H     H_    0.531511 0.717373 0.405763 0.138598
H3    H     H_    0.464029 0.201411 0.183154 0.120246
H4    H     H_    0.411817 0.953756 0.098769 0.136524
H5    H     H_    0.506358 0.221511 0.594867 0.139288
H6    H     H_    0.132242 0.432438 0.904947 0.133011
H7    H     H_    0.461461 0.205765 0.660630 0.142758
H8    H     H_    0.462913 0.196421 0.311176 0.120663
H9    H     H_    0.442934 0.176446 0.902190 0.134782
H10   H     H_    0.451464 0.209639 0.833159 0.135310
H11   H     H_    0.944065 0.125787 0.875479 0.131104
H12   H     H_    0.739476 0.234551 0.400004 0.133786
H13   H     H_    0.897628 0.145877 0.802797 0.116522
H14   H     H_    0.786854 0.209246 0.671120 0.121917
H15   H     H_    0.732985 0.244151 0.600042 0.138093
H16   H     H_    0.825747 0.466230 0.819237 0.133944
H17   H     H_    0.871472 0.447672 0.891859 0.134033
H18   H     H_    0.498650 0.211769 0.384363 0.133511
H19   H     H_    0.425459 0.937840 0.892574 0.130178
H20   H     H_    0.459580 0.888617 0.821100 0.119747
H21   H     H_    0.197560 0.830963 0.802889 0.125471
H22   H     H_    0.234790 0.518980 0.389091 0.134887
H23   H     H_    0.861957 0.444953 0.090322 0.133676
H24   H     H_    0.154872 0.459334 0.178497 0.129742
H25   H     H_    0.137873 0.426855 0.105147 0.135196
H26   H     H_    0.200387 0.502303 0.315854 0.126088
H27   H     H_    0.785832 0.504004 0.410241 0.134684
H28   H     H_    0.193186 0.836683 0.071774 0.131532
H29   H     H_    0.508639 0.769197 0.337363 0.144955
H30   H     H_    0.443829 0.898152 0.166970 0.142510
H31   H     H_    0.221971 0.508632 0.581814 0.141322
H32   H     H_    0.790084 0.506916 0.615622 0.161210
H33   H     H_    0.512308 0.787268 0.688156 0.127964
H34   H     H_    0.838596 0.466978 0.341289 0.138226
H35   H     H_    0.162149 0.880070 0.874253 0.133394
H36   H     H_    0.195846 0.849222 0.673953 0.126493
H37   H     H_    0.792423 0.197446 0.330848 0.144781
H38   H     H_    0.809799 0.464292 0.158714 0.140475
H39   H     H_    0.942345 0.121220 0.083793 0.136406
H40   H     H_    0.890152 0.140535 0.152428 0.144493
H41   H     H_    0.206316 0.806458 0.403840 0.135231
N1    N     N_R   0.829295 0.395197 0.228081 -0.227616
N2    N     N_R   0.416978 0.829555 0.268881 -0.231971
N3    N     N_R   0.416814 0.830689 0.228978 -0.231777
N4    N     N_R   0.248759 0.433701 0.766262 -0.196322
N5    N     N_1   0.069642 0.914572 0.316108 -0.260577
N6    N     N_1   0.174585 0.714832 0.150196 -0.276118
N7    N     N_1   0.068395 0.574513 0.661546 -0.239245
N8    N     N_1   0.040758 0.550312 0.815353 -0.256697
N9    N     N_1   0.877788 0.542463 0.713644 -0.240812
N10   N     N_1   0.635864 0.715673 0.600732 -0.280545
N11   N     N_1   0.110044 0.818385 0.576826 -0.280692
N12   N     N_R   0.251836 0.435775 0.726592 -0.195721
N13   N     N_R   0.353013 0.255955 0.721907 -0.232827
N14   N     N_R   0.350150 0.253847 0.761548 -0.230192
N15   N     N_R   0.824921 0.400422 0.267946 -0.228147
N16   N     N_R   0.836176 0.236463 0.263551 -0.216057
N17   N     N_R   0.840976 0.231055 0.223602 -0.221079
N18   N     N_R   0.261904 0.822140 0.220803 -0.193151
N19   N     N_R   0.262280 0.820593 0.260665 -0.194153
O1    O     O_R   0.679450 0.499830 0.463150 -0.517762
O2    O     O_R   0.340240 0.172500 0.045430 -0.519643
O3    O     O_R   0.309670 0.000990 0.032050 -0.501726
O4    O     O_R   0.480650 0.664000 0.464630 -0.501427
O5    O     O_R   0.168330 0.982130 0.939200 -0.519426
O6    O     O_R   0.000140 0.178170 0.944610 -0.501554
O7    O     O_R   0.983010 0.336750 0.948660 -0.518263
O8    O     O_R   0.181800 0.312190 0.959860 -0.501482
O9    O     O_R   0.338500 0.175680 0.956950 -0.517805
O10   O     O_R   0.308050 0.003930 0.950020 -0.501770
O11   O     O_3   0.164130 0.163270 0.992500 -0.238888
O12   O     O_R   0.356040 0.477400 0.534170 -0.499171
O13   O     O_R   0.323930 0.675950 0.455370 -0.514448
O14   O     O_R   0.354700 0.475360 0.451930 -0.501807
O15   O     O_R   0.494470 0.320860 0.448390 -0.517252
O16   O     O_R   0.662580 0.357570 0.460050 -0.501862
O17   O     O_R   0.680900 0.502040 0.551870 -0.495664
O18   O     O_R   0.481990 0.666040 0.546870 -0.485236
O19   O     O_R   0.325370 0.678160 0.544080 -0.495707
O20   O     O_R   0.495910 0.323070 0.537100 -0.517624
O21   O     O_R   0.663920 0.359620 0.542290 -0.503388
O22   O     O_3   0.500010 0.500010 0.500010 -0.247595
O23   O     O_R   0.170070 0.978950 0.027680 -0.516471
O24   O     O_R   0.001760 0.175230 0.026640 -0.500799
O25   O     O_R   0.984760 0.333570 0.037150 -0.518271
O26   O     O_R   0.183410 0.309240 0.041890 -0.500297

loop_
_geom_bond_atom_site_label_1
_geom_bond_atom_site_label_2
_ccdc_geom_bond_type
C68   C80   A    
C20   O1    A    
C87   C88   A    
C87   C94   A    
C51   N4    A    
C28   H41   S    
C55   C59   A    
Cr4   O11   S    
C59   C99   S    
C73   C74   S    
Cr2   O22   S    
C2    C7    T    
C88   H21   S    
C71   H25   S    
C38   H18   S    
C18   N16   A    
C79   H36   S    
C53   C54   A    
C4    C63   S    
C1    O4    A    
C62   C63   A    
C97   O3    A    
C13   C18   S    
C83   C84   A    
Cr2   O19   S    
C25   C95   S    
C36   C37   A    
C19   C21   A    
C99   O8    A    
C10   C15   A    
C85   C86   A    
C30   C31   A    
C6    C78   S    
C4    N9    T    
C101  N5    T    
C27   C38   A    
C76   C98   S    
C40   H30   S    
Cr5   O11   S    
C69   C76   A    
C36   C102  S    
C37   C42   A    
C86   C94   A    
Cr2   O12   S    
C85   H20   S    
C20   O16   A    
C61   C66   A    
C97   O23   A    
N13   N14   A    
C10   C20   S    
C39   H4    S    
C96   O2    A    
Cr4   O23   S    
C3    N8    T    
C23   C24   A    
C31   C33   A    
C67   C73   A    
C87   H35   S    
Cr6   O3    S    
C57   H10   S    
C71   C82   A    
C88   C89   A    
C70   H17   S    
C16   C27   A    
C48   C50   A    
C23   H40   S    
C95   O24   A    
C82   C93   A    
C37   H28   S    
C13   C14   A    
C36   C41   A    
C17   N1    A    
C34   C41   S    
Cr3   O22   S    
C34   N18   A    
Cr6   O9    S    
C81   C83   A    
C18   N15   A    
C39   C42   A    
C57   C58   A    
C54   C59   A    
C27   H8    S    
C56   O21   A    
C17   C24   S    
C74   C75   T    
C32   O19   A    
C86   H19   S    
C99   O9    A    
C17   N17   A    
C42   C97   S    
C39   C40   A    
C79   C81   A    
C5    C84   S    
C85   C89   A    
C78   C79   A    
C103  N7    T    
C96   O26   A    
C77   C84   A    
C77   C78   A    
Cr1   O22   S    
C22   C25   A    
C45   H31   S    
C19   H38   S    
C50   H5    S    
C80   C92   A    
C43   C44   S    
C21   H23   S    
C29   C30   A    
C44   O20   A    
C98   O7    A    
Cr6   O10   S    
C26   C33   A    
C47   C48   A    
C6    N11   T    
C94   C100  S    
C1    O13   A    
C5    N10   T    
C54   H6    S    
C29   C101  S    
C51   N14   A    
C56   C61   S    
C51   C58   S    
Cr2   O14   S    
C31   H29   S    
C49   C60   A    
C9    C96   S    
Cr3   O15   S    
Cr1   O4    S    
C49   H3    S    
C33   H2    S    
C30   C35   S    
C8    O14   A    
Cr5   O26   S    
N18   N19   A    
C56   O17   A    
C16   C92   A    
C95   O25   A    
C55   C57   A    
C70   C76   A    
N16   N17   A    
Cr2   O13   S    
C66   H15   S    
C92   H26   S    
C35   N2    A    
Cr3   O21   S    
C62   H32   S    
Cr5   O25   S    
C28   C29   A    
C67   H13   S    
C102  N6    T    
Cr4   O24   S    
Cr1   O1    S    
C34   N3    A    
Cr1   O18   S    
C21   C25   A    
C46   C47   A    
C40   C41   A    
C15   H12   S    
C32   O18   A    
C14   C15   A    
N4    N12   A    
C2    C93   S    
C7    C16   S    
C9    C71   A    
Cr3   O16   S    
C22   H39   S    
C72   C73   A    
C83   H33   S    
C53   C58   A    
C43   C50   A    
C8    C68   S    
C47   C52   S    
Cr4   O5    S    
Cr1   O17   S    
C46   C103  S    
C14   H37   S    
C69   H11   S    
C26   C28   A    
C12   H34   S    
C48   H7    S    
C72   H16   S    
C9    C60   A    
C49   C93   A    
C64   C65   A    
C82   H24   S    
C19   C24   A    
C43   C45   A    
N1    N15   A    
C11   H27   S    
C100  O5    A    
C98   O6    A    
C3    C53   S    
Cr6   O11   S    
C8    O15   A    
C90   C91   T    
C1    C26   S    
Cr4   O6    S    
C35   N19   A    
Cr5   O7    S    
C64   C75   S    
Cr5   O8    S    
C65   H14   S    
C61   C62   A    
C32   C77   S    
C60   H1    S    
C10   C11   A    
C52   N13   A    
C63   C64   A    
C81   C91   S    
C45   C46   A    
C12   C13   A    
C65   C66   A    
C38   C68   A    
C80   H22   S    
C22   C23   A    
C70   C72   A    
N2    N3    A    
Cr3   O20   S    
C67   C69   A    
C89   C90   S    
C100  O10   A    
C44   O12   A    
Cr6   O2    S    
C11   C12   A    
C52   N12   A    
C55   H9    S    
