data_mof_unit_19853.cif
_audit_creation_date              2012-12-10T20:45:36-0500
_audit_creation_method            fapswitch 2.2
_symmetry_space_group_name_H-M    P1
_symmetry_Int_Tables_number       1
_space_group_crystal_system       triclinic
_cell_length_a                    10.846312
_cell_length_b                    10.746874
_cell_length_c                    9.935835
_cell_angle_alpha                 87.684506
_cell_angle_beta                  91.181612
_cell_angle_gamma                 91.025479
_cell_volume                      1156.79964953

loop_
_atom_site_label
_atom_site_type_symbol
_atom_type_description
_atom_site_fract_x
_atom_site_fract_y
_atom_site_fract_z
_atom_type_partial_charge
C1    C     C_R   0.501360 0.259880 0.501893 0.872871
C2    C     C_R   0.188235 0.605156 0.979881 -0.120000
C3    C     C_R   0.932621 0.490566 0.382571 -0.264359
C4    C     C_R   0.873436 0.497162 0.505219 -0.085144
C5    C     C_R   0.943726 0.509283 0.624822 0.005390
C6    C     C_R   0.070055 0.509497 0.618612 -0.258240
C7    C     C_R   0.128225 0.508236 0.495230 -0.092790
C8    C     C_R   0.058490 0.506663 0.374370 -0.002179
C9    C     C_R   0.897440 0.645531 0.810822 -0.158726
C10   C     C_R   0.866220 0.660960 0.943877 -0.182240
C11   C     C_R   0.830376 0.558016 0.024386 -0.179302
C12   C     C_R   0.260458 0.503927 0.498132 0.867102
C13   C     C_R   0.824463 0.437602 0.973550 0.231055
C14   C     C_R   0.857600 0.422942 0.839022 -0.115459
C15   C     C_R   0.893108 0.526670 0.758231 0.105948
C16   C     C_R   0.435774 0.056352 0.599327 0.117178
C17   C     C_R   0.498927 0.126880 0.501286 -0.094772
C18   C     C_R   0.543694 0.068810 0.388053 -0.222342
C19   C     C_R   0.537339 0.940539 0.381819 -0.232206
C20   C     C_R   0.489029 0.870584 0.490565 -0.092703
C21   C     C_R   0.432476 0.928981 0.594254 0.125393
C22   C     C_3   0.450636 0.908192 0.742174 -0.466389
C23   C     C_R   0.499108 0.739385 0.497334 0.872006
C24   C     C_3   0.455176 0.047659 0.748705 -0.511247
C25   C     C_R   0.422983 0.422371 0.072754 0.272803
C26   C     C_R   0.555808 0.593496 0.069120 -0.160229
C27   C     C_R   0.557501 0.592432 0.925259 -0.107521
C28   C     C_R   0.421821 0.423640 0.931332 0.211903
C29   C     C_3   0.412253 0.286581 0.931859 -0.544556
C30   C     C_3   0.413996 0.284592 0.084712 -0.507687
C31   C     C_R   0.740169 0.498569 0.501882 0.862314
C32   C     C_R   0.195564 0.691636 0.080946 -0.145041
C33   C     C_R   0.155407 0.658435 0.210360 -0.101010
C34   C     C_R   0.109293 0.537557 0.239853 0.155330
C35   C     C_R   0.103785 0.450544 0.138439 -0.159143
C36   C     C_R   0.142096 0.484744 0.008569 -0.124775
H1    H     H_    0.219734 0.631323 0.879946 0.128043
H2    H     H_    0.801829 0.574616 0.124867 0.135124
H3    H     H_    0.858706 0.332069 0.796189 0.131289
H4    H     H_    0.588763 0.121760 0.307575 0.158415
H5    H     H_    0.578088 0.896367 0.297664 0.159247
H6    H     H_    0.368361 0.864042 0.790597 0.194904
H7    H     H_    0.540385 0.865248 0.770804 0.209005
H8    H     H_    0.547609 0.083082 0.780778 0.204056
H9    H     H_    0.374266 0.080488 0.801964 0.208489
H10   H     H_    0.603789 0.667221 0.120813 0.142910
H11   H     H_    0.231549 0.784624 0.058747 0.125246
H12   H     H_    0.608192 0.664274 0.869629 0.153051
H13   H     H_    0.322041 0.256690 0.887976 0.193491
H14   H     H_    0.496397 0.248004 0.890575 0.225382
H15   H     H_    0.325473 0.251524 0.129102 0.204382
H16   H     H_    0.497998 0.241505 0.130046 0.216061
H17   H     H_    0.159260 0.726973 0.287411 0.109905
H18   H     H_    0.069206 0.356887 0.159711 0.118079
H19   H     H_    0.137339 0.417143 0.930828 0.122919
H20   H     H_    0.880340 0.479271 0.291586 0.155664
H21   H     H_    0.122916 0.514006 0.711668 0.163625
H22   H     H_    0.927692 0.725510 0.749502 0.129870
H23   H     H_    0.869279 0.752812 0.984784 0.139257
N1    N     N_R   0.499160 0.499140 0.142800 -0.122343
N2    N     N_R   0.499160 0.499180 0.857150 -0.112195
O1    O     O_R   0.500020 0.316790 0.614690 -0.616025
O2    O     O_R   0.500000 0.316760 0.385350 -0.627598
O3    O     O_R   0.316770 0.500030 0.614670 -0.630709
O4    O     O_R   0.316750 0.499990 0.385330 -0.607244
O5    O     O_R   0.500000 0.683240 0.614650 -0.628883
O6    O     O_R   0.499980 0.683210 0.385310 -0.625811
O7    O     O_R   0.683250 0.500010 0.614670 -0.610201
O8    O     O_R   0.683230 0.499970 0.385330 -0.637084
Zn1   Zn    Zn3+2 0.500010 0.500020 0.653130 0.942846
Zn2   Zn    Zn3+2 0.499990 0.499980 0.346870 0.939218
C37   C     C_3   0.783744 0.329487 0.066209 -0.417898
C38   C     C_3   0.771865 0.203119 0.001300 -0.936623
H24   H     H_    0.707935 0.208352 0.912825 0.258051
H25   H     H_    0.863650 0.171909 0.969956 0.257179
H26   H     H_    0.734534 0.132904 0.075521 0.251547
H27   H     H_    0.850410 0.319413 0.151716 0.198194
H28   H     H_    0.693294 0.351460 0.108350 0.225935

loop_
_geom_bond_atom_site_label_1
_geom_bond_atom_site_label_2
_ccdc_geom_bond_type
N2    Zn1   S    
C27   H12   S    
C30   H15   S    
C16   C21   A    
C38   H24   S    
C35   C36   A    
C1    O1    A    
C7    C8    A    
C22   H6    S    
C25   C28   A    
C26   C27   A    
C37   H27   S    
C24   H9    S    
C23   O5    A    
C28   C29   S    
C9    H22   S    
C5    C6    A    
C12   O3    A    
C18   C19   A    
O1    Zn1   S    
C2    C32   A    
C34   C35   A    
C23   O6    A    
O8    Zn2   S    
C18   H4    S    
C37   H28   S    
C27   N2    A    
C14   H3    S    
C19   C20   A    
C16   C17   A    
C25   N1    A    
O3    Zn1   S    
C9    C10   A    
C28   N2    A    
C16   C24   S    
C21   C22   S    
C35   H18   S    
C38   H25   S    
C6    H21   S    
C31   O7    A    
C1    O2    A    
C33   C34   A    
C29   H14   S    
C33   H17   S    
C7    C12   S    
C3    C8    A    
C4    C5    A    
C29   H13   S    
N1    Zn2   S    
O4    Zn2   S    
C11   H2    S    
C29   C30   S    
C3    H20   S    
C22   H7    S    
C20   C23   S    
C17   C18   A    
C8    C34   S    
O2    Zn2   S    
C24   H8    S    
C38   H26   S    
C22   C24   S    
C3    C4    A    
C2    C36   A    
C25   C30   S    
C30   H16   S    
C37   C38   S    
C6    C7    A    
C13   C37   S    
C12   O4    A    
C1    C17   S    
C32   C33   A    
C10   H23   S    
C9    C15   A    
C36   H19   S    
C11   C13   A    
C2    H1    S    
O5    Zn1   S    
C32   H11   S    
O6    Zn2   S    
C5    C15   S    
C4    C31   S    
C10   C11   A    
C26   H10   S    
C31   O8    A    
C20   C21   A    
O7    Zn1   S    
C14   C15   A    
C13   C14   A    
C26   N1    A    
C19   H5    S    
