data_mof_unit_25907.cif
_audit_creation_date              2013-03-05T16:06:02-0500
_audit_creation_method            fapswitch 2.2
_symmetry_space_group_name_H-M    P1
_symmetry_Int_Tables_number       1
_space_group_crystal_system       triclinic
_cell_length_a                    10.835735
_cell_length_b                    9.623414
_cell_length_c                    23.593182
_cell_angle_alpha                 90.009428
_cell_angle_beta                  91.633987
_cell_angle_gamma                 89.988808
_cell_volume                      2459.22020743

loop_
_atom_site_label
_atom_site_type_symbol
_atom_site_description
_atom_site_fract_x
_atom_site_fract_y
_atom_site_fract_z
_atom_type_partial_charge
O1    O     O_R   0.319640 0.618740 0.500000 -0.565878
O2    O     O_R   0.680360 0.381260 0.500000 -0.561495
O3    O     O_R   0.680360 0.618740 0.500000 -0.566608
O4    O     O_R   0.319640 0.381260 0.500000 -0.562261
C1    C     C_R   0.262392 0.500007 0.500353 0.803596
C2    C     C_R   0.737608 0.499991 0.499669 0.803660
O5    O     O_R   0.499960 0.618810 0.417880 -0.547413
O6    O     O_R   0.500040 0.381190 0.582120 -0.543908
O7    O     O_R   0.500040 0.618810 0.582120 -0.547060
O8    O     O_R   0.499960 0.381190 0.417880 -0.543823
C3    C     C_R   0.498823 0.499374 0.391385 0.790740
C4    C     C_R   0.501208 0.499396 0.608612 0.790796
Cu1   Cu    Cu3+1 0.500000 0.640660 0.500000 1.060413
Cu2   Cu    Cu3+1 0.500000 0.359340 0.500000 1.067143
C5    C     C_R   0.606444 0.452981 0.881805 0.557655
C6    C     C_R   0.393898 0.453556 0.118156 0.557503
N1    N     N_R   0.497849 0.475297 0.851754 -0.454895
N2    N     N_R   0.502598 0.475094 0.148226 -0.454838
C7    C     C_R   0.389042 0.492432 0.879537 0.541076
C8    C     C_R   0.611505 0.491412 0.120449 0.541102
C9    C     C_R   0.385379 0.477321 0.939137 -0.054332
C10   C     C_R   0.615087 0.476277 0.060843 -0.054342
C11   C     C_R   0.498912 0.468910 0.970021 -0.019255
C12   C     C_R   0.501514 0.468841 0.029952 -0.019239
C13   C     C_R   0.610114 0.460399 0.941102 -0.018815
C14   C     C_R   0.390270 0.461158 0.058866 -0.018773
C15   C     C_R   0.273679 0.471919 0.969169 -0.044265
C16   C     C_R   0.726753 0.469950 0.030814 -0.044231
C17   C     C_R   0.277566 0.460141 0.028199 -0.188659
C18   C     C_R   0.722805 0.458343 0.971775 -0.188546
O9    O     O_2   0.710904 0.422478 0.854563 -0.517554
O10   O     O_2   0.289283 0.423652 0.145371 -0.517529
O11   O     O_2   0.285724 0.527882 0.849775 -0.520133
O12   O     O_2   0.715015 0.526118 0.150213 -0.520213
H1    H     H_    0.191479 0.453652 0.050340 0.203160
H2    H     H_    0.808856 0.451110 0.949636 0.203109
C19   C     C_R   0.591871 0.411053 0.242644 -0.100631
C20   C     C_R   0.408230 0.411571 0.757377 -0.100458
H3    H     H_    0.660656 0.348033 0.222279 0.174995
H4    H     H_    0.339254 0.348935 0.777776 0.174849
C21   C     C_R   0.594259 0.421317 0.301732 -0.065610
C22   C     C_R   0.405754 0.421797 0.698293 -0.065699
C23   C     C_R   0.500421 0.495324 0.329100 -0.088829
C24   C     C_R   0.499738 0.495402 0.670892 -0.088538
C25   C     C_R   0.404178 0.556017 0.296192 -0.068455
C26   C     C_R   0.596243 0.555709 0.703754 -0.068119
C27   C     C_R   0.410265 0.557202 0.237199 -0.115921
C28   C     C_R   0.590367 0.556828 0.762757 -0.115723
H5    H     H_    0.339703 0.612020 0.212619 0.178161
H6    H     H_    0.661173 0.611291 0.787318 0.178125
C29   C     C_R   0.502248 0.482162 0.209612 0.294093
C30   C     C_R   0.498174 0.482257 0.790372 0.294193
C31   C     C_R   0.063866 0.373898 0.500601 -0.106177
C32   C     C_R   0.936132 0.626098 0.499557 -0.117799
C33   C     C_R   0.936177 0.373887 0.499348 -0.105692
C34   C     C_R   0.063826 0.626107 0.500690 -0.117292
H7    H     H_    0.111569 0.275162 0.501587 0.206118
H8    H     H_    0.888413 0.724832 0.498721 0.204791
H9    H     H_    0.888508 0.275146 0.498263 0.205916
H10   H     H_    0.111508 0.724842 0.501666 0.204787
C35   C     C_R   0.871609 0.499986 0.499349 -0.048361
C36   C     C_R   0.128392 0.500006 0.500721 -0.048404
C37   C     C_R   0.433543 0.074373 0.459838 0.293305
C38   C     C_R   0.566476 0.926421 0.540076 0.297219
C39   C     C_R   0.566404 0.074364 0.540183 0.293249
C40   C     C_R   0.433497 0.926429 0.459933 0.297472
N3    N     N_R   0.500000 0.852070 0.500000 -0.318708
N4    N     N_R   0.500000 0.147930 0.500000 -0.320935
C41   C     C_1   0.153096 0.471294 0.941333 0.358251
N5    N     N_1   0.056439 0.470699 0.919161 -0.229205
C42   C     C_1   0.847306 0.468086 0.058667 0.358061
N6    N     N_1   0.943935 0.466481 0.080857 -0.228937
C43   C     C_1   0.693432 0.353787 0.333432 0.305455
N7    N     N_1   0.772775 0.299813 0.358866 -0.238632
C44   C     C_1   0.306304 0.354695 0.666626 0.305172
N8    N     N_1   0.226737 0.301070 0.641219 -0.238560
C45   C     C_1   0.290583 0.600377 0.321064 0.385374
N9    N     N_1   0.198239 0.633739 0.340416 -0.174407
C46   C     C_1   0.709742 0.599971 0.678787 0.385283
N10   N     N_1   0.801975 0.633287 0.659340 -0.174919
N11   N     N_R   0.362265 0.145818 0.417066 0.184439
O13   O     O_R   0.403983 0.153281 0.365977 -0.303287
O14   O     O_R   0.244989 0.164881 0.424336 -0.337940
N12   N     N_R   0.637617 0.856258 0.582829 0.173638
O15   O     O_R   0.597099 0.855512 0.634192 -0.323561
O16   O     O_R   0.755165 0.840228 0.575445 -0.341172
N13   N     N_R   0.637046 0.145792 0.583171 0.184768
O17   O     O_R   0.753833 0.167626 0.575812 -0.338019
O18   O     O_R   0.595422 0.151828 0.634294 -0.302990
N14   N     N_R   0.362329 0.856267 0.417187 0.173911
O19   O     O_R   0.245098 0.838712 0.424881 -0.340865
O20   O     O_R   0.402158 0.856536 0.365701 -0.323669

loop_
_geom_bond_atom_site_label_1
_geom_bond_atom_site_label_2
_geom_bond_distance
_ccdc_geom_bond_type
N13   O17   1.299372 A    
C33   H9    1.081578 S    
C15   C17   1.396773 A    
C43   N7    1.157378 T    
O3    C2    1.300304 A    
N11   O13   1.301344 A    
C27   H5    1.083445 S    
C45   N9    1.156994 T    
O5    C3    1.308175 A    
C22   C44   1.445894 S    
C37   N11   1.429381 S    
O1    C1    1.300393 A    
C2    C35   1.452238 S    
C7    C9    1.415371 A    
C12   C14   1.403852 A    
C20   C22   1.396961 A    
Cu1   N3    2.034486 S    
C26   C46   1.443095 S    
C19   C29   1.405523 A    
C5    C13   1.400250 A    
C20   C30   1.405484 A    
C25   C27   1.395323 A    
O7    Cu1   1.948871 S    
C38   N12   1.422402 S    
C11   C12   1.413431 A    
C3    C23   1.470595 S    
C15   C41   1.445548 S    
C34   C36   1.400622 A    
C8    O12   1.348278 S    
C28   H6    1.083445 S    
C40   N3    1.373366 A    
C9    C15   1.420786 A    
C37   C40   1.423732 A    
C10   C16   1.420751 A    
Cu1   Cu2   2.707259 S    
O4    Cu2   1.965644 S    
C21   C23   1.412469 A    
O2    C2    1.300361 A    
C22   C24   1.412366 A    
N1    C30   1.449868 S    
N11   O14   1.300100 A    
C24   C26   1.409006 A    
N2    C29   1.449987 S    
C39   N13   1.429244 S    
C26   C28   1.395364 A    
C31   C33   1.383079 A    
C6    C14   1.400200 A    
C32   C34   1.383158 A    
C38   N3    1.373308 A    
N12   O15   1.300631 A    
C40   N14   1.422426 S    
O8    Cu2   1.948871 S    
C31   H7    1.081521 S    
C27   C29   1.405372 A    
C34   H10   1.081574 S    
C44   N8    1.157407 T    
C31   C36   1.400672 A    
N14   O20   1.300662 A    
C28   C30   1.405340 A    
O6    C4    1.297744 A    
C39   N4    1.370711 A    
C23   C25   1.408992 A    
C8    C10   1.415426 A    
C9    C11   1.414132 A    
C7    O11   1.348279 S    
C10   C12   1.414091 A    
C16   C42   1.445529 S    
O1    Cu1   1.965726 S    
C32   H8    1.081567 S    
C13   C18   1.401690 A    
C5    N1    1.373252 A    
C37   N4    1.370602 A    
O6    Cu2   1.948802 S    
N12   O16   1.299652 A    
O4    C1    1.300289 A    
O3    Cu1   1.965643 S    
C5    O9    1.349733 S    
C32   C35   1.400669 A    
C6    O10   1.349738 S    
C17   H1    1.083865 S    
C18   H2    1.083888 S    
C38   C39   1.423717 A    
C16   C18   1.396822 A    
C42   N6    1.157307 T    
C19   H3    1.083675 S    
C20   H4    1.083678 S    
N14   O19   1.299365 A    
C33   C35   1.400621 A    
N1    C7    1.375093 A    
C1    C36   1.452267 S    
N2    C8    1.375135 A    
C11   C13   1.403909 A    
C19   C21   1.397040 A    
C41   N5    1.157315 T    
O2    Cu2   1.965725 S    
O7    C4    1.308127 A    
O8    C3    1.297783 A    
C21   C43   1.445874 S    
C46   N10   1.156925 T    
O5    Cu1   1.948802 S    
C14   C17   1.401644 A    
C6    N2    1.373304 A    
N13   O18   1.301019 A    
Cu2   N4    2.034487 S    
C4    C24   1.470430 S    
C25   C45   1.443118 S    
