data_mof_unit_35078.cif
_audit_creation_date              2012-12-10T18:05:49-0500
_audit_creation_method            fapswitch 2.2
_symmetry_space_group_name_H-M    P1
_symmetry_Int_Tables_number       1
_space_group_crystal_system       triclinic
_cell_length_a                    12.721254
_cell_length_b                    13.289736
_cell_length_c                    14.95136
_cell_angle_alpha                 93.430024
_cell_angle_beta                  102.2088
_cell_angle_gamma                 82.608762
_cell_volume                      2448.62397878

loop_
_atom_site_label
_atom_site_type_symbol
_atom_type_description
_atom_site_fract_x
_atom_site_fract_y
_atom_site_fract_z
_atom_type_partial_charge
C1    C     C_R   0.440009 0.690049 0.490411 0.846696
C2    C     C_R   0.572713 0.552831 0.830565 -0.137544
C3    C     C_R   0.503851 0.495825 0.768730 -0.087037
C4    C     C_R   0.501233 0.499234 0.672735 0.828467
C5    C     C_R   0.436110 0.435980 0.798114 -0.181596
C6    C     C_R   0.705757 0.067806 0.619867 0.442380
C7    C     C_R   0.592105 0.200553 0.526954 -0.372441
C8    C     C_R   0.327882 0.818365 0.391225 -0.292354
C9    C     C_R   0.326650 0.907264 0.346749 0.651246
C10   C     C_R   0.401641 0.974070 0.382750 -0.234830
C11   C     C_R   0.471118 0.958547 0.469682 0.063010
C12   C     C_R   0.434320 0.429443 0.076941 -0.059828
C13   C     C_R   0.472811 0.868306 0.514209 0.047783
C14   C     C_R   0.540290 0.029945 0.512879 -0.065627
C15   C     C_R   0.626438 0.001686 0.587076 -0.139931
C16   C     C_R   0.559654 0.309096 0.511457 0.982500
C17   C     C_R   0.625543 0.912294 0.631527 -0.091976
C18   C     C_R   0.545257 0.849940 0.598746 -0.128947
C19   C     C_R   0.515131 0.132585 0.493341 0.380475
C20   C     C_R   0.691003 0.165897 0.585678 0.362513
C21   C     C_R   0.405793 0.795805 0.471121 -0.210219
C22   C     C_R   0.085031 0.365186 0.351182 0.465753
C23   C     C_R   0.638073 0.610614 0.078376 0.560191
C24   C     C_R   0.799107 0.632231 0.608674 0.777050
C25   C     C_R   0.893431 0.675855 0.615285 -0.342192
C26   C     C_R   0.967515 0.634549 0.563157 -0.184654
C27   C     C_R   0.955711 0.542386 0.513107 0.016761
C28   C     C_R   0.499630 0.498121 0.327249 0.922946
C29   C     C_R   0.852388 0.508200 0.498720 -0.013940
C30   C     C_R   0.038372 0.488505 0.470566 -0.148443
C31   C     C_R   0.008563 0.415928 0.398959 -0.104466
C32   C     C_R   0.903810 0.389925 0.379486 -0.251987
C33   C     C_R   0.829437 0.430217 0.431235 0.592063
C34   C     C_R   0.639959 0.610618 0.985957 0.541311
C35   C     C_R   0.150537 0.497387 0.500324 0.583424
C36   C     C_R   0.191774 0.385459 0.377228 -0.185590
C37   C     C_R   0.437645 0.427307 0.171221 0.478065
C38   C     C_R   0.500107 0.492891 0.231105 -0.203996
C39   C     C_R   0.566328 0.552882 0.200325 -0.187981
C40   C     C_R   0.569708 0.551307 0.108698 -0.102432
C41   C     C_R   0.502595 0.490730 0.046423 -0.137354
C42   C     C_3   0.444719 0.273382 0.232081 -0.168103
C43   C     C_3   0.867743 0.968161 0.668020 -0.305763
C44   C     C_3   0.340807 0.171720 0.513452 -0.234094
C45   C     C_R   0.572876 0.552000 0.923261 -0.122983
C46   C     C_3   0.101437 0.201648 0.294653 -0.243585
C47   C     C_3   0.217704 0.633419 0.591659 -0.192484
C48   C     C_3   0.191782 0.365758 0.026146 -0.157921
C49   C     C_3   0.846908 0.222358 0.570982 -0.183136
C50   C     C_R   0.503775 0.491994 0.953443 0.019984
C51   C     C_R   0.435765 0.433511 0.890344 0.102667
C52   C     C_R   0.367692 0.374141 0.919758 -0.315404
C53   C     C_R   0.364738 0.372797 0.012287 0.522301
F1    F     F_    0.258225 0.925073 0.265006 -0.657828
F2    F     F_    0.725003 0.672830 0.657633 -0.683188
F3    F     F_    0.737202 0.388045 0.412528 -0.671145
F4    F     F_    0.703064 0.668614 0.138219 -0.619163
F5    F     F_    0.706630 0.668483 0.957755 -0.609591
H1    H     H_    0.683716 0.892308 0.693758 0.211851
H2    H     H_    0.624201 0.599244 0.806048 0.235017
H3    H     H_    0.383903 0.391051 0.749122 0.165187
H4    H     H_    0.315847 0.328950 0.870837 0.166821
H5    H     H_    0.512963 0.287554 0.289703 0.139292
H6    H     H_    0.476377 0.233887 0.173688 0.169386
H7    H     H_    0.395709 0.221680 0.256495 0.198320
H8    H     H_    0.840634 0.927270 0.601360 0.135714
H9    H     H_    0.890870 0.911259 0.722167 0.199814
H10   H     H_    0.941807 0.002531 0.665146 0.175622
H11   H     H_    0.372934 0.212397 0.578899 0.167300
H12   H     H_    0.276430 0.762376 0.357776 0.193918
H13   H     H_    0.325662 0.094500 0.527877 0.149448
H14   H     H_    0.261376 0.213342 0.483056 0.163891
H15   H     H_    0.064346 0.150150 0.239102 0.225624
H16   H     H_    0.086496 0.176364 0.360119 0.133742
H17   H     H_    0.189735 0.193482 0.295625 0.188158
H18   H     H_    0.192184 0.672292 0.525122 0.128179
H19   H     H_    0.304744 0.635915 0.618854 0.193351
H20   H     H_    0.181108 0.679380 0.644182 0.141009
H21   H     H_    0.191299 0.439551 0.065645 0.171543
H22   H     H_    0.138604 0.319537 0.052028 0.211809
H23   H     H_    0.405745 0.036611 0.341085 0.200000
H24   H     H_    0.156941 0.378140 0.952305 0.139574
H25   H     H_    0.813590 0.224697 0.495915 0.168850
H26   H     H_    0.901741 0.151038 0.586671 0.138235
H27   H     H_    0.896153 0.286375 0.590219 0.175540
H28   H     H_    0.542436 0.785099 0.638319 0.186007
H29   H     H_    0.251837 0.352158 0.339244 0.219260
H30   H     H_    0.880293 0.332223 0.327277 0.219847
H31   H     H_    0.614799 0.601808 0.248258 0.224341
H32   H     H_    0.025490 0.681813 0.554195 0.161346
H33   H     H_    0.906580 0.744282 0.656662 0.160569
N1    N     N_R   0.222190 0.444670 0.452360 -0.176447
N2    N     N_R   0.776970 0.554790 0.547140 -0.160073
O1    O     O_R   0.366740 0.627160 0.477250 -0.647377
O2    O     O_3   0.789776 0.043771 0.693795 -0.555350
O3    O     O_3   0.410202 0.168562 0.450258 -0.613356
O4    O     O_3   0.053217 0.301903 0.275789 -0.602625
O5    O     O_3   0.189383 0.533385 0.589081 -0.596767
O6    O     O_3   0.296801 0.312378 0.038879 -0.580810
O7    O     O_3   0.764799 0.232773 0.622365 -0.542928
O8    O     O_R   0.544830 0.662520 0.507680 -0.576689
O9    O     O_R   0.410940 0.482340 0.616930 -0.603531
O10   O     O_R   0.589030 0.517700 0.647360 -0.570396
O11   O     O_R   0.455170 0.337480 0.492320 -0.583275
O12   O     O_R   0.633260 0.372840 0.522750 -0.511638
O13   O     O_R   0.410970 0.482300 0.352640 -0.586060
O14   O     O_R   0.589060 0.517660 0.383070 -0.568352
O15   O     O_3   0.377712 0.364097 0.204943 -0.582964
Zn1   Zn    Zn3+2 0.381090 0.476390 0.479680 0.979913
Zn2   Zn    Zn3+2 0.618910 0.523610 0.520320 1.062331

loop_
_geom_bond_atom_site_label_1
_geom_bond_atom_site_label_2
_ccdc_geom_bond_type
O12   Zn2   S    
C1    C21   S    
C1    O8    A    
C27   C29   A    
C53   O6    S    
C24   F2    S    
C26   C27   A    
C18   H28   S    
C47   O5    S    
C30   C35   A    
O10   Zn2   S    
C48   H21   S    
C37   C38   A    
C47   H18   S    
C38   C39   A    
C11   C14   A    
C2    H2    S    
N1    Zn1   S    
C28   O14   A    
C23   C40   A    
C32   H30   S    
C4    O10   A    
C29   C33   A    
C44   H13   S    
C23   F4    S    
C12   C37   A    
C6    C15   A    
C16   O11   A    
C28   O13   A    
C8    C9    A    
C4    O9    A    
C42   H7    S    
C43   O2    S    
C35   O5    S    
C9    C10   A    
C12   C53   A    
N2    Zn2   S    
C35   N1    A    
C36   N1    A    
C33   F3    S    
C36   H29   S    
C22   O4    S    
C27   C30   A    
C46   H17   S    
C50   C51   A    
C2    C45   A    
C25   H33   S    
C22   C31   A    
C5    H3    S    
C51   C52   A    
C49   H27   S    
C24   C25   A    
C37   O15   S    
C39   C40   A    
C1    O1    A    
O8    Zn2   S    
C12   C41   A    
C44   O3    S    
C31   C32   A    
C20   O7    S    
C28   C38   S    
C30   C31   A    
C23   C34   A    
C17   C18   A    
C13   C21   A    
C44   H11   S    
C34   C45   A    
C16   O12   A    
C17   H1    S    
C13   C18   A    
C7    C16   S    
C46   O4    S    
C7    C20   A    
C7    C19   A    
O14   Zn2   S    
C47   H19   S    
C3    C4    S    
C42   H6    S    
C41   C50   A    
C46   H16   S    
C6    C20   A    
C52   C53   A    
C49   H26   S    
C15   C17   A    
C48   O6    S    
C40   C41   A    
O1    Zn1   S    
C14   C19   A    
C3    C5    A    
C8    C21   A    
C26   H32   S    
C22   C36   A    
C43   H10   S    
C10   H23   S    
C8    H12   S    
C32   C33   A    
C49   H25   S    
C2    C3    A    
C25   C26   A    
C52   H4    S    
C24   N2    A    
C49   O7    S    
C29   N2    A    
C11   C13   A    
C48   H22   S    
O11   Zn1   S    
C45   C50   A    
C43   H8    S    
C48   H24   S    
C44   H14   S    
C10   C11   A    
C43   H9    S    
C6    O2    S    
C34   F5    S    
C14   C15   A    
C5    C51   A    
O9    Zn1   S    
C9    F1    S    
C47   H20   S    
C42   O15   S    
C42   H5    S    
C39   H31   S    
C46   H15   S    
C19   O3    S    
O13   Zn1   S    
