data_mof_unit_65365.cif
_audit_creation_date              2013-03-05T16:07:59-0500
_audit_creation_method            fapswitch 2.2
_symmetry_space_group_name_H-M    P1
_symmetry_Int_Tables_number       1
_space_group_crystal_system       triclinic
_cell_length_a                    30.216897
_cell_length_b                    30.136093
_cell_length_c                    24.625819
_cell_angle_alpha                 89.880213
_cell_angle_beta                  128.186891
_cell_angle_gamma                 89.974086
_cell_volume                      17625.7301271

loop_
_atom_site_label
_atom_site_type_symbol
_atom_site_description
_atom_site_fract_x
_atom_site_fract_y
_atom_site_fract_z
_atom_type_partial_charge
O1    O     O_R   0.822760 0.770240 0.499990 -0.628698
O2    O     O_R   0.177240 0.770240 0.500010 -0.633498
O3    O     O_R   0.322760 0.270240 0.499990 -0.629460
O4    O     O_R   0.677240 0.270240 0.500010 -0.635320
O5    O     O_R   0.770230 0.822760 0.499990 -0.625604
O6    O     O_R   0.229770 0.822760 0.500010 -0.619324
O7    O     O_R   0.270230 0.322760 0.499990 -0.627472
O8    O     O_R   0.729770 0.322760 0.500010 -0.602267
C1    C     C_R   0.810617 0.810885 0.499669 0.843381
C2    C     C_R   0.189366 0.810848 0.500343 0.839708
C3    C     C_R   0.310632 0.310870 0.499660 0.838660
C4    C     C_R   0.689390 0.310858 0.500363 0.865317
O9    O     O_R   0.725330 0.723740 0.398130 -0.599260
O10   O     O_R   0.274670 0.723740 0.601870 -0.606044
O11   O     O_R   0.225330 0.223740 0.398130 -0.601550
O12   O     O_R   0.774670 0.223740 0.601870 -0.606529
O13   O     O_R   0.672800 0.776260 0.398130 -0.611515
O14   O     O_R   0.327200 0.776260 0.601870 -0.618444
O15   O     O_R   0.172800 0.276260 0.398130 -0.614101
O16   O     O_R   0.827200 0.276260 0.601870 -0.620560
C5    C     C_R   0.681974 0.749569 0.365271 0.920961
C6    C     C_R   0.317757 0.749594 0.634565 0.925203
C7    C     C_R   0.181957 0.249564 0.365245 0.915373
C8    C     C_R   0.817749 0.249588 0.634532 0.925626
Zn1   Zn    Zn3+2 0.785070 0.714920 0.500000 1.009737
Zn2   Zn    Zn3+2 0.214930 0.714920 0.500000 1.020206
Zn3   Zn    Zn3+2 0.285070 0.214920 0.500000 1.015779
Zn4   Zn    Zn3+2 0.714930 0.214920 0.500000 1.012738
Zn5   Zn    Zn3+2 0.714920 0.785060 0.500000 1.113316
Zn6   Zn    Zn3+2 0.285080 0.785060 0.500000 1.097463
Zn7   Zn    Zn3+2 0.214920 0.285060 0.500000 1.097740
Zn8   Zn    Zn3+2 0.785080 0.285060 0.500000 1.098879
O17   O     O_R   0.729750 0.677220 0.500010 -0.608744
O18   O     O_R   0.270250 0.677220 0.499990 -0.605133
O19   O     O_R   0.229750 0.177220 0.500010 -0.613413
O20   O     O_R   0.770250 0.177220 0.499990 -0.615993
O21   O     O_R   0.677220 0.729740 0.500010 -0.570369
O22   O     O_R   0.322780 0.729740 0.499990 -0.600499
O23   O     O_R   0.177220 0.229740 0.500010 -0.559799
O24   O     O_R   0.822780 0.229740 0.499990 -0.602530
O25   O     O_R   0.827180 0.723730 0.601860 -0.628671
O26   O     O_R   0.172820 0.723730 0.398140 -0.626327
O27   O     O_R   0.327180 0.223730 0.601860 -0.624469
O28   O     O_R   0.672820 0.223730 0.398140 -0.638696
O29   O     O_R   0.774660 0.776250 0.601860 -0.560676
O30   O     O_R   0.225340 0.776250 0.398140 -0.555994
O31   O     O_R   0.274660 0.276250 0.601860 -0.574422
O32   O     O_R   0.725340 0.276250 0.398140 -0.550432
C9    C     C_R   0.689734 0.689292 0.501025 0.953915
C10   C     C_R   0.310635 0.689174 0.499974 1.008734
C11   C     C_R   0.189023 0.189268 0.499624 0.990137
C12   C     C_R   0.810566 0.189170 0.499827 1.008180
C13   C     C_R   0.816708 0.749314 0.634487 0.868864
C14   C     C_R   0.182635 0.749983 0.365116 0.918727
C15   C     C_R   0.316705 0.249366 0.634305 0.910919
C16   C     C_R   0.681918 0.250745 0.365298 0.955560
C17   C     C_R   0.618295 0.791033 0.256821 -0.240112
C18   C     C_R   0.369165 0.792455 0.741967 -0.255916
C19   C     C_R   0.117099 0.290744 0.256677 -0.239266
C20   C     C_R   0.868129 0.292288 0.741910 -0.257715
H1    H     H_    0.628562 0.820500 0.287718 0.197217
H2    H     H_    0.354417 0.822281 0.710548 0.187920
H3    H     H_    0.126575 0.320091 0.287506 0.198304
H4    H     H_    0.852554 0.322140 0.710504 0.186865
C21   C     C_R   0.579472 0.794487 0.184986 0.336686
C22   C     C_R   0.399607 0.796275 0.813392 0.336716
C23   C     C_R   0.078184 0.294091 0.184831 0.335405
C24   C     C_R   0.898517 0.295916 0.813336 0.337677
C25   C     C_R   0.566088 0.756158 0.144803 -0.060310
C26   C     C_R   0.417359 0.757280 0.853884 -0.061165
C27   C     C_R   0.065830 0.255937 0.144693 -0.060380
C28   C     C_R   0.917348 0.256840 0.853781 -0.061371
C29   C     C_R   0.591132 0.715407 0.176971 -0.224364
C30   C     C_R   0.402591 0.715621 0.821811 -0.228386
C31   C     C_R   0.091956 0.215457 0.176904 -0.221268
C32   C     C_R   0.903692 0.215241 0.821661 -0.227605
H5    H     H_    0.580217 0.686124 0.145446 0.193585
H6    H     H_    0.417409 0.685769 0.853189 0.198144
H7    H     H_    0.081864 0.186296 0.145429 0.193155
H8    H     H_    0.919334 0.185362 0.853012 0.198682
C33   C     C_R   0.629163 0.711637 0.248986 -0.029977
C34   C     C_R   0.371796 0.711746 0.750324 -0.034240
C35   C     C_R   0.130067 0.211775 0.248907 -0.029131
C36   C     C_R   0.872913 0.211549 0.750144 -0.035233
C37   C     C_R   0.642981 0.750168 0.289419 -0.163042
C38   C     C_R   0.354524 0.750800 0.710070 -0.153639
C39   C     C_R   0.142880 0.250119 0.289347 -0.162835
C40   C     C_R   0.854567 0.250706 0.709986 -0.151986
N1    N     N_R   0.486831 0.725597 0.034145 -0.141360
N2    N     N_R   0.451386 0.726119 0.965533 -0.149632
N3    N     N_R   0.987531 0.224667 0.034033 -0.139410
N4    N     N_R   0.952161 0.225106 0.965418 -0.148470
C41   C     C_R   0.454558 0.758487 0.929706 0.348744
C42   C     C_R   0.526681 0.757445 0.069320 0.349628
C43   C     C_R   0.954496 0.258013 0.929596 0.348120
C44   C     C_R   0.026454 0.257143 0.069210 0.349565
N5    N     N_R   0.495103 0.789925 0.964983 -0.089213
N6    N     N_R   0.530467 0.789517 0.033672 -0.097845
N7    N     N_R   0.994137 0.290088 0.964876 -0.089888
N8    N     N_R   0.029422 0.289760 0.033566 -0.098461
C45   C     C_3   0.900715 0.860854 0.564444 -0.160675
C46   C     C_3   0.111326 0.872362 0.437346 -0.137413
C47   C     C_3   0.391923 0.369507 0.564077 -0.154764
C48   C     C_3   0.605067 0.367039 0.435399 -0.108704
C49   C     C_3   0.881247 0.909122 0.539248 -0.115497
C50   C     C_3   0.134940 0.914089 0.483537 -0.140910
C51   C     C_3   0.368740 0.413280 0.522399 -0.125360
C52   C     C_3   0.627507 0.412273 0.472321 -0.135793
H9    H     H_    0.887672 0.937782 0.571674 0.163054
H10   H     H_    0.141791 0.947010 0.469545 0.140150
H11   H     H_    0.364859 0.445459 0.541027 0.149983
H12   H     H_    0.628219 0.443635 0.449133 0.147797
H13   H     H_    0.921165 0.848225 0.617488 0.140636
H14   H     H_    0.100797 0.869305 0.385603 0.146608
H15   H     H_    0.405108 0.364012 0.616828 0.135286
H16   H     H_    0.589276 0.359582 0.382011 0.173171
C53   C     C_3   0.904825 0.905511 0.499487 0.016995
C54   C     C_3   0.095008 0.905216 0.500777 0.014253
C55   C     C_3   0.405005 0.405342 0.499493 0.016433
C56   C     C_3   0.595149 0.405322 0.500829 0.007694
C57   C     C_3   0.924898 0.857911 0.524651 -0.166987
C58   C     C_3   0.070743 0.864110 0.454600 -0.165524
C59   C     C_3   0.428835 0.362206 0.541141 -0.169681
C60   C     C_3   0.572077 0.360727 0.463933 -0.175976
C61   C     C_3   0.867660 0.841262 0.459526 -0.161409
C62   C     C_3   0.115761 0.835799 0.517994 -0.171875
C63   C     C_3   0.380537 0.336842 0.476421 -0.167678
C64   C     C_3   0.623476 0.337777 0.529328 -0.171711
C65   C     C_3   0.848170 0.889450 0.434362 -0.162707
C66   C     C_3   0.139509 0.877471 0.564242 -0.159141
C67   C     C_3   0.357220 0.380552 0.434711 -0.162978
C68   C     C_3   0.646010 0.382952 0.566276 -0.159369
C69   C     C_3   0.824052 0.892471 0.474189 -0.146760
C70   C     C_3   0.180052 0.885708 0.547009 -0.148812
C71   C     C_3   0.320367 0.387862 0.457623 -0.150309
C72   C     C_3   0.678953 0.389297 0.537754 -0.155870
C73   C     C_3   0.844132 0.844821 0.499372 0.012731
C74   C     C_3   0.155755 0.844631 0.500746 0.016696
C75   C     C_3   0.344230 0.344722 0.499351 0.019532
C76   C     C_3   0.655852 0.344696 0.500783 0.012412
H17   H     H_    0.966978 0.844775 0.545196 0.139496
H18   H     H_    0.025229 0.856192 0.416936 0.148801
H19   H     H_    0.474010 0.352658 0.575187 0.147181
H20   H     H_    0.527545 0.350009 0.433858 0.146436
H21   H     H_    0.861214 0.812701 0.426938 0.154654
H22   H     H_    0.108697 0.803039 0.532154 0.160119
H23   H     H_    0.384547 0.304838 0.457538 0.159143
H24   H     H_    0.622674 0.306536 0.552677 0.160304
H25   H     H_    0.827372 0.901949 0.381168 0.169077
H26   H     H_    0.150217 0.880299 0.616103 0.167130
H27   H     H_    0.343771 0.385812 0.381797 0.166236
H28   H     H_    0.662008 0.390183 0.619812 0.170759
H29   H     H_    0.782019 0.905804 0.453487 0.166962
H30   H     H_    0.225575 0.893580 0.584728 0.159838
H31   H     H_    0.275214 0.397476 0.423491 0.160699
H32   H     H_    0.723473 0.400067 0.567939 0.163734
C77   C     C_R   0.832222 0.746191 0.746927 0.292496
C78   C     C_R   0.161710 0.766719 0.250516 0.343174
C79   C     C_R   0.341513 0.222829 0.746484 0.305354
C80   C     C_R   0.636800 0.289115 0.251183 0.307933
C81   C     C_R   0.869426 0.741003 0.818616 -0.183946
C82   C     C_R   0.126734 0.761125 0.179021 -0.183197
C83   C     C_R   0.381319 0.220673 0.818564 -0.185941
C84   C     C_R   0.604766 0.286034 0.179385 -0.189836
H33   H     H_    0.852640 0.740004 0.846772 0.189689
H34   H     H_    0.139427 0.775341 0.150110 0.187469
H35   H     H_    0.371917 0.201400 0.847463 0.198617
H36   H     H_    0.598923 0.315388 0.150105 0.192816
C85   C     C_R   0.927662 0.738323 0.853832 0.018728
C86   C     C_R   0.075160 0.739016 0.144774 0.019565
C87   C     C_R   0.431987 0.244395 0.853617 0.011934
C88   C     C_R   0.577974 0.246265 0.145029 0.014137
C89   C     C_R   0.948567 0.739866 0.816504 -0.130619
C90   C     C_R   0.058952 0.721673 0.182859 -0.127191
C91   C     C_R   0.443353 0.269996 0.815951 -0.119208
C92   C     C_R   0.583882 0.209022 0.183179 -0.116392
H37   H     H_    0.993312 0.737628 0.842412 0.169325
H38   H     H_    0.019291 0.704436 0.157556 0.170540
H39   H     H_    0.482255 0.288440 0.841798 0.166678
H40   H     H_    0.563585 0.177943 0.157809 0.174738
C93   C     C_R   0.911829 0.744033 0.745050 -0.218193
C94   C     C_R   0.094002 0.726087 0.254269 -0.205258
C95   C     C_R   0.404807 0.271647 0.744280 -0.232838
C96   C     C_R   0.616844 0.211264 0.254750 -0.161201
H41   H     H_    0.928838 0.744708 0.717121 0.166806
H42   H     H_    0.080464 0.711884 0.282261 0.181851
H43   H     H_    0.414640 0.291022 0.715844 0.144195
H44   H     H_    0.621988 0.181627 0.283151 0.185877
C97   C     C_R   0.853734 0.747590 0.709812 -0.147324
C98   C     C_R   0.145639 0.748494 0.289105 -0.145606
C99   C     C_R   0.353997 0.248458 0.709357 -0.126031
C100  C     C_R   0.644038 0.250880 0.289490 -0.146482
N9    N     N_R   0.022101 0.744291 0.964627 -0.156953
N10   N     N_R   0.982112 0.726437 0.034094 -0.158588
N11   N     N_R   0.511680 0.275487 0.964517 -0.157204
N12   N     N_R   0.502839 0.212014 0.034239 -0.154282
N13   N     N_R   0.056882 0.744499 0.033236 -0.145981
N14   N     N_R   0.947273 0.726391 0.965445 -0.151698
N15   N     N_R   0.545999 0.275973 0.033177 -0.148466
N16   N     N_R   0.468338 0.211650 0.965570 -0.149444
C101  C     C_R   0.037472 0.735854 0.069225 0.324226
C102  C     C_R   0.966576 0.735595 0.929462 0.319063
C103  C     C_R   0.542047 0.244370 0.069311 0.324583
C104  C     C_R   0.471939 0.243497 0.929429 0.317262
C105  C     C_3   0.617004 0.624499 0.440711 -0.227115
C106  C     C_3   0.407744 0.658018 0.540608 -0.193576
C107  C     C_3   0.126759 0.117489 0.447547 -0.224794
C108  C     C_3   0.907954 0.157659 0.542665 -0.201488
C109  C     C_3   0.570979 0.634360 0.448048 0.277617
C110  C     C_3   0.399355 0.641077 0.475960 0.240671
C111  C     C_3   0.073396 0.126601 0.440555 0.265356
C112  C     C_3   0.901325 0.142268 0.478496 0.240978
H45   H     H_    0.610585 0.623479 0.391300 0.210129
H46   H     H_    0.434732 0.686270 0.573485 0.198132
H47   H     H_    0.128323 0.111270 0.404448 0.212779
H48   H     H_    0.934847 0.185350 0.577406 0.197965
C113  C     C_3   0.592522 0.596092 0.499740 -0.194820
C114  C     C_3   0.404301 0.593266 0.499619 -0.194261
C115  C     C_3   0.094170 0.094847 0.500454 -0.205908
C116  C     C_3   0.904923 0.093986 0.499578 -0.191690
C117  C     C_3   0.639141 0.585764 0.493402 -0.199243
C118  C     C_3   0.412407 0.609399 0.564620 -0.160898
C119  C     C_3   0.148048 0.085298 0.508620 -0.200849
C120  C     C_3   0.911212 0.108535 0.563983 -0.143368
C121  C     C_3   0.679035 0.617965 0.554338 -0.182820
C122  C     C_3   0.347598 0.607135 0.523451 -0.228833
C123  C     C_3   0.177326 0.124257 0.560744 -0.136268
C124  C     C_3   0.846165 0.106606 0.520470 -0.217954
C125  C     C_3   0.631898 0.627827 0.560184 -0.137217
C126  C     C_3   0.340245 0.590794 0.458850 -0.137628
C127  C     C_3   0.122924 0.133320 0.552270 -0.118568
C128  C     C_3   0.840652 0.091869 0.456441 -0.133020
C129  C     C_3   0.609819 0.665842 0.507969 0.213155
C130  C     C_3   0.335778 0.638817 0.435242 0.210889
C131  C     C_3   0.101581 0.164889 0.491700 0.216273
C132  C     C_3   0.837482 0.140436 0.435429 0.209693
C133  C     C_3   0.656035 0.656100 0.501599 -0.153913
C134  C     C_3   0.343436 0.655222 0.499140 -0.138743
C135  C     C_3   0.155162 0.155921 0.499666 -0.174370
C136  C     C_3   0.843384 0.155272 0.498871 -0.154362
H49   H     H_    0.650427 0.552077 0.487320 0.164618
H50   H     H_    0.444314 0.596568 0.617853 0.187456
H51   H     H_    0.166370 0.051837 0.515774 0.167833
H52   H     H_    0.941991 0.094688 0.616795 0.185438
H53   H     H_    0.724190 0.612024 0.597805 0.191667
H54   H     H_    0.325314 0.593449 0.542454 0.178267
H55   H     H_    0.220984 0.123813 0.609892 0.217768
H56   H     H_    0.822484 0.092404 0.537274 0.180827
O33   O     O_R   0.424770 0.546480 0.442520 -0.560247
O34   O     O_R   0.575230 0.546480 0.557480 -0.624548
O35   O     O_R   0.924770 0.046480 0.442520 -0.592517
O36   O     O_R   0.075230 0.046480 0.557480 -0.595110
O37   O     O_R   0.482280 0.546460 0.557530 -0.628636
O38   O     O_R   0.517720 0.546460 0.442470 -0.581222
O39   O     O_R   0.982280 0.046460 0.557530 -0.625320
O40   O     O_R   0.017720 0.046460 0.442470 -0.584571
C137  C     C_R   0.438763 0.560357 0.499886 0.993646
C138  C     C_R   0.559699 0.561765 0.499919 0.953864
C139  C     C_R   0.939119 0.060743 0.499877 0.964113
C140  C     C_R   0.060595 0.060987 0.500067 0.935439
O41   O     O_R   0.924770 0.953450 0.442500 -0.623722
O42   O     O_R   0.075230 0.953450 0.557500 -0.625243
O43   O     O_R   0.424770 0.453450 0.442500 -0.607760
O44   O     O_R   0.575230 0.453450 0.557500 -0.628242
O45   O     O_R   0.982280 0.953430 0.557510 -0.629950
O46   O     O_R   0.017720 0.953430 0.442490 -0.625806
O47   O     O_R   0.482280 0.453430 0.557510 -0.634056
O48   O     O_R   0.517720 0.453430 0.442490 -0.628214
C141  C     C_R   0.938939 0.939173 0.499881 0.876199
C142  C     C_R   0.060943 0.939004 0.500228 0.841554
C143  C     C_R   0.439048 0.439068 0.499885 0.876984
C144  C     C_R   0.561013 0.439066 0.500238 0.843730
Zn9   Zn    Zn3+2 0.961630 0.999960 0.423200 1.074299
Zn10  Zn    Zn3+2 0.038370 0.999960 0.576800 1.024856
Zn11  Zn    Zn3+2 0.461630 0.499960 0.423200 1.083886
Zn12  Zn    Zn3+2 0.538370 0.499960 0.576800 1.009403
N17   N     N_R   0.772992 0.748152 0.712804 0.207317
O49   O     O_R   0.745802 0.785144 0.684486 -0.308335
O50   O     O_R   0.749681 0.717096 0.724127 -0.326858
N18   N     N_R   0.213040 0.790895 0.282388 0.226207
O51   O     O_R   0.217242 0.830696 0.305518 -0.357441
O52   O     O_R   0.249086 0.778042 0.273200 -0.280858
N19   N     N_R   0.289442 0.198804 0.712472 0.179522
O53   O     O_R   0.242628 0.215197 0.658158 -0.383214
O54   O     O_R   0.287316 0.163240 0.740863 -0.380556
N20   N     N_R   0.659105 0.331569 0.283534 0.218311
O55   O     O_R   0.653158 0.345707 0.328600 -0.410739
O56   O     O_R   0.676782 0.359071 0.259904 -0.336739
N21   N     N_R   0.513288 0.645048 0.388369 0.260367
O57   O     O_R   0.504178 0.677279 0.347357 -0.295003
O58   O     O_R   0.471135 0.621271 0.373119 -0.290036
N22   N     N_R   0.429235 0.659344 0.452112 0.241633
O59   O     O_R   0.401933 0.679609 0.392856 -0.226242
O60   O     O_R   0.483944 0.659042 0.493127 -0.325751
N23   N     N_R   0.016824 0.127099 0.374627 0.251840
O61   O     O_R   0.009661 0.121635 0.317286 -0.339276
O62   O     O_R   0.973196 0.132080 0.372785 -0.254408
N24   N     N_R   0.932908 0.161287 0.457466 0.243989
O63   O     O_R   0.907510 0.184924 0.401350 -0.232218
O64   O     O_R   0.987496 0.158469 0.498574 -0.361641
C145  C     C_2   0.639841 0.630181 0.626529 1.052487
O65   O     O_2   0.686312 0.623431 0.681462 -0.580035
O66   O     O_R   0.593952 0.640024 0.625070 -0.735802
H57   H     H_    0.604401 0.640567 0.672900 0.351013
C146  C     C_2   0.301309 0.553636 0.414383 0.977208
O67   O     O_2   0.250637 0.558195 0.382560 -0.571673
O68   O     O_R   0.322891 0.513852 0.410419 -0.808508
H58   H     H_    0.292424 0.491236 0.379508 0.346570
C147  C     C_2   0.123591 0.140629 0.613051 1.059884
O69   O     O_2   0.103177 0.174313 0.616884 -0.519567
O70   O     O_R   0.148675 0.108953 0.665826 -0.761727
H59   H     H_    0.146817 0.117455 0.704187 0.350297
C148  C     C_2   0.804955 0.053649 0.411418 0.974158
O71   O     O_2   0.766354 0.059628 0.350144 -0.550401
O72   O     O_R   0.816216 0.011220 0.440242 -0.830180
H60   H     H_    0.789752 0.987990 0.405002 0.342145
N25   N     N_R   0.552496 0.836482 0.154327 0.219143
O73   O     O_R   0.498652 0.838375 0.103920 -0.309128
O74   O     O_R   0.579798 0.873271 0.183152 -0.348706
N26   N     N_R   0.409360 0.839655 0.843040 0.213855
O75   O     O_R   0.401443 0.846888 0.888559 -0.319894
O76   O     O_R   0.417272 0.873368 0.816846 -0.347504
N27   N     N_R   0.050098 0.335755 0.154115 0.219113
O77   O     O_R   0.996228 0.336876 0.103656 -0.309028
O78   O     O_R   0.076400 0.372883 0.182915 -0.347761
N28   N     N_R   0.907105 0.339123 0.843036 0.213607
O79   O     O_R   0.898940 0.345488 0.888503 -0.320592
O80   O     O_R   0.914136 0.373413 0.816903 -0.350344
N29   N     N_R   0.595182 0.709625 0.517919 0.246199
O81   O     O_R   0.545476 0.726422 0.471804 -0.244195
O82   O     O_R   0.631448 0.731511 0.574411 -0.287168
N30   N     N_R   0.294214 0.654287 0.364382 0.250805
O83   O     O_R   0.290928 0.635445 0.314543 -0.283959
O84   O     O_R   0.259093 0.685785 0.350178 -0.376128
N31   N     N_R   0.076702 0.208570 0.482235 0.257657
O85   O     O_R   0.028079 0.218762 0.424471 -0.259838
O86   O     O_R   0.103402 0.237823 0.531401 -0.274932
N32   N     N_R   0.797675 0.157735 0.365287 0.249976
O87   O     O_R   0.797365 0.141809 0.316016 -0.261582
O88   O     O_R   0.762123 0.188789 0.351333 -0.395641
C149  C     C_2   0.651040 0.666788 0.279258 0.951218
O89   O     O_2   0.661650 0.640440 0.250975 -0.600988
O90   O     O_R   0.657466 0.653857 0.338294 -0.806145
H61   H     H_    0.672632 0.622526 0.353580 0.345999
C150  C     C_2   0.361511 0.666667 0.720329 0.936933
O91   O     O_2   0.355751 0.635164 0.746850 -0.603564
O92   O     O_R   0.360479 0.659784 0.663446 -0.816044
H62   H     H_    0.354212 0.627517 0.648999 0.339300
C151  C     C_2   0.153179 0.167149 0.279129 0.959177
O93   O     O_2   0.165495 0.141847 0.251530 -0.603713
O94   O     O_R   0.158851 0.153195 0.337289 -0.799091
H63   H     H_    0.175415 0.122251 0.352850 0.342586
C152  C     C_2   0.863697 0.166648 0.719960 0.936804
O95   O     O_2   0.859338 0.134533 0.746819 -0.601496
O96   O     O_R   0.862030 0.160654 0.662445 -0.816617
H64   H     H_    0.856505 0.128457 0.647783 0.340554

loop_
_geom_bond_atom_site_label_1
_geom_bond_atom_site_label_2
_geom_bond_distance
_ccdc_geom_bond_type
C69   C73   1.531353 S    
C45   H13   1.110249 S    
C52   C56   1.530038 S    
C67   H27   1.110211 S    
C124  C128  1.545758 S    
C72   C76   1.530670 S    
C47   C59   1.546182 S    
C118  H50   1.110102 S    
C145  O65   1.221910 D    
C71   C75   1.530828 S    
C49   C69   1.544676 S    
C43   N7    1.357110 A    
C117  C121  1.554732 S    
C121  C133  1.538659 S    
Zn6   O22   2.018828 S    
N1    C42   1.355101 A    
C129  C133  1.526994 S    
N3    C44   1.355143 A    
C48   H16   1.110099 S    
C119  H51   1.110219 S    
C26   C30   1.402833 A    
C132  N32   1.459073 S    
O33   Zn11  2.022104 S    
N28   O79   1.301458 A    
O34   Zn12  2.021425 S    
O4    C4    1.276608 A    
C106  H46   1.110224 S    
C147  O70   1.396777 S    
C50   C54   1.530004 S    
C121  H53   1.110236 S    
C66   C70   1.544402 S    
C110  N22   1.455302 S    
C120  C124  1.552753 S    
C29   C33   1.399192 A    
C152  O96   1.397898 S    
C113  C117  1.541853 S    
O42   Zn10  2.021609 S    
N27   O77   1.301407 A    
C84   H36   1.083239 S    
C116  C139  1.435614 S    
C94   C98   1.405295 A    
C9    C133  1.433984 S    
Zn1   O25   2.009527 S    
N31   O86   1.300508 A    
C45   C73   1.530007 S    
C112  C116  1.524915 S    
Zn3   O19   2.021699 S    
N10   C101  1.356231 A    
Zn4   O28   2.007989 S    
O13   C5    1.287816 A    
C48   C76   1.529779 S    
Zn5   O29   2.004782 S    
C15   C99   1.452949 S    
C88   C103  1.468394 S    
O15   C7    1.288085 A    
C46   H14   1.110216 S    
O11   Zn3   2.004994 S    
O66   H57   1.013668 S    
C108  C112  1.537560 S    
C96   H44   1.083442 S    
O9    C5    1.289441 A    
C106  C134  1.540391 S    
N18   O51   1.301062 A    
C65   C69   1.544493 S    
O6    Zn6   2.020595 S    
O19   C11   1.277323 A    
C68   H28   1.110212 S    
C110  C130  1.522930 S    
N24   O63   1.300060 A    
O36   C140  1.268782 A    
N2    C41   1.356507 A    
C91   C95   1.389942 A    
C86   C90   1.399523 A    
C92   C96   1.390319 A    
C114  C137  1.434761 S    
C36   C40   1.412260 A    
C53   C141  1.442362 S    
C17   H1    1.083934 S    
C55   C59   1.529931 S    
C55   C143  1.442202 S    
C19   H3    1.083876 S    
C56   C144  1.441771 S    
C20   H4    1.084251 S    
C109  C113  1.530629 S    
N22   O60   1.299415 A    
N20   O56   1.301341 A    
C22   C26   1.412853 A    
C111  C131  1.524368 S    
C126  C130  1.532952 S    
C19   C39   1.404635 A    
O3    C3    1.276503 A    
C77   N17   1.432808 S    
N31   O85   1.300033 A    
C61   C65   1.544020 S    
C29   H5    1.084801 S    
C62   C66   1.544473 S    
C47   C51   1.545582 S    
C2    C74   1.442086 S    
O36   Zn10  2.021425 S    
C81   H33   1.083391 S    
C123  C127  1.547768 S    
C107  C119  1.553687 S    
C151  O93   1.223316 D    
O94   H63   1.013869 S    
C26   C41   1.468482 S    
C90   C94   1.389287 A    
N5    N6    1.329762 A    
C20   C40   1.400895 A    
N23   O62   1.299356 A    
C117  H49   1.110315 S    
C65   H25   1.110232 S    
O44   Zn12  2.021609 S    
C124  C136  1.543438 S    
C78   C98   1.417456 A    
C94   H42   1.083180 S    
C119  C123  1.553028 S    
C148  O72   1.397036 S    
O46   Zn9   2.015951 S    
C128  C132  1.534436 S    
C54   C58   1.530058 S    
C87   C104  1.468529 S    
C3    C75   1.442919 S    
C19   C23   1.396394 A    
C85   C102  1.466147 S    
C129  N29   1.459946 S    
O48   C144  1.271897 A    
C17   C37   1.404331 A    
C146  O68   1.396691 S    
C66   H26   1.110210 S    
C55   C67   1.531617 S    
C89   H37   1.082955 S    
C53   C65   1.531749 S    
C80   N20   1.437674 S    
O20   C12   1.272879 A    
O8    C4    1.277116 A    
C81   C85   1.402797 A    
O43   C143  1.270587 A    
O29   C13   1.285647 A    
N17   O49   1.300615 A    
C107  C111  1.536613 S    
N29   O82   1.300290 A    
O47   C143  1.272226 A    
C18   C38   1.401257 A    
C112  C132  1.523145 S    
N11   N15   1.329112 A    
C149  O90   1.397007 S    
O39   Zn10  2.015462 S    
Zn4   O20   2.020850 S    
N30   O83   1.300323 A    
C24   N28   1.437805 S    
N3    N4    1.328353 A    
C122  C126  1.545638 S    
C115  C119  1.538900 S    
N27   O78   1.301425 A    
N26   O76   1.301389 A    
O5    C1    1.276322 A    
C106  C110  1.537506 S    
C59   C63   1.544165 S    
C68   C72   1.544293 S    
C17   C21   1.396258 A    
C96   C100  1.402987 A    
N21   O57   1.300427 A    
O25   C13   1.287192 A    
C23   N27   1.438839 S    
O27   C15   1.284714 A    
O43   Zn11  2.020927 S    
C84   C88   1.402070 A    
C151  O94   1.396929 S    
C41   N5    1.357113 A    
Zn2   O26   2.007989 S    
O16   Zn8   2.008119 S    
C49   H9    1.110240 S    
C131  C135  1.529538 S    
C14   C98   1.472600 S    
O14   C6    1.287247 A    
C51   H11   1.110317 S    
Zn6   O30   2.006385 S    
C32   H8    1.084315 S    
C115  C127  1.537430 S    
O37   Zn12  2.015462 S    
O38   Zn11  2.017908 S    
C124  H56   1.110003 S    
C108  C120  1.552311 S    
C111  C115  1.527817 S    
N32   O88   1.299710 A    
O10   C6    1.287557 A    
O3    Zn3   2.019511 S    
C64   C76   1.531170 S    
N23   O61   1.300372 A    
C61   H21   1.110205 S    
N10   N14   1.328794 A    
C111  N23   1.458278 S    
C106  C118  1.552234 S    
O40   C140  1.270017 A    
C125  C129  1.530817 S    
C12   C136  1.433727 S    
C89   C93   1.388532 A    
O37   C137  1.268303 A    
C50   C70   1.546511 S    
N19   O53   1.300464 A    
C85   C89   1.401433 A    
N28   O80   1.301391 A    
C115  C140  1.435124 S    
C13   C97   1.459027 S    
C33   C37   1.416067 A    
C88   C92   1.400803 A    
Zn1   O17   2.021699 S    
C54   C142  1.441616 S    
C18   H2    1.084212 S    
C35   C39   1.416133 A    
C16   C100  1.467345 S    
O13   Zn5   2.009658 S    
C125  C145  1.499190 S    
O70   H59   1.013773 S    
O15   Zn7   2.009658 S    
C32   C36   1.398098 A    
C152  O95   1.223386 D    
C80   C84   1.398691 A    
C112  N24   1.455294 S    
C42   N6    1.355966 A    
O17   C9    1.277515 A    
C130  C134  1.525468 S    
N25   O74   1.301423 A    
O45   C141  1.272296 A    
C114  C126  1.535472 S    
C51   C71   1.546277 S    
O35   C139  1.270158 A    
C82   H34   1.083526 S    
C93   C97   1.400718 A    
C79   N19   1.440660 S    
C4    C76   1.441900 S    
C25   C29   1.400783 A    
C150  O92   1.397655 S    
C77   C97   1.412133 A    
C83   C87   1.403461 A    
C90   H38   1.083033 S    
C107  C135  1.539625 S    
C60   C64   1.544586 S    
C105  H45   1.107916 S    
O72   H60   1.013723 S    
O44   C144  1.270682 A    
Zn7   O31   2.004781 S    
N15   C103  1.356865 A    
Zn8   O32   2.006385 S    
C49   C53   1.530061 S    
N24   O64   1.299107 A    
C30   C34   1.397905 A    
C51   C55   1.529989 S    
C21   N25   1.438833 S    
C122  H54   1.109743 S    
C145  O66   1.396408 S    
C5    C37   1.468427 S    
O47   Zn12  2.018396 S    
O68   H58   1.013786 S    
C79   C99   1.413686 A    
O1    C1    1.277101 A    
C80   C100  1.416188 A    
C25   C42   1.462027 S    
O92   H62   1.013083 S    
C126  C146  1.500207 S    
C64   H24   1.110226 S    
N11   C104  1.356334 A    
C61   C73   1.530594 S    
C34   C38   1.412447 A    
C45   C57   1.545265 S    
N9    C102  1.355892 A    
C52   H12   1.110296 S    
C47   H15   1.110296 S    
C54   C66   1.531305 S    
C95   H43   1.084081 S    
O42   C142  1.270816 A    
O21   C9    1.271685 A    
O28   C16   1.290283 A    
C82   C86   1.400748 A    
C123  C135  1.539245 S    
O30   C14   1.288103 A    
C107  H47   1.107537 S    
N12   C103  1.356383 A    
C105  C133  1.538359 S    
C8    C40   1.461422 S    
C48   C60   1.545782 S    
O40   Zn9   2.017908 S    
C35   C151  1.484089 S    
C77   C81   1.396304 A    
C48   C52   1.545453 S    
C109  N21   1.460218 S    
O33   C137  1.270203 A    
O6    C2    1.277601 A    
C27   C44   1.461935 S    
C63   C67   1.544413 S    
O26   C14   1.292666 A    
C31   C35   1.398846 A    
C148  O71   1.221599 D    
C70   H30   1.110248 S    
C21   C25   1.409745 A    
C23   C27   1.409727 A    
C6    C38   1.462543 S    
C33   C149  1.484971 S    
C113  C138  1.435301 S    
C130  N30   1.458077 S    
Zn3   O27   2.009527 S    
C20   C24   1.397438 A    
C146  O67   1.221942 D    
C30   H6    1.084342 S    
Zn5   O21   2.019676 S    
O38   C138  1.267924 A    
C11   C135  1.434926 S    
N1    N2    1.328351 A    
C46   C58   1.546059 S    
C22   N26   1.437816 S    
O12   Zn4   2.006598 S    
O90   H61   1.013933 S    
C122  C134  1.541893 S    
N19   O54   1.301576 A    
N29   O81   1.299903 A    
O12   C8    1.287301 A    
N12   N16   1.329234 A    
C108  C136  1.540698 S    
C62   H22   1.110233 S    
C147  O69   1.221338 D    
O7    C3    1.276993 A    
C128  C148  1.499059 S    
C69   H29   1.110224 S    
N22   O59   1.300084 A    
N18   O52   1.300901 A    
C52   C72   1.545837 S    
C67   C71   1.544057 S    
N20   O55   1.301511 A    
C72   H32   1.110223 S    
O41   Zn9   2.020927 S    
C118  C122  1.553409 S    
C44   N8    1.355915 A    
C71   H31   1.110229 S    
C123  H55   1.109530 S    
C46   C74   1.529777 S    
C53   C57   1.529834 S    
C86   C101  1.465757 S    
C113  C125  1.537231 S    
C57   C61   1.545844 S    
C127  C147  1.501105 S    
C28   C43   1.468329 S    
Zn2   O18   2.020850 S    
O96   H64   1.013293 S    
N13   C101  1.356162 A    
O14   Zn6   2.008119 S    
C24   C28   1.412884 A    
O11   C7    1.289676 A    
C108  H48   1.110234 S    
C7    C39   1.469346 S    
O1    Zn1   2.019511 S    
O9    Zn1   2.004994 S    
C63   C75   1.531386 S    
C64   C68   1.544307 S    
O4    Zn4   2.018663 S    
C18   C22   1.397692 A    
C114  C118  1.541821 S    
O5    Zn5   2.021451 S    
C45   C49   1.546320 S    
O39   C139  1.268605 A    
O18   C10   1.272755 A    
O7    Zn7   2.021451 S    
C116  C128  1.534175 S    
O8    Zn8   2.020595 S    
O16   C8    1.286885 A    
C10   C134  1.433189 S    
O2    Zn2   2.018663 S    
O46   C142  1.271698 A    
C93   H41   1.083819 S    
C120  H52   1.110103 S    
C91   H39   1.082967 S    
O24   C12   1.276570 A    
C87   C91   1.401678 A    
N4    C43   1.356457 A    
O10   Zn2   2.006598 S    
C132  C136  1.526773 S    
C58   C62   1.543732 S    
C83   H35   1.083034 S    
N14   C102  1.356634 A    
C47   C75   1.530061 S    
N16   C104  1.356948 A    
C92   H40   1.083000 S    
N7    N8    1.329712 A    
C105  C109  1.538071 S    
C57   H17   1.110264 S    
O23   C11   1.272288 A    
C28   C32   1.403068 A    
C34   C150  1.486104 S    
C36   C152  1.486476 S    
N17   O50   1.300846 A    
C79   C83   1.400466 A    
C31   H7    1.084845 S    
C58   H18   1.110237 S    
O2    C2    1.276197 A    
C78   N18   1.432029 S    
C116  C120  1.540813 S    
O31   C15   1.284572 A    
C50   H10   1.110329 S    
O32   C16   1.287585 A    
C62   C74   1.531715 S    
C56   C68   1.531605 S    
O41   C141  1.270594 A    
O35   Zn9   2.022104 S    
C95   C99   1.398592 A    
C70   C74   1.530321 S    
C127  C131  1.532950 S    
O22   C10   1.276487 A    
C131  N31   1.460656 S    
C110  C114  1.525260 S    
N26   O75   1.301461 A    
C1    C73   1.442778 S    
C27   C31   1.400511 A    
N9    N13   1.328033 A    
O48   Zn11  2.015951 S    
C105  C117  1.553555 S    
N21   O58   1.298994 A    
Zn7   O23   2.019676 S    
C46   C50   1.545149 S    
Zn8   O24   2.018828 S    
N25   O73   1.301406 A    
C109  C129  1.523298 S    
C78   C82   1.394929 A    
O45   Zn10  2.018396 S    
N30   O84   1.299368 A    
C121  C125  1.546336 S    
N32   O87   1.300386 A    
C59   H19   1.110230 S    
C149  O89   1.223310 D    
C60   H20   1.110243 S    
C150  O91   1.223217 D    
O34   C138  1.271316 A    
C56   C60   1.529844 S    
C63   H23   1.110222 S    
