data_mof_unit_60452.cif
_audit_creation_date              2012-12-10T16:40:32-0500
_audit_creation_method            fapswitch 2.2
_symmetry_space_group_name_H-M    P1
_symmetry_Int_Tables_number       1
_space_group_crystal_system       triclinic
_cell_length_a                    10.815261
_cell_length_b                    10.824537
_cell_length_c                    19.533644
_cell_angle_alpha                 97.49177
_cell_angle_beta                  91.920351
_cell_angle_gamma                 98.386659
_cell_volume                      2239.82211996

loop_
_atom_site_label
_atom_site_type_symbol
_atom_type_description
_atom_site_fract_x
_atom_site_fract_y
_atom_site_fract_z
_atom_type_partial_charge
C1    C     C_R   0.474766 0.161881 0.483712 0.537744
C2    C     C_2   0.496654 0.438645 0.015649 -0.136502
C3    C     C_2   0.491397 0.539093 0.982788 -0.135586
C4    C     C_R   0.523236 0.839076 0.516387 0.500277
C5    C     C_R   0.484797 0.519951 0.763479 0.037029
C6    C     C_2   0.526664 0.975580 0.525868 0.242329
C7    C     C_2   0.468485 0.027448 0.477924 -0.076227
C8    C     C_2   0.972227 0.536420 0.521844 -0.115472
C9    C     C_2   0.030518 0.462338 0.478125 -0.098196
C10   C     C_R   0.164272 0.472621 0.484175 0.492808
C11   C     C_R   0.836949 0.526593 0.515535 0.514783
C12   C     C_R   0.499976 0.450527 0.091418 0.040629
C13   C     C_R   0.487248 0.513730 0.688377 0.495713
C14   C     C_R   0.512661 0.486031 0.311590 0.503809
C15   C     C_R   0.511174 0.474954 0.236014 0.036500
C16   C     C_R   0.440810 0.549063 0.201338 -0.125977
C17   C     C_R   0.434744 0.536587 0.129689 -0.112942
C18   C     C_3   0.526580 0.045164 0.640985 -0.003108
C19   C     C_3   0.588666 0.146520 0.698082 -0.356869
C20   C     C_R   0.568501 0.374667 0.125718 -0.117790
C21   C     C_R   0.574890 0.387339 0.197764 -0.125219
C22   C     C_R   0.427119 0.422464 0.864751 -0.111875
C23   C     C_R   0.425229 0.417531 0.793177 -0.133123
C24   C     C_R   0.544025 0.628267 0.806098 -0.124269
C25   C     C_R   0.544442 0.633786 0.877586 -0.118660
C26   C     C_R   0.488050 0.530339 0.907259 0.041352
H1    H     H_    0.389446 0.616213 0.229489 0.136240
H2    H     H_    0.379756 0.342776 0.886661 0.106137
H3    H     H_    0.628696 0.328141 0.223397 0.133368
H4    H     H_    0.505564 0.347811 0.986783 0.116527
H5    H     H_    0.377634 0.593284 0.104357 0.107889
H6    H     H_    0.524637 0.951684 0.659157 0.141902
H7    H     H_    0.428647 0.062504 0.631526 0.131764
H8    H     H_    0.590475 0.241135 0.681557 0.167009
H9    H     H_    0.535360 0.142759 0.745571 0.085703
H10   H     H_    0.686039 0.131372 0.709928 0.163873
H11   H     H_    0.590552 0.718113 0.909792 0.103173
H12   H     H_    0.419775 0.971335 0.432128 0.075846
H13   H     H_    0.024736 0.604395 0.562240 0.103862
H14   H     H_    0.980399 0.394287 0.437061 0.125096
H15   H     H_    0.378668 0.333247 0.761149 0.126081
H16   H     H_    0.589633 0.708862 0.784195 0.128415
H17   H     H_    0.497038 0.632343 0.012211 0.118133
H18   H     H_    0.618319 0.307004 0.096778 0.104877
O1    O     O_3   0.500000 0.500000 0.500000 -0.442559
O2    O     O_R   0.410860 0.431690 0.648970 -0.547714
O3    O     O_R   0.578570 0.421470 0.344370 -0.550622
O4    O     O_R   0.567340 0.590030 0.662290 -0.552165
O5    O     O_R   0.443230 0.556810 0.344370 -0.546863
O6    O     O_3   0.595701 0.050892 0.581103 -0.547965
O7    O     O_R   0.229880 0.548640 0.449830 -0.535955
O8    O     O_R   0.775840 0.445670 0.468570 -0.536780
O9    O     O_R   0.404020 0.217050 0.524780 -0.539715
O10   O     O_R   0.590260 0.788640 0.556820 -0.523015
O11   O     O_R   0.555650 0.222860 0.449830 -0.529198
O12   O     O_R   0.450070 0.771450 0.468560 -0.571236
O13   O     O_R   0.213590 0.407490 0.524780 -0.532942
O14   O     O_R   0.780700 0.598200 0.556830 -0.532694
Zn1   Zn    Zn3+2 0.407400 0.592620 0.441700 0.927408
Zn2   Zn    Zn3+2 0.384130 0.390950 0.548790 0.938096
Zn3   Zn    Zn3+2 0.607710 0.617180 0.567810 0.946191
Zn4   Zn    Zn3+2 0.600760 0.399250 0.441700 0.950672

loop_
_geom_bond_atom_site_label_1
_geom_bond_atom_site_label_2
_ccdc_geom_bond_type
C12   C17   A    
C13   O4    A    
O1    Zn2   S    
C6    C7    D    
C8    H13   S    
C11   O14   A    
C24   H16   S    
C9    C10   S    
C5    C13   S    
C5    C23   A    
C23   H15   S    
O12   Zn1   S    
C2    H4    S    
C2    C12   S    
C12   C20   A    
O14   Zn3   S    
C14   C15   S    
C2    C3    D    
C1    O11   A    
C25   C26   A    
O8    Zn4   S    
C4    O12   A    
C3    H17   S    
O4    Zn3   S    
C14   O3    A    
C5    C24   A    
O3    Zn4   S    
C8    C11   S    
C10   O7    A    
O1    Zn3   S    
O10   Zn3   S    
O9    Zn2   S    
C4    O10   A    
C19   H10   S    
C9    H14   S    
C13   O2    A    
C17   H5    S    
C18   H7    S    
C14   O5    A    
C18   H6    S    
O2    Zn2   S    
C15   C16   A    
O11   Zn4   S    
O1    Zn4   S    
C15   C21   A    
C10   O13   A    
O7    Zn1   S    
C24   C25   A    
C18   O6    S    
C4    C6    S    
C18   C19   S    
C22   C26   A    
C16   H1    S    
C19   H9    S    
C1    O9    A    
C22   C23   A    
O1    Zn1   S    
O13   Zn2   S    
C22   H2    S    
C11   O8    A    
C20   H18   S    
C20   C21   A    
C1    C7    S    
C21   H3    S    
C7    H12   S    
C3    C26   S    
C6    O6    S    
C16   C17   A    
C25   H11   S    
C8    C9    D    
C19   H8    S    
O5    Zn1   S    
