data_mof_unit_42201.cif
_audit_creation_date              2012-12-10T17:39:21-0500
_audit_creation_method            fapswitch 2.2
_symmetry_space_group_name_H-M    P1
_symmetry_Int_Tables_number       1
_space_group_crystal_system       triclinic
_cell_length_a                    12.31666
_cell_length_b                    13.139103
_cell_length_c                    27.768284
_cell_angle_alpha                 77.740677
_cell_angle_beta                  101.318108
_cell_angle_gamma                 116.651974
_cell_volume                      3898.34675641

loop_
_atom_site_label
_atom_site_type_symbol
_atom_type_description
_atom_site_fract_x
_atom_site_fract_y
_atom_site_fract_z
_atom_type_partial_charge
C1    C     C_R   0.854998 0.286441 0.503886 0.855862
C2    C     C_R   0.891096 0.504656 0.709716 0.634374
C3    C     C_R   0.981955 0.492749 0.746229 0.142771
C4    C     C_R   0.974888 0.493090 0.897166 -0.133819
C5    C     C_R   0.934317 0.388604 0.878695 -0.039880
C6    C     C_R   0.898691 0.285125 0.911311 -0.232973
C7    C     C_R   0.013709 0.597779 0.864646 -0.191010
C8    C     C_R   0.996452 0.497508 0.645935 -0.200979
C9    C     C_R   0.999724 0.498984 0.354386 -0.258508
C10   C     C_R   0.911212 0.390371 0.028913 0.045804
C11   C     C_R   0.056392 0.594701 0.020179 -0.002238
C12   C     C_R   0.999283 0.499346 0.592620 0.887625
C13   C     C_R   0.985096 0.492834 0.049985 -0.055034
C14   C     C_R   0.822223 0.297838 0.056794 0.474527
C15   C     C_R   0.823887 0.300929 0.107230 -0.245102
C16   C     C_R   0.907805 0.396772 0.129766 -0.063943
C17   C     C_R   0.987332 0.493717 0.100968 -0.057391
C18   C     C_R   0.068783 0.591787 0.123121 -0.108424
C19   C     C_R   0.069729 0.590742 0.173845 0.613695
C20   C     C_R   0.911518 0.399528 0.180357 0.659663
C21   C     C_R   0.092669 0.490700 0.286602 -0.256109
C22   C     C_R   0.095923 0.491796 0.337002 0.603408
C23   C     C_R   0.145228 0.713704 0.492627 0.791381
C24   C     C_R   0.901234 0.505131 0.320258 -0.327829
C25   C     C_R   0.898406 0.503848 0.269964 0.694565
C26   C     C_R   0.994115 0.496519 0.252999 0.128036
C27   C     C_R   0.926342 0.387039 0.979885 0.067126
C28   C     C_R   0.977707 0.492763 0.948282 -0.061398
C29   C     C_R   0.032941 0.598136 0.967791 -0.065690
C30   C     C_R   0.897183 0.283319 0.961934 0.472193
C31   C     C_R   0.050339 0.701393 0.883276 0.563279
C32   C     C_R   0.148555 0.687713 0.044269 0.475039
C33   C     C_R   0.150138 0.686959 0.094684 -0.126919
C34   C     C_R   0.000397 0.500053 0.407499 0.914105
C35   C     C_R   0.057484 0.701966 0.934520 0.303520
C36   C     C_R   0.275628 0.020760 0.431490 -0.067587
C37   C     C_R   0.228294 0.835215 0.481676 -0.044221
C38   C     C_R   0.815260 0.084479 0.535648 -0.178225
C39   C     C_R   0.736166 0.969187 0.544877 -0.116758
C40   C     C_R   0.613132 0.931748 0.526754 -0.092610
C41   C     C_R   0.567306 0.009101 0.496858 0.013577
C42   C     C_R   0.651775 0.122886 0.481595 -0.074779
C43   C     C_R   0.440802 0.976549 0.481134 -0.001306
C44   C     C_R   0.401472 0.053372 0.446520 0.027734
C45   C     C_R   0.935444 0.390464 0.828114 0.678630
C46   C     C_R   0.487798 0.159587 0.426147 0.302609
C47   C     C_R   0.612634 0.191901 0.442472 0.483707
C48   C     C_R   0.351688 0.869773 0.499487 -0.138739
C49   C     C_R   0.189781 0.912021 0.448612 -0.216627
C50   C     C_R   0.773794 0.162999 0.505344 -0.046857
C51   C     C_R   0.356068 0.345953 0.585978 0.358721
C52   C     C_R   0.762272 0.647449 0.433878 0.057957
C53   C     C_R   0.673663 0.689380 0.422673 -0.328565
C54   C     C_R   0.572393 0.641404 0.449726 0.452642
C55   C     C_R   0.556597 0.543653 0.486655 -0.014903
C56   C     C_R   0.012874 0.595186 0.814095 0.706809
C57   C     C_R   0.654571 0.508806 0.498414 0.140445
C58   C     C_R   0.451381 0.482058 0.514030 -0.131651
C59   C     C_R   0.454410 0.399555 0.556367 -0.105176
C60   C     C_R   0.552480 0.368772 0.566866 0.555354
C61   C     C_R   0.648513 0.421550 0.538322 -0.245057
C62   C     C_R   0.340599 0.494978 0.500307 0.126882
C63   C     C_R   0.252138 0.365474 0.570357 0.069137
C64   C     C_R   0.082013 0.484607 0.733282 0.295000
C65   C     C_R   0.087279 0.482140 0.682905 0.295292
C66   C     C_R   0.899091 0.508512 0.660078 -0.347241
Cu1   Cu    Cu3+1 0.098270 0.475420 0.511360 1.006969
Cu2   Cu    Cu3+1 0.901730 0.524580 0.488640 0.976656
H1    H     H_    0.827561 0.518787 0.632688 0.215309
H2    H     H_    0.825889 0.510568 0.332422 0.228986
H3    H     H_    0.218970 0.760050 0.111878 0.213936
H4    H     H_    0.094217 0.886404 0.434373 0.155751
H5    H     H_    0.243202 0.077682 0.405219 0.200410
H6    H     H_    0.375583 0.810398 0.527509 0.152296
H7    H     H_    0.908604 0.112642 0.553327 0.165882
H8    H     H_    0.557211 0.841139 0.535828 0.145803
H9    H     H_    0.769463 0.909022 0.567780 0.160741
H10   H     H_    0.176426 0.324859 0.592484 0.173043
H11   H     H_    0.324481 0.546279 0.466552 0.237012
H12   H     H_    0.841254 0.687754 0.413604 0.143563
H13   H     H_    0.874500 0.205308 0.897747 0.192880
H14   H     H_    0.686569 0.762552 0.393945 0.158187
H15   H     H_    0.717748 0.391368 0.549602 0.222081
H16   H     H_    0.166863 0.485208 0.273519 0.202737
H17   H     H_    0.757334 0.228910 0.128527 0.193219
N1    N     N_R   0.975116 0.492706 0.797196 -0.430545
N2    N     N_R   0.991736 0.495547 0.201265 -0.434589
N3    N     N_R   0.246290 0.438210 0.528570 -0.250820
N4    N     N_R   0.754320 0.561170 0.471730 -0.181972
O1    O     O_R   0.972510 0.318140 0.514280 -0.603638
O2    O     O_2   0.836228 0.306884 0.208534 -0.496385
O3    O     O_2   0.051014 0.693869 0.782080 -0.416582
O4    O     O_2   0.147326 0.684237 0.195570 -0.512620
O5    O     O_R   0.806530 0.359640 0.495100 -0.552500
O6    O     O_R   0.082990 0.479270 0.579320 -0.526278
O7    O     O_R   0.917010 0.520770 0.560140 -0.620160
O8    O     O_R   0.193470 0.640360 0.504900 -0.581076
O9    O     O_R   0.027490 0.681860 0.485720 -0.595446
O10   O     O_R   0.082990 0.479230 0.439860 -0.533772
O11   O     O_R   0.917010 0.520730 0.420680 -0.568046
O12   O     O_2   0.897886 0.291068 0.809905 -0.491660
O13   O     O_3   0.173471 0.481725 0.770591 -0.685325
H18   H     H_    0.251616 0.514259 0.756130 0.351951
F1    F     F_    0.078605 0.802140 0.851909 -0.595167
O14   O     O_3   0.245565 0.775064 0.021472 -0.659641
H19   H     H_    0.259843 0.746040 0.994264 0.337775
F2    F     F_    0.802949 0.510524 0.237620 -0.614110
O15   O     O_3   0.079016 0.800634 0.952508 -0.658258
H20   H     H_    0.092066 0.865281 0.925026 0.392445
O16   O     O_3   0.448004 0.229342 0.389777 -0.701190
H21   H     H_    0.517997 0.303866 0.381372 0.386087
F3    F     F_    0.795211 0.513777 0.722403 -0.613071
F4    F     F_    0.695624 0.284756 0.416580 -0.663211
F5    F     F_    0.553790 0.281477 0.603028 -0.630323
O17   O     O_3   0.358924 0.276863 0.630626 -0.650136
H22   H     H_    0.440330 0.315264 0.649292 0.388485
O18   O     O_3   0.496008 0.695677 0.443147 -0.755112
H23   H     H_    0.522214 0.763225 0.416896 0.340782
F6    F     F_    0.193571 0.486824 0.368316 -0.636936
O19   O     O_3   0.727163 0.211365 0.033224 -0.662010
H24   H     H_    0.672461 0.155105 0.057746 0.341969
O20   O     O_3   0.880473 0.183883 0.994893 -0.668473
H25   H     H_    0.863046 0.120372 0.976418 0.341946
O21   O     O_3   0.178411 0.463959 0.669230 -0.700940
H26   H     H_    0.204309 0.415228 0.696920 0.349165

loop_
_geom_bond_atom_site_label_1
_geom_bond_atom_site_label_2
_ccdc_geom_bond_type
C10   C27   A    
C58   C62   A    
C21   C26   A    
C8    C66   A    
C1    O1    A    
C63   N3    A    
C41   C42   A    
C60   F5    S    
C24   H2    S    
C53   C54   A    
C52   C53   A    
C64   O13   S    
C2    F3    S    
Cu1   N3    S    
Cu2   O7    S    
C57   N4    A    
C60   C61   A    
C39   H9    S    
C28   C29   A    
C19   N2    A    
C5    C6    A    
C9    C22   A    
C66   H1    S    
O17   H22   S    
C20   N2    A    
O15   H20   S    
C18   C19   A    
C65   O21   S    
O16   H21   S    
C35   O15   S    
C46   C47   A    
C30   O20   S    
C16   C17   A    
C49   H4    S    
C34   O11   A    
C12   O6    A    
C8    C12   S    
C43   C48   A    
C19   O4    S    
Cu1   O10   S    
C15   H17   S    
C59   C60   A    
C6    H13   S    
C21   C22   A    
C3    N1    S    
Cu1   O6    S    
C41   C43   A    
C52   N4    A    
C7    C56   A    
C4    C7    A    
C4    C28   A    
C44   C46   A    
C17   C18   A    
Cu2   O9    S    
C38   H7    S    
C22   F6    S    
C20   O2    S    
C7    C31   A    
Cu1   Cu2   S    
C48   H6    S    
C62   H11   S    
C51   C63   A    
C24   C25   A    
C61   H15   S    
C39   C40   A    
C33   H3    S    
C26   N2    S    
C58   C59   A    
C23   C37   S    
C62   N3    A    
Cu1   O1    S    
Cu2   O5    S    
C40   H8    S    
C53   H14   S    
C43   C44   A    
Cu2   O11   S    
C37   C49   A    
C56   N1    A    
C21   H16   S    
C56   O3    S    
C16   C20   A    
Cu2   N4    S    
C37   C48   A    
C45   O12   S    
C42   C50   A    
C40   C41   A    
C23   O8    A    
C11   C32   A    
C14   O19   S    
C32   O14   S    
C46   O16   S    
C10   C14   A    
C9    C34   S    
C31   C35   A    
C36   C44   A    
C51   C59   A    
O19   H24   S    
C25   F2    S    
C1    C50   S    
C47   F4    S    
C54   C55   A    
C6    C30   A    
C4    C5    A    
C2    C66   A    
C10   C13   A    
C1    O5    A    
C9    C24   A    
C57   C61   A    
C38   C50   A    
C34   O10   A    
O14   H19   S    
C29   C35   A    
C13   C17   A    
C64   C65   A    
C55   C57   A    
C2    C3    A    
C25   C26   A    
O18   H23   S    
C32   C33   A    
C11   C13   A    
C38   C39   A    
C5    C45   A    
C45   N1    A    
C42   C47   A    
C3    C64   A    
O13   H18   S    
C18   C33   A    
C51   O17   S    
C36   H5    S    
Cu1   O8    S    
C8    C65   A    
C23   O9    A    
C11   C29   A    
C54   O18   S    
C55   C58   A    
C27   C28   A    
C14   C15   A    
C12   O7    A    
C31   F1    S    
O20   H25   S    
C52   H12   S    
C36   C49   A    
C15   C16   A    
O21   H26   S    
C27   C30   A    
C63   H10   S    
