data_mof_unit_30295.cif
_audit_creation_date              2013-03-05T15:59:34-0500
_audit_creation_method            fapswitch 2.2
_symmetry_space_group_name_H-M    P1
_symmetry_Int_Tables_number       1
_space_group_crystal_system       triclinic
_cell_length_a                    8.170052
_cell_length_b                    12.682068
_cell_length_c                    17.292557
_cell_angle_alpha                 98.74824
_cell_angle_beta                  97.198306
_cell_angle_gamma                 98.447948
_cell_volume                      1731.58528781

loop_
_atom_site_label
_atom_site_type_symbol
_atom_site_description
_atom_site_fract_x
_atom_site_fract_y
_atom_site_fract_z
_atom_type_partial_charge
P1    P     P_3+3 0.996360 0.395990 0.320310 0.477273
O1    O     O_2   0.825360 0.427200 0.308020 -0.368522
O2    O     O_3   0.099050 0.435020 0.406000 -0.412849
O3    O     O_3   0.623690 0.628090 0.355970 -0.379309
O4    O     O_2   0.738807 0.574131 0.221285 -0.405354
O5    O     O_3   0.955417 0.254358 0.298767 -0.541186
O6    O     O_3   0.540293 0.718595 0.218064 -0.525013
H1    H     H_    0.744398 0.818063 0.289412 0.168380
C1    C     C_3   0.558612 0.911530 0.249839 -0.125967
H2    H     H_    0.617553 0.983707 0.294589 0.084630
P2    P     P_3+3 0.688190 0.753610 0.561600 0.451083
P3    P     P_3+3 0.103451 0.824030 0.394846 0.434725
O7    O     O_2   0.857620 0.767930 0.537920 -0.377951
O8    O     O_3   0.055170 0.686660 0.395490 -0.385284
O9    O     O_2   0.977066 0.878734 0.439364 -0.393132
O10   O     O_3   0.729357 0.792003 0.664679 -0.576775
O11   O     O_3   0.058696 0.843382 0.296871 -0.526901
C2    C     C_3   0.110573 0.759638 0.247678 0.368112
H3    H     H_    0.034151 0.680452 0.249350 0.147813
H4    H     H_    0.244371 0.755651 0.266081 0.051951
C3    C     C_3   0.086984 0.778932 0.162640 -0.796841
H5    H     H_    0.951586 0.771679 0.140421 0.280758
H6    H     H_    0.151753 0.860944 0.158987 0.270663
C4    C     C_3   0.267487 0.787889 0.634452 0.371115
H7    H     H_    0.390316 0.770223 0.621560 0.097550
H8    H     H_    0.169810 0.754874 0.582268 0.135711
C5    C     C_3   0.275040 0.909580 0.651996 -0.887168
H9    H     H_    0.364976 0.944481 0.706353 0.261730
H10   H     H_    0.315923 0.946811 0.602228 0.228869
H11   H     H_    0.149664 0.928311 0.661174 0.272094
Ba1   Ba    Ba6+2 0.843240 0.548600 0.461650 1.543684
C6    C     C_3   0.935646 0.210146 0.367115 0.354271
H12   H     H_    0.803374 0.203902 0.375402 0.090126
H13   H     H_    0.016679 0.256474 0.421493 0.138951
C7    C     C_3   0.980645 0.097727 0.355014 -0.854827
H14   H     H_    0.896925 0.045212 0.304230 0.279698
H15   H     H_    0.968989 0.062501 0.409195 0.239298
H16   H     H_    0.110852 0.102193 0.342282 0.260350
C8    C     C_3   0.778924 0.706856 0.699273 0.419918
H17   H     H_    0.890834 0.683548 0.676094 0.098709
H18   H     H_    0.676451 0.635947 0.687636 0.129188
C9    C     C_3   0.821998 0.745188 0.788273 -0.940004
H19   H     H_    0.928452 0.813842 0.801491 0.270969
H20   H     H_    0.857423 0.678775 0.818133 0.221530
H21   H     H_    0.711971 0.772043 0.812101 0.272026
P4    P     P_3+3 0.193350 0.604100 0.679700 0.470996
O12   O     O_2   0.364350 0.572830 0.692030 -0.360810
O13   O     O_3   0.090660 0.565070 0.594010 -0.416186
O14   O     O_3   0.566030 0.372000 0.644040 -0.378049
O15   O     O_3   0.231772 0.745562 0.701620 -0.555243
P5    P     P_3+3 0.093250 0.174499 0.606326 0.441489
O16   O     O_3   0.601410 0.366560 0.460070 -0.379328
O17   O     O_3   0.134540 0.313430 0.604520 -0.386419
O18   O     O_2   0.214342 0.121032 0.557468 -0.385584
O19   O     O_3   0.154692 0.152999 0.702542 -0.522443
Ba2   Ba    Ba6+2 0.346590 0.451490 0.538360 1.542485
P6    P     P_3+3 0.577662 0.599974 0.253032 0.474058
C10   C     C_3   0.606189 0.809349 0.277051 0.280719
H22   H     H_    0.553151 0.802412 0.332378 0.036462
H23   H     H_    0.421407 0.908330 0.245705 0.125920
O20   O     O_3   0.588300 0.633530 0.539940 -0.398998
C11   C     C_3   0.400358 0.261559 0.296054 0.395509
H24   H     H_    0.293998 0.286749 0.324013 0.112199
H25   H     H_    0.497915 0.333266 0.298301 0.103486
C12   C     C_3   0.334842 0.211130 0.210094 -0.919010
H26   H     H_    0.242945 0.136269 0.207225 0.281706
H27   H     H_    0.271583 0.268216 0.179537 0.212892
H28   H     H_    0.440055 0.190490 0.179095 0.273981
P7    P     P_3+3 0.508284 0.229834 0.435710 0.418618
O21   O     O_2   0.332090 0.232110 0.462130 -0.374867
O22   O     O_3   0.469875 0.184501 0.333397 -0.585014
H29   H     H_    0.139610 0.717704 0.124654 0.221523
C13   C     C_3   0.119119 0.238162 0.756431 0.476264
H30   H     H_    0.199034 0.315626 0.753082 0.149344
H31   H     H_    0.985480 0.246597 0.744803 0.010885
C14   C     C_3   0.155993 0.214798 0.839969 -0.935520
H32   H     H_    0.291468 0.212588 0.855239 0.290904
H33   H     H_    0.121071 0.279060 0.882860 0.223319
H34   H     H_    0.082975 0.135441 0.844509 0.259063
P8    P     P_3+3 0.604990 0.386049 0.746706 0.456451
C15   C     C_3   0.604306 0.179635 0.720697 0.460257
H35   H     H_    0.708929 0.211646 0.690836 0.030463
O23   O     O_2   0.483975 0.456132 0.782257 -0.392580
O24   O     O_3   0.550419 0.259192 0.773078 -0.514619
H36   H     H_    0.497474 0.139646 0.674336 0.139581
H37   H     H_    0.777010 0.133552 0.809963 0.263679
C16   C     C_3   0.663889 0.095777 0.766681 -1.013002
H38   H     H_    0.695013 0.028078 0.725390 0.247102
H39   H     H_    0.565074 0.063669 0.799658 0.281603
C17   C     C_2   0.268320 0.499381 0.273443 -0.480167
C18   C     C_3   0.396073 0.489432 0.217642 0.196426
C19   C     C_2   0.319831 0.492243 0.133358 -0.190978
C20   C     C_2   0.151213 0.475184 0.112008 0.092453
C21   C     C_2   0.042681 0.452638 0.173738 -0.274180
C22   C     C_1   0.110653 0.455780 0.248132 0.314601
C23   C     C_R   0.892465 0.457298 0.861394 -0.271653
C24   C     C_R   0.823539 0.447047 0.782016 0.245459
C25   C     C_R   0.082563 0.539808 0.752506 0.319619
C26   C     C_R   0.153168 0.551372 0.832852 -0.254753
C27   C     C_R   0.060410 0.507422 0.888080 0.107780
C28   C     C_2   0.068872 0.471415 0.028845 -0.166074
C29   C     C_2   0.142705 0.515141 0.972128 -0.149766
C30   C     C_R   0.920268 0.483984 0.727622 -0.527463
H40   H     H_    0.270323 0.558351 0.987255 0.148234
H41   H     H_    0.907960 0.431702 0.156828 0.170106
H42   H     H_    0.812778 0.425739 0.900654 0.148710
H43   H     H_    0.940014 0.431220 0.015802 0.138208
H44   H     H_    0.403563 0.501790 0.090042 0.140297
H45   H     H_    0.279963 0.594202 0.852139 0.166300
H46   H     H_    0.307343 0.539030 0.334601 0.175295
H47   H     H_    0.865595 0.474669 0.666172 0.175011
C31   C     C_R   0.774888 0.181801 0.530888 -0.516671
C32   C     C_R   0.419089 0.808302 0.471221 -0.526289
C33   C     C_R   0.387758 0.984803 0.443223 -0.216798
C34   C     C_R   0.321135 0.876851 0.439735 0.214897
C35   C     C_R   0.580105 0.848515 0.512283 0.299206
C36   C     C_R   0.647537 0.960431 0.520070 -0.060958
C37   C     C_R   0.549789 0.028666 0.483628 -0.065486
C38   C     C_R   0.615693 0.139457 0.489516 0.271573
C39   C     C_R   0.874336 0.115604 0.564313 0.208461
C40   C     C_R   0.809719 0.006283 0.561379 -0.196719
H48   H     H_    0.309328 0.033588 0.415454 0.187147
H49   H     H_    0.888737 0.958677 0.590430 0.181461
H50   H     H_    0.825215 0.266343 0.533510 0.171539
H51   H     H_    0.366642 0.723742 0.466744 0.175349
N1    N     N_R   0.610209 0.922843 0.173292 0.296986
O25   O     O_R   0.498661 0.922851 0.112608 -0.358556
O26   O     O_R   0.767901 0.935859 0.165643 -0.375984

loop_
_geom_bond_atom_site_label_1
_geom_bond_atom_site_label_2
_geom_bond_distance
_ccdc_geom_bond_type
C28   H43   1.080225 S    
O5    C6    1.400066 S    
C16   H38   1.111217 S    
C21   H41   1.085063 S    
C28   C29   1.359689 D    
P8    C24   1.826673 S    
C5    H10   1.106561 S    
C2    C3    1.520436 S    
P2    O7    1.485808 D    
C13   H30   1.110436 S    
Ba1   O20   2.872913 S    
C7    H14   1.104684 S    
C14   H34   1.110973 S    
Ba1   O16   2.803798 S    
P8    O24   1.748818 S    
C33   C34   1.386331 A    
C17   C22   1.316227 D    
C8    H18   1.109791 S    
C20   C21   1.504354 S    
C30   H47   1.081672 S    
C7    H15   1.106184 S    
C14   H33   1.110482 S    
P1    O1    1.505762 D    
C32   H51   1.082150 S    
C25   C30   1.390345 A    
C26   H45   1.082770 S    
P1    Ba1   3.365015 S    
C35   C36   1.424655 A    
O11   C2    1.406772 S    
C2    H3    1.108282 S    
P2    O10   1.750750 S    
P7    O22   1.748639 S    
C36   C40   1.419215 A    
C37   C38   1.412409 A    
C11   H25   1.110094 S    
O16   P7    1.752944 S    
H1    C10   1.108416 S    
C19   H44   1.084156 S    
C12   H27   1.108297 S    
O3    P6    1.742683 S    
C4    C5    1.517401 S    
Ba1   Ba2   4.485363 S    
P5    O18   1.544251 D    
C1    H2    1.109156 S    
O8    Ba1   2.754552 S    
O6    C10   1.406480 S    
C2    H4    1.110288 S    
P3    C34   1.833063 S    
P4    C25   1.857460 S    
P2    Ba1   3.391350 S    
C3    H5    1.110241 S    
C5    H11   1.109788 S    
C13   H31   1.108972 S    
P7    O21   1.566773 D    
C9    H20   1.107357 S    
P8    O23   1.545881 D    
C15   H35   1.111084 S    
C8    C9    1.521584 S    
C4    O15   1.396771 S    
P4    O13   1.577321 S    
C3    H29   1.110414 S    
P1    O5    1.750896 S    
C6    C7    1.514641 S    
C7    H16   1.108216 S    
C4    H7    1.101767 S    
C20   C28   1.500053 S    
C8    H17   1.104175 S    
C31   C39   1.389002 A    
H37   C16   1.109657 S    
C10   H22   1.108683 S    
P7    C38   1.834341 S    
O1    Ba1   2.835844 S    
P1    O2    1.577320 S    
C9    H21   1.110824 S    
C6    H13   1.108771 S    
P3    O11   1.749852 S    
C29   H40   1.084436 S    
C11   H24   1.109411 S    
O2    Ba2   2.818331 S    
C26   C27   1.419950 A    
P3    O9    1.545106 D    
P1    C22   1.837584 S    
C12   H28   1.110715 S    
C23   C24   1.395959 A    
C27   C29   1.505485 S    
P5    C39   1.844274 S    
C24   C30   1.392926 A    
C14   H32   1.110733 S    
O2    Ba1   2.887190 S    
P2    C35   1.841609 S    
C33   C37   1.408434 A    
P3    O8    1.730853 S    
C12   H26   1.111043 S    
Ba2   O21   2.870668 S    
Ba1   O13   2.817736 S    
C3    H6    1.110141 S    
C13   C14   1.520775 S    
C9    H19   1.110810 S    
C17   H46   1.086095 S    
C18   C19   1.519335 S    
C15   O24   1.408814 S    
C39   C40   1.400097 A    
O17   Ba2   2.755126 S    
O13   Ba2   2.888012 S    
C23   H42   1.077873 S    
P4    O12   1.506126 D    
C1    C10   1.529535 S    
N1    O26   1.300566 A    
P6    C18   1.855072 S    
C11   C12   1.521827 S    
O7    Ba1   2.870469 S    
C4    H8    1.110357 S    
P2    O20   1.584345 S    
C31   C38   1.391617 A    
C31   H50   1.082444 S    
O14   Ba2   2.800098 S    
P4    O15   1.748895 S    
C1    N1    1.459546 S    
O14   P8    1.740819 S    
O4    P6    1.547681 D    
C1    H23   1.108599 S    
C6    H12   1.100809 S    
C32   C35   1.397671 A    
C16   H39   1.110039 S    
C36   C37   1.423578 A    
C15   C16   1.520737 S    
C17   C18   1.513442 S    
N1    O25   1.300824 A    
C23   C27   1.412643 A    
C33   H48   1.074107 S    
C19   C20   1.357063 D    
C11   O22   1.399192 S    
P5    O19   1.750295 S    
C21   C22   1.328084 D    
C40   H49   1.076648 S    
O3    Ba1   2.800647 S    
O10   C8    1.397219 S    
O19   C13   1.404754 S    
C25   C26   1.413148 A    
P4    Ba2   3.365549 S    
C5    H9    1.106411 S    
Ba2   O20   2.803229 S    
P5    O17   1.750407 S    
O6    P6    1.757082 S    
C15   H36   1.110240 S    
O16   Ba2   2.872092 S    
O12   Ba2   2.836274 S    
C32   C34   1.389922 A    
