data_mof_unit_29613.cif
_audit_creation_date              2012-10-26T21:33:17-0400
_audit_creation_method            fapswitch 2.2
_symmetry_space_group_name_H-M    P1
_symmetry_Int_Tables_number       1
_space_group_crystal_system       triclinic
_cell_length_a                    28.240235
_cell_length_b                    18.477185
_cell_length_c                    17.079659
_cell_angle_alpha                 90.272435
_cell_angle_beta                  60.693064
_cell_angle_gamma                 90.39104
_cell_volume                      7771.30761613

loop_
_atom_site_label
_atom_site_type_symbol
_atom_type_description
_atom_site_fract_x
_atom_site_fract_y
_atom_site_fract_z
_atom_type_partial_charge
C1    C     C_R   0.701847 0.268804 0.675731 0.878849
C2    C     C_R   0.093946 0.501268 0.518346 0.074391
C3    C     C_R   0.189671 0.218328 0.905536 0.066741
C4    C     C_R   0.073913 0.099826 0.934152 0.904241
C5    C     C_R   0.926087 0.900174 0.065848 0.904240
C6    C     C_R   0.925884 0.099477 0.066203 0.902638
C7    C     C_R   0.074116 0.900523 0.933797 0.902637
C8    C     C_R   0.573913 0.599826 0.934152 0.904235
C9    C     C_R   0.426086 0.400174 0.065848 0.904237
C10   C     C_R   0.425884 0.599477 0.066203 0.902632
C11   C     C_R   0.574116 0.400523 0.933796 0.902634
C12   C     C_R   0.522734 0.120131 0.580131 -0.061686
C13   C     C_R   0.406055 0.998732 0.481652 0.074389
C14   C     C_R   0.477266 0.879869 0.419869 -0.061684
C15   C     C_R   0.427157 0.117194 0.565631 -0.059651
C16   C     C_R   0.572843 0.882805 0.434370 -0.059649
C17   C     C_R   0.022726 0.620123 0.580154 -0.061679
C18   C     C_R   0.977273 0.379876 0.419849 -0.061679
C19   C     C_R   0.927147 0.617184 0.565659 -0.059644
C20   C     C_R   0.072851 0.382813 0.434347 -0.059644
C21   C     C_R   0.485328 0.177740 0.615032 0.337069
C22   C     C_R   0.514671 0.822259 0.384971 0.337068
C23   C     C_R   0.437648 0.176134 0.608209 0.322797
C24   C     C_R   0.593945 0.001268 0.518348 0.074389
C25   C     C_R   0.562351 0.823865 0.391794 0.322796
C26   C     C_R   0.985311 0.677720 0.615084 0.337081
C27   C     C_R   0.014686 0.322276 0.384925 0.337083
C28   C     C_R   0.937628 0.676113 0.608267 0.322802
C29   C     C_R   0.062367 0.323882 0.391747 0.322805
C30   C     C_R   0.464030 0.059121 0.531744 -0.024791
C31   C     C_R   0.535970 0.940879 0.468256 -0.024793
C32   C     C_R   0.511381 0.060230 0.539868 -0.029745
C33   C     C_R   0.488619 0.939770 0.460132 -0.029747
C34   C     C_R   0.964025 0.559117 0.531757 -0.024793
C35   C     C_R   0.119213 0.384573 0.444686 -0.159961
C36   C     C_R   0.035973 0.440882 0.468246 -0.024794
C37   C     C_R   0.011377 0.560226 0.539879 -0.029748
C38   C     C_R   0.988622 0.439773 0.460123 -0.029749
C39   C     C_R   0.952875 0.499107 0.491398 0.040516
C40   C     C_R   0.047124 0.500893 0.508604 0.040516
C41   C     C_R   0.452876 0.999107 0.491395 0.040515
C42   C     C_R   0.547124 0.000893 0.508604 0.040515
C43   C     C_R   0.891992 0.436912 0.448665 0.035008
C44   C     C_R   0.108007 0.563088 0.551335 0.035008
C45   C     C_R   0.127768 0.440342 0.493214 0.024977
C46   C     C_R   0.880785 0.615425 0.555318 -0.159966
C47   C     C_R   0.872231 0.559657 0.506788 0.024977
C48   C     C_R   0.391992 0.936911 0.448667 0.035003
C49   C     C_R   0.608008 0.063088 0.551332 0.035005
C50   C     C_R   0.627766 0.940341 0.493219 0.024977
C51   C     C_R   0.372234 0.059659 0.506781 0.024978
C52   C     C_R   0.841203 0.435909 0.449818 -0.123615
C53   C     C_R   0.158796 0.564091 0.550182 -0.123614
C54   C     C_R   0.169442 0.438137 0.517315 -0.112309
C55   C     C_R   0.830557 0.561863 0.482685 -0.112309
C56   C     C_R   0.341203 0.935909 0.449818 -0.123616
C57   C     C_R   0.928652 0.378876 0.415638 -0.152882
C58   C     C_R   0.658797 0.064091 0.550181 -0.123616
C59   C     C_R   0.669442 0.938137 0.517318 -0.112307
C60   C     C_R   0.330559 0.061863 0.482682 -0.112307
C61   C     C_R   0.815163 0.499862 0.456017 -0.277722
C62   C     C_R   0.184837 0.500138 0.543982 -0.277724
C63   C     C_R   0.315164 0.999862 0.456016 -0.277730
C64   C     C_R   0.684836 0.000138 0.543983 -0.277731
C65   C     C_R   0.071348 0.621124 0.584363 -0.152882
C66   C     C_R   0.619208 0.884568 0.444700 -0.159954
C67   C     C_R   0.380793 0.115431 0.555300 -0.159956
C68   C     C_R   0.428648 0.878872 0.415649 -0.152882
C69   C     C_R   0.298152 0.731196 0.324269 0.878849
C70   C     C_R   0.571352 0.121127 0.584351 -0.152884
C71   C     C_R   0.720619 0.264996 0.953712 0.108583
C72   C     C_R   0.279380 0.735004 0.046288 0.108587
C73   C     C_R   0.279342 0.264080 0.046475 0.074652
C74   C     C_R   0.720659 0.735919 0.953524 0.074647
C75   C     C_R   0.220619 0.764996 0.953712 0.108587
C76   C     C_R   0.779381 0.235004 0.046288 0.108584
C77   C     C_R   0.779341 0.764080 0.046475 0.074649
C78   C     C_R   0.220659 0.235919 0.953524 0.074653
C79   C     C_R   0.777806 0.263954 0.907839 -0.166170
C80   C     C_R   0.298167 0.268763 0.324145 0.878707
C81   C     C_R   0.222193 0.736037 0.092161 -0.166172
C82   C     C_R   0.222256 0.266438 0.091616 -0.139686
C83   C     C_R   0.777745 0.733558 0.908384 -0.139675
C84   C     C_R   0.277807 0.763963 0.907839 -0.166169
C85   C     C_R   0.722194 0.236046 0.092161 -0.166169
C86   C     C_R   0.722256 0.766440 0.091616 -0.139710
C87   C     C_R   0.277745 0.233560 0.908383 -0.139708
C88   C     C_R   0.806701 0.249170 0.953382 -0.167900
C89   C     C_R   0.193298 0.750822 0.046617 -0.167902
C90   C     C_R   0.193323 0.252488 0.045841 -0.143651
C91   C     C_R   0.701833 0.731236 0.675855 0.878709
C92   C     C_R   0.806678 0.747509 0.954159 -0.143643
C93   C     C_R   0.306702 0.749178 0.953382 -0.167901
C94   C     C_R   0.693299 0.250830 0.046618 -0.167900
C95   C     C_R   0.693323 0.752489 0.045840 -0.143676
C96   C     C_R   0.306678 0.247511 0.954158 -0.143674
C97   C     C_R   0.643568 0.326912 0.945950 -0.196526
C98   C     C_R   0.356433 0.673089 0.054048 -0.196525
C99   C     C_R   0.356773 0.325473 0.053719 -0.185432
C100  C     C_R   0.643227 0.674526 0.946280 -0.185432
C101  C     C_R   0.143567 0.826911 0.945952 -0.196528
C102  C     C_R   0.201848 0.768804 0.675731 0.878851
C103  C     C_R   0.856432 0.173088 0.054050 -0.196529
C104  C     C_R   0.856773 0.825473 0.053719 -0.185422
C105  C     C_R   0.143227 0.174526 0.946280 -0.185423
C106  C     C_R   0.616536 0.347303 0.898304 -0.069546
C107  C     C_R   0.383464 0.652698 0.101695 -0.069546
C108  C     C_R   0.383782 0.346495 0.101286 -0.069578
C109  C     C_R   0.616218 0.653505 0.898713 -0.069577
C110  C     C_R   0.116536 0.847302 0.898305 -0.069545
C111  C     C_R   0.883464 0.152697 0.101696 -0.069546
C112  C     C_R   0.883783 0.846494 0.101286 -0.069576
C113  C     C_R   0.798152 0.231196 0.324268 0.878850
C114  C     C_R   0.116218 0.153505 0.898713 -0.069575
C115  C     C_R   0.633204 0.322128 0.813185 -0.246595
C116  C     C_R   0.366796 0.677871 0.186815 -0.246597
C117  C     C_R   0.367031 0.321773 0.186517 -0.256409
C118  C     C_R   0.632969 0.678227 0.813483 -0.256410
C119  C     C_R   0.133204 0.822128 0.813185 -0.246586
C120  C     C_R   0.866796 0.177872 0.186815 -0.246586
C121  C     C_R   0.867031 0.821772 0.186517 -0.256410
C122  C     C_R   0.132969 0.178227 0.813483 -0.256410
C123  C     C_R   0.679478 0.281570 0.770856 -0.054937
C124  C     C_R   0.798167 0.768763 0.324145 0.878707
C125  C     C_R   0.320521 0.718429 0.229144 -0.054936
C126  C     C_R   0.320436 0.281330 0.229122 -0.057388
C127  C     C_R   0.679565 0.718669 0.770877 -0.057389
C128  C     C_R   0.179479 0.781571 0.770856 -0.054937
C129  C     C_R   0.820522 0.218430 0.229144 -0.054938
C130  C     C_R   0.820436 0.781330 0.229122 -0.057386
C131  C     C_R   0.179564 0.218670 0.770878 -0.057386
C132  C     C_R   0.707480 0.260168 0.816898 -0.190601
C133  C     C_R   0.292519 0.739830 0.183102 -0.190601
C134  C     C_R   0.292114 0.259743 0.183345 -0.184433
C135  C     C_R   0.201833 0.231237 0.675855 0.878707
C136  C     C_R   0.707887 0.740255 0.816654 -0.184428
C137  C     C_R   0.207481 0.760169 0.816898 -0.190599
C138  C     C_R   0.792520 0.239832 0.183102 -0.190599
C139  C     C_R   0.792114 0.759743 0.183345 -0.184440
C140  C     C_R   0.207886 0.240256 0.816654 -0.184439
C141  C     C_R   0.691106 0.129593 0.535699 0.881006
C142  C     C_R   0.308894 0.870407 0.464301 0.881008
C143  C     C_R   0.303253 0.127724 0.482669 0.887351
C144  C     C_R   0.696747 0.872276 0.517331 0.887352
C145  C     C_R   0.191106 0.629593 0.535699 0.881008
C146  C     C_R   0.906053 0.498731 0.481655 0.074392
C147  C     C_R   0.808894 0.370407 0.464300 0.881008
C148  C     C_R   0.803252 0.627723 0.482671 0.887352
C149  C     C_R   0.196747 0.372276 0.517329 0.887352
C150  C     C_R   0.689666 0.282796 0.905600 0.070662
C151  C     C_R   0.310333 0.717203 0.094399 0.070659
C152  C     C_R   0.310330 0.281671 0.094463 0.066742
C153  C     C_R   0.689671 0.718327 0.905536 0.066741
C154  C     C_R   0.189667 0.782797 0.905601 0.070660
C155  C     C_R   0.810334 0.217204 0.094399 0.070663
C156  C     C_R   0.810330 0.781671 0.094463 0.066740
Cl1   Cl    Cl    0.107750 0.249922 0.348736 -0.607761
Cl2   Cl    Cl    0.892235 0.750067 0.651306 -0.607785
Cl3   Cl    Cl    0.002578 0.247065 0.332232 -0.578716
Cl4   Cl    Cl    0.997417 0.752931 0.667780 -0.578713
Cl5   Cl    Cl    0.607714 0.749884 0.348842 -0.607667
Cl6   Cl    Cl    0.392283 0.250112 0.651168 -0.607678
Cl7   Cl    Cl    0.502545 0.747022 0.332330 -0.578676
Cl8   Cl    Cl    0.497453 0.252976 0.667678 -0.578677
H1    H     H_    0.780122 0.500311 0.445905 0.198615
H2    H     H_    0.350402 0.156490 0.587934 0.213759
H3    H     H_    0.420132 0.834283 0.383273 0.209878
H4    H     H_    0.579868 0.165717 0.616727 0.209878
H5    H     H_    0.649356 0.250173 0.084149 0.136662
H6    H     H_    0.350645 0.749842 0.915853 0.136663
H7    H     H_    0.350574 0.244467 0.917387 0.169082
H8    H     H_    0.649427 0.755535 0.082611 0.169078
H9    H     H_    0.149355 0.750158 0.084147 0.136660
H10   H     H_    0.850643 0.249827 0.915851 0.136661
H11   H     H_    0.850574 0.744463 0.917389 0.169128
H12   H     H_    0.219879 0.499689 0.554094 0.198616
H13   H     H_    0.149427 0.255532 0.082611 0.169119
H14   H     H_    0.800435 0.276038 0.836806 0.138289
H15   H     H_    0.199563 0.723946 0.163193 0.138288
H16   H     H_    0.199918 0.280662 0.162054 0.184093
H17   H     H_    0.800084 0.719334 0.837945 0.184117
H18   H     H_    0.300437 0.776054 0.836807 0.138292
H19   H     H_    0.699565 0.223962 0.163194 0.138291
H20   H     H_    0.699917 0.780664 0.162054 0.184023
H21   H     H_    0.300084 0.219337 0.837944 0.184031
H22   H     H_    0.630329 0.348234 0.012633 0.154172
H23   H     H_    0.280122 0.000311 0.445905 0.198614
H24   H     H_    0.369673 0.651769 0.987365 0.154173
H25   H     H_    0.370175 0.346273 0.986872 0.166301
H26   H     H_    0.629826 0.653726 0.013128 0.166301
H27   H     H_    0.130327 0.848231 0.012635 0.154171
H28   H     H_    0.869671 0.151766 0.987367 0.154170
H29   H     H_    0.870175 0.846273 0.986872 0.166309
H30   H     H_    0.129826 0.153725 0.013127 0.166306
H31   H     H_    0.612199 0.338527 0.777376 0.191687
H32   H     H_    0.387801 0.661473 0.222624 0.191687
H33   H     H_    0.388167 0.338533 0.222254 0.182000
H34   H     H_    0.719878 0.999689 0.554094 0.198614
H35   H     H_    0.611833 0.661468 0.777746 0.182001
H36   H     H_    0.112199 0.838526 0.777376 0.191687
H37   H     H_    0.887801 0.161473 0.222624 0.191687
H38   H     H_    0.888167 0.838532 0.222254 0.181997
H39   H     H_    0.111832 0.161468 0.777746 0.181997
H40   H     H_    0.743668 0.227372 0.783190 0.155688
H41   H     H_    0.256330 0.772624 0.216811 0.155689
H42   H     H_    0.255424 0.227430 0.217274 0.180676
H43   H     H_    0.744577 0.772568 0.782725 0.180685
H44   H     H_    0.243670 0.727375 0.783189 0.155693
H45   H     H_    0.149604 0.343514 0.412056 0.213760
H46   H     H_    0.756332 0.272628 0.216809 0.155691
H47   H     H_    0.755424 0.727430 0.217274 0.180663
H48   H     H_    0.244577 0.272569 0.782726 0.180664
H49   H     H_    0.850394 0.656484 0.587947 0.213760
H50   H     H_    0.920135 0.334286 0.383263 0.209878
H51   H     H_    0.079865 0.665713 0.616738 0.209877
H52   H     H_    0.649599 0.843510 0.412065 0.213757
O1    O     O_R   0.746490 0.236330 0.638080 -0.634851
O2    O     O_R   0.325830 0.813840 0.483730 -0.622185
O3    O     O_R   0.325830 0.186160 0.483730 -0.625236
O4    O     O_R   0.674170 0.813840 0.516270 -0.625234
O5    O     O_R   0.174170 0.686160 0.516270 -0.622196
O6    O     O_R   0.825830 0.313840 0.483730 -0.622194
O7    O     O_R   0.825830 0.686160 0.483730 -0.625253
O8    O     O_R   0.174170 0.313840 0.516270 -0.625247
O9    O     O_R   0.739960 0.127620 0.525000 -0.622504
O10   O     O_R   0.260040 0.872380 0.475000 -0.622504
O11   O     O_R   0.260040 0.127620 0.475000 -0.626870
O12   O     O_R   0.253510 0.763670 0.361920 -0.634852
O13   O     O_R   0.739960 0.872380 0.525000 -0.626871
O14   O     O_R   0.239960 0.627620 0.525000 -0.622497
O15   O     O_R   0.760040 0.372380 0.475000 -0.622497
O16   O     O_R   0.760040 0.627620 0.475000 -0.626862
O17   O     O_R   0.239960 0.372380 0.525000 -0.626862
O18   O     O_R   0.680700 0.294870 0.629350 -0.617015
O19   O     O_R   0.319300 0.705130 0.370650 -0.617015
O20   O     O_R   0.319300 0.294870 0.370650 -0.626252
O21   O     O_R   0.680700 0.705130 0.629350 -0.626252
O22   O     O_R   0.180700 0.794870 0.629350 -0.617024
O23   O     O_R   0.253510 0.236330 0.361920 -0.623768
O24   O     O_R   0.819300 0.205130 0.370650 -0.617023
O25   O     O_R   0.819300 0.794870 0.370650 -0.626260
O26   O     O_R   0.180700 0.205130 0.629350 -0.626259
O27   O     O_R   0.062020 0.072840 0.007170 -0.616443
O28   O     O_R   0.937980 0.927160 0.992830 -0.616442
O29   O     O_R   0.937980 0.072840 0.992830 -0.627398
O30   O     O_R   0.062020 0.927160 0.007170 -0.627398
O31   O     O_R   0.562020 0.572840 0.007170 -0.616447
O32   O     O_R   0.437980 0.427160 0.992830 -0.616446
O33   O     O_R   0.437980 0.572840 0.992830 -0.627394
O34   O     O_R   0.746490 0.763670 0.638080 -0.623768
O35   O     O_R   0.562020 0.427160 0.007170 -0.627395
O36   O     O_R   0.947860 0.073950 0.109290 -0.612578
O37   O     O_R   0.052140 0.926050 0.890710 -0.612578
O38   O     O_R   0.052140 0.073950 0.890710 -0.623969
O39   O     O_R   0.947860 0.926050 0.109290 -0.623970
O40   O     O_R   0.447860 0.573950 0.109290 -0.612579
O41   O     O_R   0.552140 0.426050 0.890710 -0.612579
O42   O     O_R   0.552140 0.573950 0.890710 -0.623965
O43   O     O_R   0.447860 0.426050 0.109290 -0.623965
O44   O     O_R   0.246490 0.736330 0.638080 -0.634845
O45   O     O_R   0.753510 0.263670 0.361920 -0.634845
O46   O     O_R   0.753510 0.736330 0.361920 -0.623763
O47   O     O_R   0.246490 0.263670 0.638080 -0.623764
O48   O     O_R   0.674170 0.186160 0.516270 -0.622185
Zn1   Zn    Zn3+2 0.792340 0.208750 0.507670 1.009315
Zn2   Zn    Zn3+2 0.494040 0.500000 0.919480 0.995233
Zn3   Zn    Zn3+2 0.005960 0.000000 0.080520 0.995221
Zn4   Zn    Zn3+2 0.994040 0.000000 0.919480 0.995223
Zn5   Zn    Zn3+2 0.207660 0.791250 0.492330 1.009311
Zn6   Zn    Zn3+2 0.207660 0.208750 0.492330 1.023049
Zn7   Zn    Zn3+2 0.792340 0.791250 0.507670 1.023038
Zn8   Zn    Zn3+2 0.292340 0.708750 0.507670 1.009359
Zn9   Zn    Zn3+2 0.707660 0.291250 0.492330 1.009356
Zn10  Zn    Zn3+2 0.707660 0.708750 0.492330 1.023094
Zn11  Zn    Zn3+2 0.292340 0.291250 0.507670 1.023090
Zn12  Zn    Zn3+2 0.505960 0.500000 0.080520 0.995232

loop_
_geom_bond_atom_site_label_1
_geom_bond_atom_site_label_2
_ccdc_geom_bond_type
C100  C153  A    
C122  H39   S    
C145  O14   A    
O47   Zn11  S    
C77   C92   A    
C135  O47   A    
C69   O12   A    
C31   C42   A    
C64   H34   S    
C123  C132  A    
C27   C29   A    
C34   C37   A    
C24   C42   A    
C6    C111  S    
C80   O20   A    
C6    O29   A    
O21   Zn10  S    
C133  C151  A    
O42   Zn2   S    
C4    O38   A    
C74   C83   A    
C53   C145  S    
C14   C33   A    
C13   C41   A    
C10   C107  S    
C19   C46   A    
O5    Zn5   S    
C87   H21   S    
C71   C94   A    
C26   C28   A    
C3    C105  A    
C16   C31   A    
C83   C92   A    
C7    O30   A    
O38   Zn4   S    
C59   C64   A    
C75   C84   A    
O18   Zn9   S    
C113  C129  S    
C120  C129  A    
C60   C63   A    
C10   O40   A    
C17   C26   A    
O26   Zn6   S    
C80   O23   A    
C4    C114  S    
C148  O7    A    
O27   Zn3   S    
C121  H38   S    
C144  O4    A    
C37   C40   A    
C131  C135  S    
C52   C61   A    
C94   H5    S    
C38   C39   A    
C43   C52   A    
C134  H42   S    
C71   C150  S    
C145  O5    A    
C130  C139  A    
C133  H41   S    
O17   Zn11  S    
C55   C61   A    
C134  C152  A    
C16   C25   A    
C88   H10   S    
O15   Zn9   S    
C103  C111  A    
C85   C94   A    
C9    O32   A    
C142  O2    A    
C98   H24   S    
C131  C140  A    
C18   C57   A    
O12   Zn5   S    
C13   C51   A    
C20   C35   A    
C147  O15   A    
C44   C53   A    
C113  O24   A    
C76   C85   A    
C129  C138  A    
C8    O31   A    
C2    C44   A    
C96   H7    S    
C136  C153  A    
C69   O19   A    
C97   C150  A    
C31   C33   A    
C30   C41   A    
C26   Cl4   S    
C132  C150  A    
C148  O16   A    
C149  O8    A    
C89   H9    S    
C95   H8    S    
C76   C88   A    
C4    O27   A    
C72   C81   A    
C20   C29   A    
C23   Cl6   S    
C56   C142  S    
C119  C128  A    
C72   C151  S    
C15   C23   A    
C90   H13   S    
C69   C125  S    
C100  C109  A    
C85   H19   S    
C21   Cl8   S    
C12   C32   A    
C86   H20   S    
C120  H37   S    
C44   C65   A    
C105  H30   S    
O34   Zn7   S    
C118  H35   S    
C74   C95   A    
C126  C134  A    
O9    Zn1   S    
C79   C88   A    
C109  C118  A    
C142  O10   A    
C54   C149  S    
C98   C151  A    
C2    C45   A    
C141  O9    A    
C97   H22   S    
O46   Zn10  S    
C93   H6    S    
C102  O22   A    
C115  C123  A    
C18   C27   A    
O4    Zn10  S    
C119  H36   S    
C140  H48   S    
O16   Zn10  S    
C105  C114  A    
C36   C40   A    
C127  C136  A    
C81   H15   S    
C104  C112  A    
C25   Cl5   S    
C99   H25   S    
O6    Zn1   S    
C77   C156  S    
C29   Cl1   S    
C54   C62   A    
C58   C64   A    
C139  H47   S    
O19   Zn8   S    
C18   C38   A    
C84   H18   S    
C12   C21   A    
C138  H46   S    
C11   O35   A    
C71   C79   A    
C34   C39   A    
C74   C153  S    
C83   H17   S    
C111  C120  A    
C9    C108  S    
C114  C122  A    
O33   Zn2   S    
O44   Zn8   S    
O22   Zn5   S    
C115  H31   S    
C128  C137  A    
C1    C123  S    
O7    Zn7   S    
C99   C108  A    
C70   H4    S    
C13   C48   A    
C50   C66   A    
C53   C62   A    
C144  O13   A    
O36   Zn3   S    
C124  O46   A    
C1    O18   A    
C104  H29   S    
C46   H49   S    
C15   C67   A    
C87   C96   A    
C91   O21   A    
C11   C106  S    
C28   Cl2   S    
C79   H14   S    
C124  C130  S    
O43   Zn12  S    
C121  C130  A    
C113  O45   A    
O35   Zn12  S    
C19   C28   A    
C101  C110  A    
C24   C50   A    
C77   C86   A    
C132  H40   S    
C91   C127  S    
C101  H27   S    
C72   C93   A    
C67   H2    S    
C103  C155  A    
C92   H11   S    
C22   C25   A    
C39   C146  A    
C59   C144  S    
C52   C147  S    
C63   H23   S    
C116  C125  A    
C9    O43   A    
C73   C152  S    
C101  C154  A    
O1    Zn1   S    
C104  C156  A    
O29   Zn4   S    
C16   C66   A    
C49   C58   A    
C50   C59   A    
O30   Zn3   S    
C35   C45   A    
C78   C87   A    
C11   O41   A    
C122  C131  A    
C116  H32   S    
C117  H33   S    
C135  O26   A    
C15   C30   A    
C47   C55   A    
O37   Zn4   S    
C117  C126  A    
C125  C133  A    
C24   C49   A    
C48   C56   A    
C138  C155  A    
C12   C70   A    
C46   C47   A    
C32   C42   A    
O23   Zn6   S    
O45   Zn9   S    
C17   C65   A    
C108  C117  A    
C100  H26   S    
O41   Zn2   S    
C143  O11   A    
C48   C68   A    
C19   C34   A    
C110  C119  A    
C45   C54   A    
C136  H43   S    
C124  O25   A    
C65   H51   S    
C103  H28   S    
C5    C112  S    
C17   C37   A    
C99   C152  A    
C76   C155  S    
C102  C128  S    
O48   Zn9   S    
C82   C90   A    
C7    C110  S    
C6    O36   A    
C106  C115  A    
C49   C70   A    
C10   O33   A    
C33   C41   A    
O20   Zn11  S    
C51   C60   A    
C21   C23   A    
C35   H45   S    
C81   C89   A    
C112  C121  A    
O10   Zn5   S    
C43   C146  A    
C8    C109  S    
C36   C38   A    
C30   C32   A    
C22   Cl7   S    
O13   Zn7   S    
C58   C141  S    
C14   C22   A    
C55   C148  S    
C51   C67   A    
C80   C126  S    
C139  C156  A    
C78   C90   A    
C66   H52   S    
O3    Zn11  S    
C56   C63   A    
C75   C154  S    
C147  O6    A    
C141  O48   A    
O8    Zn6   S    
C102  O44   A    
C73   C82   A    
O14   Zn8   S    
C61   H1    S    
C84   C93   A    
C5    O28   A    
C8    O42   A    
C5    O39   A    
O24   Zn1   S    
O11   Zn6   S    
C149  O17   A    
C60   C143  S    
C47   C146  A    
O2    Zn8   S    
C86   C95   A    
C43   C57   A    
C143  O3    A    
C20   C36   A    
C68   H3    S    
C2    C40   A    
C107  C116  A    
O32   Zn2   S    
C57   H50   S    
O39   Zn3   S    
C118  C127  A    
C75   C89   A    
C82   H16   S    
C14   C68   A    
O40   Zn12  S    
C1    O1    A    
C3    C140  A    
O25   Zn7   S    
C73   C96   A    
O28   Zn4   S    
O31   Zn12  S    
C3    C78   S    
C27   Cl3   S    
C137  C154  A    
C91   O34   A    
C7    O37   A    
C62   H12   S    
C98   C107  A    
C137  H44   S    
C97   C106  A    
