data_mof_unit_26241.cif
_audit_creation_date              2013-03-05T15:40:32-0500
_audit_creation_method            fapswitch 2.2
_symmetry_space_group_name_H-M    P1
_symmetry_Int_Tables_number       1
_space_group_crystal_system       triclinic
_cell_length_a                    12.133501
_cell_length_b                    12.291928
_cell_length_c                    23.498119
_cell_angle_alpha                 90.647622
_cell_angle_beta                  90.304365
_cell_angle_gamma                 91.963239
_cell_volume                      3502.26843786

loop_
_atom_site_label
_atom_site_type_symbol
_atom_site_description
_atom_site_fract_x
_atom_site_fract_y
_atom_site_fract_z
_atom_type_partial_charge
O1    O     O_R   0.621380 0.090460 0.561410 -0.631938
O2    O     O_R   0.378620 0.909540 0.438590 -0.632381
O3    O     O_R   0.617150 0.909540 0.438590 -0.577441
O4    O     O_R   0.382850 0.090460 0.561410 -0.577056
O5    O     O_R   0.619720 0.093230 0.440890 -0.579363
O6    O     O_R   0.380280 0.906770 0.559110 -0.582236
O7    O     O_R   0.618800 0.906770 0.559110 -0.552559
O8    O     O_R   0.381200 0.093230 0.440890 -0.553882
C1    C     C_R   0.658436 0.998231 0.578011 0.863338
C2    C     C_R   0.341345 0.001766 0.422162 0.864468
C3    C     C_R   0.653386 0.002320 0.420578 0.905269
C4    C     C_R   0.346418 0.997659 0.579461 0.908096
Zn1   Zn    Zn3+2 0.501730 0.123520 0.501540 1.189257
Zn2   Zn    Zn3+2 0.498270 0.876480 0.498460 1.189372
C5    C     C_R   0.101819 0.088710 0.334765 -0.195989
C6    C     C_R   0.898038 0.912205 0.665683 -0.205221
C7    C     C_R   0.181586 0.090991 0.376795 -0.042457
C8    C     C_R   0.818886 0.910124 0.623343 -0.037445
C9    C     C_R   0.897822 0.933651 0.335175 -0.103234
C10   C     C_R   0.100398 0.065558 0.664447 -0.128722
C11   C     C_R   0.819196 0.929636 0.376856 0.302889
C12   C     C_R   0.179056 0.069092 0.622629 0.304116
C13   C     C_R   0.086053 0.192174 0.207589 0.033339
C14   C     C_R   0.915994 0.807321 0.792470 0.029055
C15   C     C_R   0.075365 0.280222 0.170248 -0.066811
C16   C     C_R   0.928576 0.718809 0.829150 -0.027504
C17   C     C_R   0.915274 0.815263 0.209096 0.265648
C18   C     C_R   0.079717 0.188535 0.789586 0.228800
C19   C     C_R   0.915284 0.735075 0.165875 -0.122125
C20   C     C_R   0.079471 0.269772 0.832255 -0.169601
C21   C     C_R   0.087517 0.894508 0.170638 0.235227
C22   C     C_R   0.916363 0.101591 0.833645 0.197554
C23   C     C_R   0.087645 0.812440 0.129532 0.229971
C24   C     C_R   0.926491 0.175185 0.878897 0.238029
C25   C     C_R   0.916305 0.106970 0.165783 -0.095035
C26   C     C_R   0.081521 0.896603 0.836634 -0.106550
C27   C     C_R   0.907684 0.195251 0.129373 -0.087287
C28   C     C_R   0.078684 0.817768 0.879119 -0.121828
C29   C     C_R   0.165087 0.917014 0.298695 -0.087322
C30   C     C_R   0.830482 0.080780 0.703690 -0.078295
C31   C     C_R   0.244140 0.916892 0.341205 -0.119647
C32   C     C_R   0.751918 0.081054 0.660825 -0.127034
H1    H     H_    0.297331 0.848064 0.343885 0.191383
H2    H     H_    0.696827 0.148485 0.658865 0.189681
C33   C     C_R   0.822110 0.097797 0.296579 -0.190409
C34   C     C_R   0.178267 0.903884 0.704517 -0.096670
C35   C     C_R   0.734355 0.086791 0.334978 0.255807
C36   C     C_R   0.265792 0.914425 0.665801 0.256161
C37   C     C_3   0.999166 0.006490 0.250078 -0.036640
C38   C     C_3   0.000072 0.994291 0.750582 -0.022078
C39   C     C_R   0.096636 0.006671 0.292269 0.033416
C40   C     C_R   0.901909 0.993146 0.708792 0.036224
C41   C     C_R   0.254756 0.004112 0.379658 -0.059055
C42   C     C_R   0.744181 0.995739 0.621047 -0.055632
C43   C     C_R   0.899045 0.011738 0.291395 -0.015289
C44   C     C_R   0.100382 0.989258 0.709133 0.018048
C45   C     C_R   0.735060 0.004404 0.376003 -0.251450
C46   C     C_R   0.264327 0.995587 0.624095 -0.263024
C47   C     C_R   0.002824 0.104349 0.207719 0.042595
C48   C     C_R   0.997833 0.896327 0.792895 0.013125
C49   C     C_R   0.991712 0.276972 0.128713 -0.069525
C50   C     C_R   0.004475 0.728168 0.874329 -0.113231
C51   C     C_R   0.999748 0.901436 0.211002 -0.197638
C52   C     C_R   0.998268 0.099598 0.789638 -0.237056
C53   C     C_R   0.997352 0.738202 0.123996 -0.237755
C54   C     C_R   0.006574 0.259213 0.878157 -0.275159
H3    H     H_    0.044842 0.154504 0.333520 0.204078
H4    H     H_    0.956213 0.847383 0.666419 0.198664
H5    H     H_    0.959462 0.872034 0.336575 0.194673
H6    H     H_    0.037622 0.126009 0.662370 0.199845
H7    H     H_    0.157200 0.844726 0.272303 0.177749
H8    H     H_    0.835704 0.151422 0.731395 0.184895
O9    O     O_R   0.087590 0.627480 0.058790 -0.582554
O10   O     O_R   0.912410 0.372520 0.941210 -0.582071
O11   O     O_R   0.905660 0.383870 0.059980 -0.567195
O12   O     O_R   0.094340 0.616130 0.940020 -0.603480
O13   O     O_R   0.092570 0.390420 0.063230 -0.628210
O14   O     O_R   0.907430 0.609580 0.936770 -0.625183
O15   O     O_R   0.900680 0.620930 0.055550 -0.606252
O16   O     O_R   0.099320 0.379070 0.944450 -0.620068
C55   C     C_R   0.994111 0.659787 0.076499 0.938591
C56   C     C_R   0.006731 0.339978 0.923975 1.015999
C57   C     C_R   0.997173 0.354449 0.081828 0.935524
C58   C     C_R   0.001982 0.646508 0.918876 0.889300
Zn3   Zn    Zn3+2 0.125690 0.504390 0.002180 1.126937
Zn4   Zn    Zn3+2 0.874310 0.495610 0.997820 1.140271
C59   C     C_2   0.180681 0.184603 0.416869 0.551383
H9    H     H_    0.107232 0.198566 0.441572 0.112545
O17   O     O_2   0.256449 0.252512 0.418246 -0.439258
C60   C     C_2   0.822655 0.818509 0.582123 0.547890
H10   H     H_    0.897679 0.806298 0.558411 0.110576
O18   O     O_2   0.747599 0.750032 0.578768 -0.439718
C61   C     C_2   0.190815 0.192686 0.240898 0.384225
H11   H     H_    0.246026 0.125824 0.237726 0.169263
O19   O     O_2   0.215920 0.268369 0.273128 -0.503033
C62   C     C_2   0.810777 0.806170 0.759632 0.383603
H12   H     H_    0.754392 0.871848 0.764071 0.171741
O20   O     O_2   0.786645 0.731691 0.726478 -0.507997
N1    N     N_R   0.829590 0.803218 0.250507 0.163198
O21   O     O_R   0.834811 0.723777 0.286529 -0.329304
O22   O     O_R   0.733853 0.843684 0.240524 -0.386960
N2    N     N_R   0.164958 0.199857 0.748001 0.172429
O23   O     O_R   0.260174 0.158140 0.757855 -0.342868
O24   O     O_R   0.159849 0.278276 0.711359 -0.333232
N3    N     N_R   0.179856 0.970742 0.170346 0.184020
O25   O     O_R   0.273365 0.940469 0.191229 -0.339672
O26   O     O_R   0.182832 0.044989 0.131271 -0.357863
N4    N     N_R   0.824857 0.024565 0.835528 0.191649
O27   O     O_R   0.822727 0.952369 0.875672 -0.365605
O28   O     O_R   0.731132 0.052538 0.813995 -0.338928
C63   C     C_2   0.825732 0.022840 0.162058 0.379914
H13   H     H_    0.763282 0.018472 0.194554 0.134197
O29   O     O_2   0.817470 0.962476 0.120502 -0.528136
C64   C     C_2   0.171407 0.981240 0.840905 0.537624
H14   H     H_    0.160586 0.052947 0.867283 0.067940
O30   O     O_2   0.261230 0.966118 0.819696 -0.478592
C65   C     C_2   0.832496 0.204355 0.268224 0.492109
H15   H     H_    0.770743 0.227073 0.237378 0.115770
O31   O     O_2   0.905085 0.270537 0.282309 -0.502140
C66   C     C_2   0.167769 0.797407 0.733030 0.520274
H16   H     H_    0.228250 0.775251 0.764649 0.145752
O32   O     O_2   0.096602 0.730410 0.718069 -0.524478
N5    N     N_R   0.829404 0.850931 0.420897 0.206194
O33   O     O_R   0.918228 0.853920 0.452170 -0.425012
O34   O     O_R   0.769323 0.761276 0.418420 -0.258297
N6    N     N_R   0.167480 0.145555 0.577632 0.205300
O35   O     O_R   0.079066 0.139246 0.546074 -0.428944
O36   O     O_R   0.226022 0.236218 0.578974 -0.263582
C67   C     C_2   0.152137 0.377726 0.175024 0.576458
H17   H     H_    0.240380 0.368283 0.179199 0.099029
O37   O     O_2   0.116431 0.469452 0.175325 -0.508326
C68   C     C_2   0.857898 0.617476 0.822015 0.568638
H18   H     H_    0.769543 0.621913 0.815748 0.095751
O38   O     O_2   0.898701 0.528060 0.822532 -0.510566
C69   C     C_2   0.830645 0.644324 0.167526 0.620582
H19   H     H_    0.745093 0.661225 0.176047 0.123376
O39   O     O_2   0.856928 0.549721 0.162290 -0.508403
C70   C     C_2   0.158372 0.365123 0.828076 0.612832
H20   H     H_    0.242690 0.353707 0.814737 0.116239
O40   O     O_2   0.128608 0.457586 0.837038 -0.515023
N7    N     N_R   0.184297 0.803134 0.094921 0.243038
O41   O     O_R   0.209532 0.878073 0.058182 -0.298420
O42   O     O_R   0.259494 0.736052 0.110051 -0.283623
N8    N     N_R   0.858946 0.159306 0.928270 0.246765
O43   O     O_R   0.752640 0.169010 0.925284 -0.267009
O44   O     O_R   0.904541 0.133797 0.976289 -0.430932
C71   C     C_2   0.804412 0.203569 0.095244 0.519138
H21   H     H_    0.782295 0.142299 0.063317 0.173427
O45   O     O_2   0.739516 0.274614 0.106047 -0.507541
C72   C     C_2   0.147243 0.832640 0.931622 0.527687
H22   H     H_    0.109407 0.816842 0.972465 0.084223
O46   O     O_2   0.245420 0.857627 0.929639 -0.455734
N9    N     N_R   0.644996 0.160712 0.332925 0.211092
O47   O     O_R   0.661884 0.263254 0.345661 -0.299259
O48   O     O_R   0.544970 0.123563 0.322935 -0.345633
N10   N     N_R   0.355561 0.841055 0.668154 0.216466
O49   O     O_R   0.339121 0.738174 0.656099 -0.310842
O50   O     O_R   0.455506 0.878964 0.677610 -0.330215

loop_
_geom_bond_atom_site_label_1
_geom_bond_atom_site_label_2
_geom_bond_distance
_ccdc_geom_bond_type
C29   C39   1.411486 A    
C59   H9    1.083683 S    
N6    O35   1.300507 A    
C20   C70   1.492165 S    
C17   C19   1.407257 A    
C38   C52   1.579115 S    
C71   H21   1.083190 S    
O3    C3    1.285138 A    
C10   C44   1.415786 A    
C26   C64   1.483445 S    
C24   C54   1.393951 A    
C64   H14   1.083868 S    
C23   C53   1.406139 A    
N5    O33   1.300451 A    
C29   C31   1.381218 A    
C13   C47   1.452799 A    
N3    O26   1.301675 A    
C17   N1    1.432865 S    
C61   H11   1.080115 S    
C37   C51   1.576242 S    
N10   O49   1.301261 A    
C9    C11   1.370996 A    
C14   C16   1.407510 A    
O5    C3    1.290226 A    
C65   O31   1.220160 D    
O6    C4    1.291161 A    
C12   N6    1.432130 S    
O6    Zn2   2.065304 S    
O13   C57   1.304216 A    
C33   C65   1.478067 S    
N4    O27   1.302164 A    
C25   C47   1.437408 A    
O4    Zn1   2.054079 S    
C2    C41   1.446967 S    
C53   C55   1.465891 S    
N10   O50   1.301210 A    
O7    Zn2   2.058404 S    
C63   H13   1.079064 S    
N4    O28   1.300806 A    
C68   H18   1.084652 S    
C37   C39   1.539112 S    
C62   O20   1.222241 D    
C38   C40   1.539226 S    
C21   C23   1.388772 A    
C6    H4    1.082654 S    
C5    C39   1.410760 A    
O4    C4    1.286432 A    
O5    Zn1   2.065304 S    
C4    C46   1.450083 S    
O14   Zn4   2.048165 S    
C30   C32   1.383231 A    
C15   C67   1.495353 S    
C36   N10   1.438949 S    
O13   Zn3   2.048166 S    
C61   O19   1.222282 D    
C25   C63   1.484544 S    
C31   H1    1.083720 S    
O12   C58   1.291905 A    
C32   H2    1.083715 S    
O10   C56   1.290890 A    
O9    C55   1.284323 A    
C66   O32   1.220212 D    
O7    C1    1.281344 A    
C33   C35   1.403315 A    
C34   C36   1.405616 A    
C71   O45   1.221195 D    
C8    C60   1.479113 S    
C21   C51   1.433913 A    
C69   H19   1.084823 S    
O1    C1    1.297155 A    
C22   C52   1.438600 A    
O16   C56   1.294794 A    
C49   C57   1.464658 S    
O15   C55   1.306623 A    
C35   N9    1.439255 S    
C23   N7    1.437725 S    
C37   C43   1.561734 S    
C3    C45   1.445594 S    
C38   C44   1.565312 S    
C13   C61   1.489027 S    
C64   O30   1.219953 D    
C22   C24   1.390454 A    
C11   N5    1.432395 S    
C11   C45   1.397019 A    
O16   Zn3   2.056670 S    
C18   N2    1.431052 S    
C54   C56   1.456169 S    
O11   Zn4   2.059108 S    
C60   O18   1.220355 D    
N1    O21   1.302458 A    
C14   C48   1.452004 A    
C5    H3    1.082354 S    
C62   H12   1.080455 S    
C14   C62   1.487785 S    
C34   C66   1.478989 S    
C63   O29   1.221312 D    
C15   C49   1.403639 A    
C27   C71   1.491216 S    
N2    O24   1.302532 A    
C31   C41   1.396378 A    
C20   C54   1.402868 A    
O3    Zn2   2.054080 S    
C70   O40   1.220670 D    
C68   O38   1.220986 D    
C19   C53   1.403605 A    
C18   C52   1.448368 A    
N8    O44   1.300327 A    
N1    O22   1.300443 A    
C10   C12   1.373474 A    
C59   O17   1.220452 D    
C22   N4    1.435472 S    
C72   O46   1.221217 D    
C9    H5    1.083148 S    
N9    O48   1.301224 A    
O2    C2    1.296873 A    
C7    C41   1.413905 A    
C16   C68   1.495188 S    
C66   H16   1.084985 S    
C10   H6    1.083468 S    
C67   H17   1.084957 S    
O9    Zn3   2.069151 S    
C9    C43   1.414690 A    
C69   O39   1.221340 D    
C50   C58   1.458146 S    
N6    O36   1.300851 A    
C30   H8    1.079272 S    
C19   C69   1.491112 S    
C7    C59   1.478969 S    
O8    C2    1.280938 A    
C6    C40   1.411276 A    
N8    O43   1.301022 A    
C26   C48   1.440839 A    
C12   C46   1.397279 A    
C27   C49   1.406809 A    
C36   C46   1.406824 A    
C5    C7    1.378511 A    
O10   Zn4   2.069152 S    
N3    O25   1.301428 A    
C37   C47   1.569558 S    
C38   C48   1.569856 S    
N7    O42   1.301352 A    
C16   C50   1.402840 A    
C25   C27   1.395811 A    
C30   C40   1.411237 A    
N7    O41   1.299615 A    
C24   N8    1.435273 S    
O11   C57   1.285670 A    
C60   H10   1.083742 S    
C26   C28   1.398865 A    
C18   C20   1.407130 A    
C13   C15   1.409955 A    
N2    O23   1.300663 A    
O2    Zn2   2.069687 S    
N5    O34   1.300906 A    
C70   H20   1.084835 S    
C8    C42   1.413544 A    
O8    Zn1   2.058402 S    
O14   C58   1.293360 A    
O1    Zn1   2.069689 S    
C33   C43   1.439172 A    
C6    C8    1.378570 A    
C21   N3    1.435865 S    
C34   C44   1.439637 A    
C35   C45   1.406246 A    
C29   H7    1.079074 S    
C72   H22   1.082741 S    
C17   C51   1.448651 A    
C1    C42   1.448350 S    
C28   C50   1.401634 A    
N9    O47   1.301297 A    
C65   H15   1.085321 S    
O12   Zn3   2.059108 S    
C28   C72   1.490315 S    
O15   Zn4   2.056669 S    
C32   C42   1.397293 A    
C67   O37   1.221601 D    
