data_mof_unit_8364.cif
_audit_creation_date              2012-12-10T16:43:25-0500
_audit_creation_method            fapswitch 2.2
_symmetry_space_group_name_H-M    P1
_symmetry_Int_Tables_number       1
_space_group_crystal_system       triclinic
_cell_length_a                    10.834815
_cell_length_b                    8.744963
_cell_length_c                    7.547356
_cell_angle_alpha                 103.254928
_cell_angle_beta                  94.247375
_cell_angle_gamma                 94.119027
_cell_volume                      691.238406007

loop_
_atom_site_label
_atom_site_type_symbol
_atom_type_description
_atom_site_fract_x
_atom_site_fract_y
_atom_site_fract_z
_atom_type_partial_charge
C1    C     C_R   0.489724 0.200073 0.454210 0.890974
C2    C     C_R   0.076650 0.606230 0.665340 0.087730
C3    C     C_R   0.129504 0.514433 0.512521 -0.109189
C4    C     C_R   0.052732 0.432827 0.356799 -0.205918
C5    C     C_R   0.925300 0.435224 0.351227 -0.197704
C6    C     C_R   0.871962 0.525645 0.497610 -0.110599
C7    C     C_2   0.480588 0.031896 0.432054 -0.514282
C8    C     C_2   0.479290 0.964599 0.574937 0.286068
C9    C     C_R   0.263000 0.505058 0.504091 0.759784
C10   C     C_R   0.497069 0.799063 0.547141 0.746552
C11   C     C_R   0.737352 0.508242 0.498924 0.765942
C12   C     C_R   0.145454 0.685881 0.833229 -0.188238
C13   C     C_R   0.087871 0.778154 0.974077 -0.156059
C14   C     C_R   0.965332 0.808631 0.944742 -0.132727
C15   C     C_R   0.897185 0.734860 0.780578 -0.139803
C16   C     C_R   0.947676 0.621512 0.648241 0.098919
Cu1   Cu    Cu3+1 0.513920 0.517380 0.684380 0.980043
Cu2   Cu    Cu3+1 0.486080 0.482620 0.315620 0.942478
H1    H     H_    0.091238 0.361515 0.240387 0.160402
H2    H     H_    0.243208 0.681618 0.863158 0.179118
H3    H     H_    0.140744 0.833892 0.103004 0.136804
H4    H     H_    0.923412 0.890359 0.048398 0.131295
H5    H     H_    0.805430 0.768537 0.754540 0.127461
H6    H     H_    0.868065 0.363064 0.233751 0.170089
H7    H     H_    0.478649 0.961483 0.295140 0.149761
H8    H     H_    0.397360 0.384703 0.949250 0.207943
N1    N     N_2   0.465100 0.456430 0.038520 -0.184091
N2    N     N_2   0.534900 0.543570 0.961480 0.007283
O1    O     O_R   0.509050 0.286130 0.619770 -0.528548
O2    O     O_R   0.485540 0.256780 0.308360 -0.586566
O3    O     O_R   0.331410 0.514680 0.655740 -0.621410
O4    O     O_R   0.307900 0.485330 0.344330 -0.588142
O5    O     O_R   0.514460 0.743220 0.691640 -0.575690
O6    O     O_R   0.490950 0.713870 0.380230 -0.622359
O7    O     O_R   0.692100 0.514670 0.655670 -0.554787
O8    O     O_R   0.668590 0.485320 0.344260 -0.602776
N3    N     N_2   0.623508 0.657443 0.065620 -0.299747
H9    H     H_    0.644533 0.658614 0.197227 0.300386
C17   C     C_3   0.614325 0.816425 0.045401 -0.524855
H10   H     H_    0.657469 0.902416 0.170671 0.153325
H11   H     H_    0.515864 0.838542 0.019908 0.239726
H12   H     H_    0.668459 0.839344 0.935609 0.225484
O9    O     O_3   0.454678 0.045707 0.747533 -0.548425
C18   C     C_3   0.323974 0.043156 0.751738 0.088604
H13   H     H_    0.273282 0.929908 0.670949 0.118535
H14   H     H_    0.289609 0.141517 0.696823 0.141400
C19   C     C_3   0.290886 0.063395 0.947393 -0.802130
H15   H     H_    0.335881 0.174195 0.035499 0.265441
H16   H     H_    0.188959 0.067239 0.950840 0.201119
H17   H     H_    0.321895 0.964579 0.003605 0.231380

loop_
_geom_bond_atom_site_label_1
_geom_bond_atom_site_label_2
_ccdc_geom_bond_type
O9    C18   S    
C8    O9    S    
N3    H9    S    
C3    C9    S    
C19   H17   S    
Cu1   O1    S    
C19   H15   S    
C7    H7    S    
C18   C19   S    
C2    C12   A    
C14   H4    S    
C11   O7    A    
C2    C3    A    
C13   H3    S    
C7    C8    D    
N3    C17   S    
C13   C14   A    
C18   H13   S    
Cu2   O6    S    
C12   H2    S    
H8    N1    S    
C5    H6    S    
Cu1   O5    S    
N2    N3    S    
Cu2   O2    S    
C15   H5    S    
C11   O8    A    
C18   H14   S    
Cu1   Cu2   S    
C17   H12   S    
C4    H1    S    
C5    C6    A    
Cu1   O3    S    
Cu2   O4    S    
C1    O1    A    
C6    C16   A    
C3    C4    A    
C10   O6    A    
C6    C11   S    
C2    C16   A    
C12   C13   A    
C17   H11   S    
C19   H16   S    
C10   O5    A    
C17   H10   S    
C9    O3    A    
C14   C15   A    
C1    O2    A    
Cu1   O7    S    
C9    O4    A    
C1    C7    S    
Cu1   N2    S    
Cu2   O8    S    
C8    C10   S    
Cu2   N1    S    
C15   C16   A    
C4    C5    A    
N1    N2    D    
