data_mof_unit_31385.cif
_audit_creation_date              2012-12-11T16:05:12-0500
_audit_creation_method            fapswitch 2.2
_symmetry_space_group_name_H-M    P1
_symmetry_Int_Tables_number       1
_space_group_crystal_system       triclinic
_cell_length_a                    10.640992
_cell_length_b                    10.767434
_cell_length_c                    16.89319
_cell_angle_alpha                 98.764909
_cell_angle_beta                  98.893543
_cell_angle_gamma                 60.843687
_cell_volume                      1663.31369635

loop_
_atom_site_label
_atom_site_type_symbol
_atom_type_description
_atom_site_fract_x
_atom_site_fract_y
_atom_site_fract_z
_atom_type_partial_charge
C1    C     C_R   0.381589 0.709856 0.386524 0.569524
C2    C     C_3   0.395067 0.654980 0.231578 -0.144141
C3    C     C_3   0.368711 0.756517 0.308301 0.056854
C4    C     C_R   0.366533 0.343868 0.359978 0.536947
C5    C     C_3   0.451614 0.824172 0.281554 -0.111741
C6    C     C_3   0.307429 0.935926 0.242074 -0.116376
C7    C     C_3   0.225327 0.868023 0.270095 -0.115615
C8    C     C_3   0.251164 0.766789 0.192614 -0.109652
C9    C     C_3   0.333945 0.833998 0.165213 0.059953
C10   C     C_3   0.465381 0.257125 0.774441 -0.001999
C11   C     C_3   0.404591 0.395223 0.733365 -0.112251
C12   C     C_3   0.768015 0.266074 0.254174 -0.114531
C13   C     C_3   0.337684 0.330246 0.662388 0.039902
C14   C     C_3   0.398236 0.192217 0.703619 -0.004418
C15   C     C_3   0.256992 0.256951 0.743816 -0.110434
C16   C     C_R   0.779638 0.374780 0.403102 0.542407
C17   C     C_3   0.195960 0.396517 0.701994 -0.138351
C18   C     C_3   0.262109 0.460271 0.774240 -0.142507
C19   C     C_3   0.324308 0.321475 0.814659 0.036500
C20   C     C_1   0.818754 0.342178 0.709383 -0.058540
C21   C     C_1   0.845712 0.315155 0.777909 -0.045255
C22   C     C_1   0.358157 0.765040 0.714502 -0.054837
C23   C     C_3   0.825576 0.341537 0.323112 0.062937
C24   C     C_1   0.326898 0.811581 0.782145 -0.064861
C25   C     C_R   0.898690 0.308015 0.092668 0.537696
C26   C     C_R   0.291688 0.262458 0.122875 0.563010
C27   C     C_R   0.296203 0.888687 0.087483 0.542041
C28   C     C_R   0.380092 0.715827 0.631724 0.563639
C29   C     C_R   0.886319 0.299186 0.860794 0.554977
C30   C     C_R   0.310065 0.294960 0.893102 0.535444
C31   C     C_R   0.282663 0.880449 0.859765 0.545805
C32   C     C_R   0.365839 0.345044 0.584419 0.523122
C33   C     C_R   0.774055 0.379891 0.629418 0.537015
C34   C     C_3   0.976075 0.264568 0.293759 -0.149195
C35   C     C_1   0.325637 0.318417 0.277988 -0.070549
C36   C     C_1   0.306102 0.293975 0.207151 -0.067160
C37   C     C_3   0.919108 0.189244 0.223093 -0.125533
C38   C     C_R   0.621149 0.175415 0.810324 0.004572
C39   C     C_R   0.729626 0.087014 0.758937 -0.101241
C40   C     C_R   0.853659 0.967954 0.787474 -0.092669
C41   C     C_R   0.871064 0.939546 0.867662 -0.058705
C42   C     C_R   0.775442 0.040266 0.921506 -0.062155
C43   C     C_R   0.655157 0.162321 0.893407 -0.061309
C44   C     C_R   0.479205 0.036982 0.670392 0.014533
C45   C     C_3   0.929307 0.390141 0.242748 -0.114366
C46   C     C_R   0.559680 0.931768 0.724482 -0.091998
C47   C     C_R   0.682673 0.807037 0.700879 -0.093309
C48   C     C_R   0.721855 0.785251 0.622615 -0.058950
C49   C     C_R   0.628009 0.877834 0.565433 -0.058909
C50   C     C_R   0.502800 0.999841 0.588620 -0.048440
C51   C     C_3   0.778468 0.467003 0.272792 -0.107871
C52   C     C_3   0.721417 0.391318 0.203285 -0.145797
C53   C     C_3   0.870328 0.316492 0.174046 0.060435
C54   C     C_3   0.477222 0.723649 0.202774 -0.144378
Cr1   Cr    Cr6+3 0.608340 0.611040 0.520430 0.981584
Cr2   Cr    Cr6+3 0.287650 0.601120 0.489350 1.006149
Cr3   Cr    Cr6+3 0.604040 0.287870 0.490280 0.994060
Cr4   Cr    Cr6+3 0.054020 0.052700 0.970850 0.983413
Cr5   Cr    Cr6+3 0.059230 0.375120 0.993390 1.004967
Cr6   Cr    Cr6+3 0.374950 0.061200 0.992340 0.998674
H1    H     H_    0.702096 0.214596 0.260747 0.140819
H2    H     H_    0.078316 0.213785 0.333082 0.105295
H3    H     H_    0.994174 0.442623 0.236070 0.129356
H4    H     H_    0.725835 0.581000 0.296125 0.131397
H5    H     H_    0.624347 0.433028 0.159646 0.107492
H6    H     H_    0.425755 0.540547 0.231096 0.111140
H7    H     H_    0.576122 0.673473 0.170564 0.117357
H8    H     H_    0.533397 0.847480 0.320133 0.119048
H9    H     H_    0.711160 0.100491 0.695232 0.144066
H10   H     H_    0.932022 0.893926 0.746533 0.115150
H11   H     H_    0.962050 0.843153 0.888916 0.113395
H12   H     H_    0.271958 0.051649 0.243824 0.102210
H13   H     H_    0.794740 0.024158 0.984855 0.100387
H14   H     H_    0.585191 0.241493 0.936307 0.121122
H15   H     H_    0.538554 0.953765 0.787134 0.146044
H16   H     H_    0.751361 0.731339 0.744263 0.113667
H17   H     H_    0.821346 0.693543 0.605316 0.114427
H18   H     H_    0.652544 0.855511 0.503380 0.097936
H19   H     H_    0.429575 0.068079 0.543204 0.124832
H20   H     H_    0.123416 0.925774 0.299856 0.129293
H21   H     H_    0.169163 0.742708 0.154855 0.131506
H22   H     H_    0.466028 0.451950 0.727896 0.101417
H23   H     H_    0.195523 0.200316 0.749526 0.119772
H24   H     H_    0.085901 0.452005 0.670598 0.121367
H25   H     H_    0.207951 0.569673 0.804880 0.118263
H26   H     H_    0.973359 0.076546 0.197470 0.130896
O1    O     O_R   0.751220 0.499230 0.435170 -0.538600
O2    O     O_R   0.412990 0.180750 0.091610 -0.515262
O3    O     O_R   0.366620 0.943130 0.065760 -0.514969
O4    O     O_R   0.477220 0.727600 0.436870 -0.510521
O5    O     O_R   0.160510 0.906330 0.879210 -0.524583
O6    O     O_R   0.930190 0.179050 0.889450 -0.481198
O7    O     O_R   0.909140 0.398170 0.896710 -0.515984
O8    O     O_R   0.186190 0.363460 0.918830 -0.494653
O9    O     O_R   0.401670 0.173200 0.913310 -0.533950
O10   O     O_R   0.356120 0.936130 0.900470 -0.499568
O11   O     O_3   0.162740 0.163010 0.985530 -0.268280
O12   O     O_R   0.297880 0.469080 0.560050 -0.512980
O13   O     O_R   0.258650 0.745120 0.411470 -0.513719
O14   O     O_R   0.297070 0.467240 0.395960 -0.511346
O15   O     O_R   0.488830 0.252610 0.387790 -0.517451
O16   O     O_R   0.724400 0.302390 0.420980 -0.502038
O17   O     O_R   0.752100 0.501210 0.612190 -0.535219
O18   O     O_R   0.478040 0.729440 0.600970 -0.473552
O19   O     O_R   0.259530 0.747110 0.588490 -0.503391
O20   O     O_R   0.489720 0.254590 0.564810 -0.535785
O21   O     O_R   0.725220 0.304230 0.585080 -0.497208
O22   O     O_3   0.500010 0.500010 0.500020 -0.283446
O23   O     O_R   0.171830 0.913880 0.057510 -0.535605
O24   O     O_R   0.940690 0.186050 0.054730 -0.516200
O25   O     O_R   0.920470 0.405720 0.075010 -0.528581
O26   O     O_R   0.196690 0.370460 0.084120 -0.501682

loop_
_geom_bond_atom_site_label_1
_geom_bond_atom_site_label_2
_ccdc_geom_bond_type
C11   C18   S    
C1    O4    A    
Cr4   O23   S    
Cr4   O24   S    
C41   C42   A    
C13   C32   S    
C35   C36   T    
C33   O21   A    
Cr2   O12   S    
C50   H19   S    
C1    O13   A    
C6    C9    S    
Cr6   O2    S    
C7    C8    S    
Cr6   O3    S    
C6    H12   S    
Cr3   O16   S    
C12   C23   S    
C40   H10   S    
C25   C53   S    
C47   H16   S    
Cr1   O4    S    
C3    C7    S    
C38   C39   A    
C45   C51   S    
C31   O10   A    
C34   C37   S    
Cr1   O17   S    
C34   H2    S    
C49   H18   S    
C18   C19   S    
C12   C37   S    
C28   O18   A    
Cr2   O22   S    
C8    C9    S    
C16   O1    A    
Cr5   O25   S    
Cr5   O8    S    
Cr4   O5    S    
C10   C19   S    
C41   H11   S    
C37   C53   S    
C43   H14   S    
Cr3   O20   S    
C4    C35   S    
C45   C53   S    
C32   O20   A    
C13   C14   S    
Cr4   O11   S    
C5    H8    S    
C46   H15   S    
C12   C52   S    
C44   C46   A    
Cr5   O26   S    
C11   H22   S    
C18   H25   S    
C8    H21   S    
C5    C54   S    
Cr6   O11   S    
C10   C14   S    
C39   C40   A    
C15   H23   S    
C54   H7    S    
C3    C5    S    
C21   C29   S    
Cr1   O18   S    
C45   H3    S    
C51   C52   S    
C1    C3    S    
C48   H17   S    
C15   C19   S    
C30   O9    A    
C37   H26   S    
C23   C51   S    
C47   C48   A    
C28   O19   A    
C23   C34   S    
C4    O15   A    
C17   C18   S    
C39   H9    S    
C34   C45   S    
C25   O24   A    
C20   C33   S    
Cr6   O10   S    
C16   O16   A    
C48   C49   A    
Cr3   O21   S    
C16   C23   S    
C31   O5    A    
C4    O14   A    
C2    C54   S    
Cr5   O11   S    
C22   C24   T    
C42   C43   A    
Cr2   O14   S    
C26   O26   A    
C52   C53   S    
C9    C27   S    
C14   C44   S    
C44   C50   A    
C15   C17   S    
C26   C36   S    
C46   C47   A    
C40   C41   A    
C42   H13   S    
C33   O17   A    
C2    C8    S    
C51   H4    S    
C2    H6    S    
C6    C7    S    
Cr3   O15   S    
C13   C17   S    
Cr1   O22   S    
C10   C38   S    
C17   H24   S    
C2    C3    S    
C24   C31   S    
C38   C43   A    
C30   O8    A    
C29   O7    A    
C12   H1    S    
C11   C13   S    
C5    C6    S    
C32   O12   A    
C27   O3    A    
Cr1   O1    S    
Cr2   O19   S    
C10   C11   S    
C25   O25   A    
Cr6   O9    S    
Cr3   O22   S    
C20   C21   T    
C27   O23   A    
C26   O2    A    
C49   C50   A    
C14   C15   S    
C22   C28   S    
C9    C54   S    
Cr5   O7    S    
Cr2   O13   S    
C19   C30   S    
Cr4   O6    S    
C29   O6    A    
C52   H5    S    
C7    H20   S    
