data_mof_unit_49371.cif
_audit_creation_date              2012-12-10T17:49:44-0500
_audit_creation_method            fapswitch 2.2
_symmetry_space_group_name_H-M    P1
_symmetry_Int_Tables_number       1
_space_group_crystal_system       triclinic
_cell_length_a                    10.507724
_cell_length_b                    10.711301
_cell_length_c                    9.925149
_cell_angle_alpha                 90.267948
_cell_angle_beta                  89.266524
_cell_angle_gamma                 93.207199
_cell_volume                      1115.23954709

loop_
_atom_site_label
_atom_site_type_symbol
_atom_type_description
_atom_site_fract_x
_atom_site_fract_y
_atom_site_fract_z
_atom_type_partial_charge
C1    C     C_R   0.509888 0.260676 0.500528 0.864986
C2    C     C_R   0.520065 0.062383 0.628059 0.093510
C3    C     C_R   0.518276 0.127256 0.503700 -0.128581
C4    C     C_R   0.257165 0.494352 0.500778 0.840194
C5    C     C_R   0.500678 0.062730 0.382172 -0.231905
C6    C     C_R   0.483215 0.935270 0.382659 -0.228300
C7    C     C_R   0.473725 0.871602 0.505118 -0.131868
C8    C     C_R   0.339662 0.326230 0.141260 -0.159569
C9    C     C_R   0.267774 0.234656 0.071677 -0.226300
C10   C     C_R   0.270306 0.233030 0.932176 -0.180360
C11   C     C_R   0.341672 0.324922 0.861491 -0.152140
C12   C     C_3   0.968542 0.584042 0.401917 -0.170900
C13   C     C_R   0.421177 0.414337 0.928378 0.110936
C14   C     C_R   0.420943 0.414515 0.072830 0.155309
C15   C     C_R   0.576712 0.580575 0.072559 -0.139508
C16   C     C_R   0.487980 0.738861 0.501190 0.869850
C17   C     C_R   0.578322 0.580933 0.929877 0.237026
C18   C     C_R   0.742376 0.507310 0.499065 0.870146
C19   C     C_3   0.027518 0.422829 0.594822 0.124645
C20   C     C_3   0.944994 0.388858 0.471757 -0.187201
C21   C     C_3   0.877105 0.509309 0.496829 -0.020488
C22   C     C_3   0.957813 0.543389 0.620274 -0.199925
C23   C     C_3   0.039964 0.463253 0.378062 -0.191442
C24   C     C_3   0.052032 0.615769 0.525257 0.113646
C25   C     C_3   0.673216 0.672775 0.865069 -0.874015
C26   C     C_3   0.049780 0.331361 0.708340 -0.439178
C27   C     C_3   0.921870 0.274352 0.763287 -0.326815
C28   C     C_3   0.939359 0.187688 0.882146 -0.902391
C29   C     C_3   0.119904 0.742694 0.554968 -0.422278
C30   C     C_3   0.025532 0.846053 0.567037 -0.335623
C31   C     C_3   0.094937 0.972702 0.592964 -0.900523
C32   C     C_3   0.121711 0.495945 0.502055 -0.048619
C33   C     C_R   0.562958 0.116961 0.751158 -0.158758
C34   C     C_R   0.533978 0.058339 0.873715 -0.137638
C35   C     C_R   0.463314 0.944795 0.875334 -0.175147
C36   C     C_R   0.434225 0.883859 0.754233 -0.159720
C37   C     C_R   0.474292 0.937576 0.629270 0.106506
H1    H     H_    0.897019 0.296408 0.448382 0.126325
H2    H     H_    0.921830 0.577608 0.718550 0.137517
H3    H     H_    0.939377 0.650108 0.323730 0.131055
H4    H     H_    0.076535 0.429622 0.279689 0.155072
H5    H     H_    0.500697 0.110402 0.286085 0.175211
H6    H     H_    0.620246 0.203894 0.754486 0.163928
H7    H     H_    0.563267 0.102768 0.967392 0.139794
H8    H     H_    0.672166 0.672305 0.755159 0.295321
H9    H     H_    0.654657 0.768851 0.899368 0.225408
H10   H     H_    0.770754 0.651677 0.896374 0.202714
H11   H     H_    0.994111 0.106737 0.850381 0.261507
H12   H     H_    0.434946 0.901751 0.970344 0.137421
H13   H     H_    0.989431 0.239101 0.965133 0.269928
H14   H     H_    0.844502 0.151703 0.920204 0.249124
H15   H     H_    0.860579 0.350171 0.796919 0.233844
H16   H     H_    0.871141 0.220119 0.682609 0.212745
H17   H     H_    0.109556 0.256537 0.669604 0.190301
H18   H     H_    0.100496 0.383714 0.790079 0.219889
H19   H     H_    0.146332 0.971707 0.690046 0.260676
H20   H     H_    0.164308 0.996096 0.510230 0.267701
H21   H     H_    0.024489 0.046019 0.597733 0.252430
H22   H     H_    0.970931 0.851468 0.472247 0.218275
H23   H     H_    0.378786 0.795973 0.760049 0.163753
H24   H     H_    0.957123 0.824716 0.651310 0.221192
H25   H     H_    0.172894 0.735933 0.650523 0.198310
H26   H     H_    0.189430 0.765248 0.472091 0.199736
H27   H     H_    0.478495 0.886747 0.286632 0.169850
H28   H     H_    0.639254 0.645670 0.127828 0.153587
H29   H     H_    0.329204 0.325063 0.248177 0.201949
H30   H     H_    0.208601 0.165557 0.126334 0.149356
H31   H     H_    0.214692 0.161707 0.878061 0.159633
H32   H     H_    0.331205 0.324123 0.754904 0.202755
N1    N     N_R   0.498800 0.498800 0.142780 -0.138220
N2    N     N_R   0.498760 0.498720 0.857170 -0.129792
O1    O     O_R   0.500000 0.316780 0.614690 -0.647205
O2    O     O_R   0.499990 0.316750 0.385360 -0.636403
O3    O     O_R   0.313960 0.499980 0.614650 -0.643893
O4    O     O_R   0.313940 0.499960 0.385310 -0.634208
O5    O     O_R   0.500010 0.683250 0.614640 -0.634813
O6    O     O_R   0.500000 0.683220 0.385310 -0.619318
O7    O     O_R   0.686060 0.500040 0.614690 -0.636756
O8    O     O_R   0.686040 0.500020 0.385350 -0.611946
Zn1   Zn    Zn3+2 0.500010 0.500020 0.653130 0.904987
Zn2   Zn    Zn3+2 0.499990 0.499980 0.346870 0.923700

loop_
_geom_bond_atom_site_label_1
_geom_bond_atom_site_label_2
_ccdc_geom_bond_type
C8    C9    A    
C5    H5    S    
C29   H26   S    
C8    H29   S    
C18   C21   S    
C35   C36   A    
C26   H18   S    
C9    H30   S    
C12   C23   S    
C26   C27   S    
C31   H21   S    
C36   C37   A    
C34   C35   A    
C5    C6    A    
C28   H14   S    
O7    Zn1   S    
C15   H28   S    
C16   O6    A    
C6    H27   S    
N1    Zn2   S    
C19   C26   S    
C24   C29   S    
C4    O4    A    
C28   H13   S    
C19   C20   S    
C18   O8    A    
C35   H12   S    
C31   H19   S    
C9    C10   A    
C25   H10   S    
C4    O3    A    
O3    Zn1   S    
C13   C14   A    
C14   N1    A    
C19   C32   S    
C26   H17   S    
O2    Zn2   S    
N2    Zn1   S    
C1    O1    A    
C33   H6    S    
C19   C22   S    
C34   H7    S    
O8    Zn2   S    
O4    Zn2   S    
C13   N2    A    
C3    C5    A    
C12   C21   S    
C1    C3    S    
C12   H3    S    
C24   C32   S    
C29   C30   S    
C20   H1    S    
C20   C23   S    
O6    Zn2   S    
C18   O7    A    
C30   H22   S    
C27   H16   S    
C33   C34   A    
C7    C37   A    
C4    C32   S    
C2    C33   A    
C7    C16   S    
C17   N2    A    
C22   C24   S    
C25   H8    S    
C27   H15   S    
C15   C17   A    
C15   N1    A    
C29   H25   S    
C28   H11   S    
C8    C14   A    
C16   O5    A    
O5    Zn1   S    
C36   H23   S    
C11   H32   S    
C6    C7    A    
C10   H31   S    
C12   C24   S    
C23   H4    S    
C17   C25   S    
C23   C32   S    
C31   H20   S    
C2    C3    A    
C1    O2    A    
O1    Zn1   S    
C11   C13   A    
C2    C37   A    
C30   C31   S    
C22   H2    S    
C10   C11   A    
C20   C21   S    
C30   H24   S    
C27   C28   S    
C21   C22   S    
C25   H9    S    
