data_mof_unit_9391.cif
_audit_creation_date              2012-12-11T15:09:39-0500
_audit_creation_method            fapswitch 2.2
_symmetry_space_group_name_H-M    P1
_symmetry_Int_Tables_number       1
_space_group_crystal_system       triclinic
_cell_length_a                    20.912801
_cell_length_b                    7.11849
_cell_length_c                    14.00465
_cell_angle_alpha                 89.996622
_cell_angle_beta                  98.03843
_cell_angle_gamma                 90.00624
_cell_volume                      2064.35354654

loop_
_atom_site_label
_atom_site_type_symbol
_atom_type_description
_atom_site_fract_x
_atom_site_fract_y
_atom_site_fract_z
_atom_type_partial_charge
O1    O     O_R   0.447130 0.507140 0.597350 -0.536229
O2    O     O_R   0.552870 0.007140 0.402650 -0.536246
O3    O     O_R   0.578910 0.181280 0.586990 -0.537373
O4    O     O_R   0.421090 0.681280 0.413010 -0.537387
C1    C     C_R   0.604538 0.344468 0.607331 0.731147
C2    C     C_R   0.395462 0.844458 0.392669 0.731117
O5    O     O_R   0.449230 0.177860 0.608640 -0.543850
O6    O     O_R   0.550770 0.677860 0.391360 -0.543819
O7    O     O_R   0.422260 0.000770 0.424450 -0.533802
O8    O     O_R   0.577740 0.500770 0.575550 -0.533825
C3    C     C_R   0.431852 0.346310 0.634032 0.691279
C4    C     C_R   0.568151 0.846333 0.365979 0.691343
O9    O     O_3   0.491310 0.336980 0.439550 -0.374174
O10   O     O_3   0.508690 0.836980 0.560450 -0.374196
V1    V     V_3+5 0.501610 0.064760 0.511210 1.395614
V2    V     V_3+5 0.498390 0.564760 0.488790 1.395661
C5    C     C_R   0.620797 0.772741 0.123847 -0.180347
C6    C     C_R   0.379151 0.271495 0.876053 -0.180524
H1    H     H_    0.534392 0.724439 0.185922 0.115965
H2    H     H_    0.465507 0.223106 0.813880 0.116084
H3    H     H_    0.597938 0.723532 0.054333 0.115577
H4    H     H_    0.401954 0.221601 0.945465 0.115618
C7    C     C_R   0.608399 0.852616 0.288028 -0.053179
C8    C     C_R   0.391627 0.352476 0.712025 -0.053359
C9    C     C_R   0.918221 0.849508 0.305388 -0.162723
C10   C     C_R   0.081803 0.350632 0.694597 -0.162694
C11   C     C_R   0.879685 0.833151 0.378198 -0.115081
C12   C     C_R   0.120339 0.334845 0.621759 -0.115099
C13   C     C_R   0.812665 0.836222 0.355789 -0.172436
C14   C     C_R   0.187360 0.337556 0.644191 -0.172429
C15   C     C_R   0.782693 0.862431 0.259832 0.070966
C16   C     C_R   0.217339 0.362825 0.740214 0.070918
C17   C     C_R   0.821810 0.859576 0.185127 0.023141
C18   C     C_R   0.178208 0.359435 0.814902 0.023152
C19   C     C_R   0.714518 0.870774 0.235826 0.024964
C20   C     C_R   0.285519 0.370779 0.764257 0.024930
C21   C     C_R   0.686720 0.821691 0.140515 0.058423
C22   C     C_R   0.313274 0.320922 0.859475 0.058485
C23   C     C_R   0.725436 0.821035 0.064938 0.118642
C24   C     C_R   0.274556 0.319981 0.935044 0.118621
C25   C     C_R   0.792366 0.849009 0.088606 -0.195091
C26   C     C_R   0.207637 0.348167 0.911409 -0.195146
C27   C     C_R   0.672493 0.921048 0.303431 0.068225
C28   C     C_R   0.327593 0.421368 0.696765 0.068258
C29   C     C_R   0.583699 0.775279 0.198827 -0.198309
C30   C     C_R   0.416252 0.274361 0.801078 -0.198301
C31   C     C_R   0.889930 0.860255 0.208980 -0.059666
C32   C     C_R   0.110089 0.360432 0.791035 -0.059678
H5    H     H_    0.970295 0.848050 0.323924 0.099477
H6    H     H_    0.029730 0.349537 0.676045 0.099478
H7    H     H_    0.784475 0.812699 0.413881 0.110688
H8    H     H_    0.215539 0.314512 0.586046 0.110701
H9    H     H_    0.901814 0.816399 0.452329 0.118143
H10   H     H_    0.098208 0.318846 0.547583 0.118144
H11   H     H_    0.822511 0.850623 0.032121 0.134728
H12   H     H_    0.177487 0.349422 0.967891 0.134752
C33   C     C_1   0.166585 0.856747 0.168401 -0.206823
C34   C     C_1   0.833414 0.356740 0.831603 -0.206856
C35   C     C_1   0.218970 0.854300 0.219533 -0.003735
C36   C     C_1   0.781028 0.354312 0.780471 -0.003768
C37   C     C_1   0.280709 0.853028 0.279530 0.003007
C38   C     C_1   0.719290 0.353055 0.720472 0.003057
C39   C     C_1   0.333064 0.850934 0.330741 -0.207560
C40   C     C_1   0.666935 0.350962 0.669259 -0.207568
O11   O     O_R   0.922300 0.202240 0.924350 -0.532361
O12   O     O_R   0.077700 0.702240 0.075650 -0.532335
O13   O     O_R   0.050780 0.535130 0.891350 -0.539513
O14   O     O_R   0.949220 0.035130 0.108650 -0.539529
C41   C     C_R   0.067680 0.368169 0.865583 0.680262
C42   C     C_R   0.932331 0.868138 0.134429 0.680263
O15   O     O_R   0.921100 0.531560 0.912990 -0.539964
O16   O     O_R   0.078900 0.031560 0.087010 -0.540003
O17   O     O_R   0.947120 0.708470 0.097370 -0.537583
O18   O     O_R   0.052880 0.208470 0.902630 -0.537605
C43   C     C_R   0.895846 0.363495 0.893432 0.718546
C44   C     C_R   0.104154 0.863502 0.106569 0.718505
O19   O     O_3   0.008710 0.375800 0.060400 -0.372900
O20   O     O_3   0.991290 0.875800 0.939600 -0.372895
V3    V     V_3+5 0.998380 0.648080 0.988790 1.422143
V4    V     V_3+5 0.001620 0.148080 0.011210 1.422056
C45   C     C_3   0.694429 0.792558 0.960440 -0.359570
C46   C     C_3   0.738150 0.823683 0.882849 -0.740641
H13   H     H_    0.758792 0.967719 0.888228 0.229593
H14   H     H_    0.777481 0.717858 0.889444 0.228834
H15   H     H_    0.709343 0.807648 0.810431 0.220929
H16   H     H_    0.674934 0.647315 0.952266 0.179487
H17   H     H_    0.653433 0.892428 0.944755 0.179381
C47   C     C_3   0.305547 0.290959 0.039505 -0.359576
C48   C     C_3   0.261913 0.322767 0.117142 -0.740630
H18   H     H_    0.241462 0.467023 0.111724 0.229596
H19   H     H_    0.222439 0.217383 0.110640 0.228804
H20   H     H_    0.290730 0.306573 0.189540 0.220953
H21   H     H_    0.324791 0.145439 0.047588 0.179506
H22   H     H_    0.346719 0.390238 0.055216 0.179390
C49   C     C_3   0.690769 0.075206 0.378219 -0.387157
C50   C     C_3   0.661336 0.263965 0.342693 -0.660139
H23   H     H_    0.683134 0.312138 0.278988 0.214959
H24   H     H_    0.608345 0.254697 0.321747 0.237765
H25   H     H_    0.671527 0.370831 0.400617 0.196337
H26   H     H_    0.675481 0.036541 0.448426 0.175097
H27   H     H_    0.743240 0.101806 0.392556 0.186898
C51   C     C_3   0.309442 0.576159 0.622295 -0.387280
C52   C     C_3   0.339161 0.764415 0.658099 -0.659729
H28   H     H_    0.317425 0.812561 0.721860 0.214855
H29   H     H_    0.392134 0.754438 0.679067 0.237642
H30   H     H_    0.329148 0.871649 0.600323 0.196540
H31   H     H_    0.324589 0.537771 0.551960 0.175149
H32   H     H_    0.256999 0.603336 0.608158 0.186890

loop_
_geom_bond_atom_site_label_1
_geom_bond_atom_site_label_2
_ccdc_geom_bond_type
O14   V4    S    
C14   C16   A    
C7    C29   A    
C11   C13   A    
C49   C50   S    
O1    C3    A    
C32   C41   S    
O16   C44   A    
O2    C4    A    
C2    O7    A    
O15   V3    S    
C45   C46   S    
C23   C25   A    
O5    C3    A    
O12   V3    S    
C4    C7    S    
C16   C20   A    
C33   C44   S    
C19   C21   A    
C5    C29   A    
C10   H6    S    
O20   V4    S    
C33   C35   T    
C49   H26   S    
C34   C36   T    
C50   H25   S    
C3    C8    S    
C7    C27   A    
C36   C38   S    
C37   C39   T    
C25   H11   S    
C38   C40   T    
C26   H12   S    
C18   C26   A    
C27   C49   S    
C15   C17   A    
C51   H32   S    
C48   H19   S    
C19   C27   A    
C9    C31   A    
C45   H16   S    
C10   C32   A    
C24   C26   A    
O6    V2    S    
O11   V4    S    
O18   V4    S    
C13   C15   A    
C6    C30   A    
C34   C43   S    
O19   V3    S    
C47   H22   S    
C35   C37   S    
C51   H31   S    
O13   V3    S    
C23   C45   S    
O4    C2    A    
C12   H10   S    
O20   V3    S    
O5    V1    S    
C5    H3    S    
C1    C40   S    
C50   H24   S    
O13   C41   A    
C16   C18   A    
C2    C39   S    
O4    V2    S    
C31   C42   S    
O6    C4    A    
O12   C44   A    
C50   H23   S    
C42   O17   A    
C11   H9    S    
O17   V3    S    
C41   O18   A    
C52   H29   S    
O1    V2    S    
C5    C21   A    
C48   H20   S    
O2    V1    S    
C45   H17   S    
O14   C42   A    
C46   H14   S    
C17   C31   A    
C15   C19   A    
C20   C28   A    
C18   C32   A    
O3    V1    S    
C13   H7    S    
O19   V4    S    
C14   H8    S    
C47   H21   S    
C28   C51   S    
C6    H4    S    
O3    C1    A    
H1    C29   S    
C9    C11   A    
C46   H15   S    
C10   C12   A    
O11   C43   A    
C8    C30   A    
C24   C47   S    
C12   C14   A    
C6    C22   A    
C17   C25   A    
C1    O8    A    
C21   C23   A    
O8    V2    S    
O15   C43   A    
C22   C24   A    
C8    C28   A    
C20   C22   A    
C52   H30   S    
O7    V1    S    
C51   C52   S    
C9    H5    S    
C47   C48   S    
O16   V4    S    
C46   H13   S    
O9    V2    S    
C52   H28   S    
O10   V1    S    
C48   H18   S    
H2    C30   S    
C49   H27   S    
