data_mof_unit_32906.cif
_audit_creation_date              2013-03-05T16:44:35-0500
_audit_creation_method            fapswitch 2.2
_symmetry_space_group_name_H-M    P1
_symmetry_Int_Tables_number       1
_space_group_crystal_system       triclinic
_cell_length_a                    27.726091
_cell_length_b                    10.663007
_cell_length_c                    9.882556
_cell_angle_alpha                 90.398785
_cell_angle_beta                  90.360637
_cell_angle_gamma                 90.872172
_cell_volume                      2921.24435944

loop_
_atom_site_label
_atom_site_type_symbol
_atom_site_description
_atom_site_fract_x
_atom_site_fract_y
_atom_site_fract_z
_atom_type_partial_charge
O1    O     O_R   0.500010 0.316790 0.614690 -0.601452
O2    O     O_R   0.500000 0.316760 0.385350 -0.618646
C1    C     C_R   0.500495 0.260271 0.499805 0.878126
O3    O     O_R   0.428760 0.500040 0.614660 -0.615355
O4    O     O_R   0.428750 0.500000 0.385310 -0.624500
C2    C     C_R   0.406076 0.500586 0.499544 0.875873
Zn1   Zn    Zn3+2 0.500000 0.500020 0.653130 0.963127
Zn2   Zn    Zn3+2 0.500000 0.499980 0.346870 1.001591
O5    O     O_R   0.500000 0.683240 0.614650 -0.627792
O6    O     O_R   0.499990 0.683210 0.385310 -0.582330
O7    O     O_R   0.571250 0.500000 0.614690 -0.625769
O8    O     O_R   0.571240 0.499960 0.385340 -0.575354
C3    C     C_R   0.500423 0.739757 0.500260 0.890190
C4    C     C_R   0.593887 0.498472 0.500008 0.882163
C5    C     C_R   0.177770 0.399546 0.476502 0.513204
O9    O     O_2   0.202854 0.292241 0.468558 -0.561818
N1    N     N_R   0.201625 0.511909 0.490476 -0.354734
C6    C     C_R   0.177747 0.622827 0.495929 0.483896
C7    C     C_R   0.278814 0.546394 0.381407 -0.112638
C8    C     C_R   0.328779 0.542168 0.381988 -0.216232
C9    C     C_R   0.327586 0.470986 0.614482 -0.257304
C10   C     C_R   0.277324 0.476013 0.615638 0.045032
C11   C     C_R   0.252994 0.513422 0.497182 0.283420
C12   C     C_R   0.101814 0.508555 0.478011 -0.056220
C13   C     C_R   0.127386 0.395658 0.470285 -0.023980
C14   C     C_R   0.102281 0.281815 0.456478 -0.138723
C15   C     C_R   0.127352 0.623198 0.491333 -0.015235
C16   C     C_R   0.353451 0.504069 0.498422 -0.055706
H1    H     H_    0.346407 0.441283 0.704422 0.200358
H2    H     H_    0.121208 0.194025 0.447363 0.192837
C17   C     C_R   0.646466 0.495373 0.498464 -0.047361
C18   C     C_R   0.974591 0.388412 0.478057 0.073054
C19   C     C_R   0.974638 0.619791 0.462799 -0.095613
C20   C     C_R   0.949390 0.503254 0.472616 0.005657
C21   C     C_R   0.947885 0.275606 0.495078 -0.201792
C22   C     C_R   0.897949 0.275349 0.501767 -0.130812
C23   C     C_R   0.872834 0.387360 0.492136 -0.005802
C24   C     C_R   0.898376 0.501513 0.476937 -0.058117
C25   C     C_R   0.872796 0.613936 0.465886 -0.117669
C26   C     C_R   0.822496 0.610748 0.474482 0.515558
N2    N     N_R   0.798545 0.499033 0.491268 -0.353766
C27   C     C_R   0.822454 0.388103 0.497711 0.517212
C28   C     C_R   0.721289 0.530183 0.380225 -0.125522
C29   C     C_R   0.671339 0.530331 0.381367 -0.199255
C30   C     C_R   0.672069 0.457361 0.613173 -0.280553
C31   C     C_R   0.722452 0.462218 0.615436 0.051632
C32   C     C_R   0.747072 0.498060 0.496743 0.269918
O10   O     O_2   0.797452 0.279041 0.508553 -0.561961
C33   C     C_R   0.025508 0.390101 0.468520 0.048285
C34   C     C_R   0.050772 0.506765 0.473563 0.068312
C35   C     C_R   0.025555 0.621606 0.476336 0.062339
C36   C     C_R   0.052254 0.278828 0.455422 -0.215479
H3    H     H_    0.652247 0.558525 0.290844 0.201870
H4    H     H_    0.740206 0.556168 0.288774 0.151815
H5    H     H_    0.879105 0.186590 0.515308 0.197283
H6    H     H_    0.964578 0.185819 0.507642 0.162827
H7    H     H_    0.035570 0.187679 0.441598 0.160779
O11   O     O_2   0.202801 0.731989 0.507313 -0.564823
C37   C     C_R   0.102161 0.734900 0.503868 -0.175509
H8    H     H_    0.348021 0.569693 0.291834 0.154839
H9    H     H_    0.259933 0.574352 0.290449 0.143695
H10   H     H_    0.120962 0.823626 0.520039 0.194957
C38   C     C_R   0.947695 0.729632 0.438325 0.580593
C39   C     C_R   0.897695 0.726402 0.443199 -0.204715
O12   O     O_2   0.797612 0.718400 0.467443 -0.564167
C40   C     C_R   0.052169 0.733991 0.498843 -0.141886
H11   H     H_    0.652808 0.425906 0.701765 0.150788
H12   H     H_    0.878487 0.812728 0.426443 0.216402
H13   H     H_    0.035291 0.822267 0.519712 0.212097
C41   C     C_R   0.488474 0.064268 0.615066 0.096171
C42   C     C_R   0.504377 0.128639 0.501539 -0.094775
C43   C     C_R   0.526328 0.065108 0.394438 -0.222742
H14   H     H_    0.541629 0.114997 0.309334 0.172904
C44   C     C_R   0.526366 0.935357 0.394838 -0.196512
H15   H     H_    0.541818 0.885368 0.310101 0.205513
C45   C     C_R   0.504150 0.871702 0.501868 -0.090202
C46   C     C_R   0.487849 0.936557 0.614388 0.094638
C47   C     C_3   0.439940 0.928779 0.682524 -0.512012
C48   C     C_3   0.440927 0.070892 0.684991 -0.378213
H16   H     H_    0.411175 0.888043 0.615872 0.210849
H17   H     H_    0.442144 0.887026 0.785002 0.203252
H18   H     H_    0.412343 0.113405 0.621369 0.213836
H19   H     H_    0.444688 0.110630 0.788807 0.252526
C49   C     C_R   0.470216 0.420025 0.070049 0.017722
N3    N     N_R   0.499670 0.499140 0.142800 -0.151665
C50   C     C_R   0.532204 0.570748 0.074776 0.601015
C51   C     C_R   0.532455 0.571490 0.931143 -0.166092
N4    N     N_R   0.499670 0.499180 0.857150 -0.182103
C52   C     C_R   0.470186 0.419984 0.927478 0.133704
C53   C     C_3   0.416432 0.418445 0.922582 0.436701
C54   C     C_3   0.416572 0.417255 0.075790 -0.504310
H20   H     H_    0.400946 0.504609 0.878347 0.075256
H21   H     H_    0.401819 0.504359 0.120379 0.162465
H22   H     H_    0.402316 0.328512 0.119631 0.236541
F1    F     F_    0.968453 0.839066 0.398177 -0.693833
C55   C     C_R   0.748265 0.433753 0.743300 0.119990
C56   C     C_R   0.781746 0.520249 0.799149 -0.182159
C57   C     C_R   0.804907 0.494798 0.921791 -0.129436
C58   C     C_R   0.794689 0.383330 0.990086 -0.102713
C59   C     C_R   0.761296 0.297063 0.935762 -0.126725
C60   C     C_R   0.738055 0.322103 0.813100 -0.110219
H23   H     H_    0.789298 0.608316 0.749177 0.154003
H24   H     H_    0.830537 0.561954 0.964385 0.146301
H25   H     H_    0.812509 0.364033 0.085315 0.140870
H26   H     H_    0.753328 0.210844 0.988874 0.144428
H27   H     H_    0.712265 0.254298 0.772305 0.134368
C61   C     C_R   0.251224 0.441583 0.740816 0.097572
C62   C     C_R   0.259064 0.324872 0.801810 -0.077541
C63   C     C_R   0.235474 0.293330 0.921805 -0.113743
C64   C     C_R   0.204097 0.378083 0.982194 -0.108556
C65   C     C_R   0.196323 0.494614 0.922759 -0.141278
C66   C     C_R   0.219883 0.526592 0.802859 -0.161929
H28   H     H_    0.283315 0.258262 0.756222 0.163936
H29   H     H_    0.241604 0.203239 0.968139 0.149831
H30   H     H_    0.185983 0.353715 0.075329 0.146447
H31   H     H_    0.172311 0.560605 0.970174 0.146072
H32   H     H_    0.214360 0.618405 0.760111 0.166490
F2    F     F_    0.563518 0.645219 0.145938 -0.672015
C67   C     C_R   0.568070 0.655031 0.866587 0.254186
C68   C     C_R   0.616577 0.619862 0.861084 -0.099264
C69   C     C_R   0.651715 0.703879 0.813591 -0.134128
C70   C     C_R   0.638821 0.824648 0.774947 -0.106227
C71   C     C_R   0.591039 0.862567 0.787382 -0.164510
C72   C     C_R   0.555964 0.778743 0.835604 -0.083523
H33   H     H_    0.627160 0.528150 0.895774 0.112786
H34   H     H_    0.689007 0.675935 0.808340 0.148052
H35   H     H_    0.666023 0.889705 0.738410 0.148445
H36   H     H_    0.581356 0.957462 0.761737 0.142332
H37   H     H_    0.519524 0.810367 0.850635 0.121105
F3    F     F_    0.398294 0.307697 0.867534 -0.685024

loop_
_geom_bond_atom_site_label_1
_geom_bond_atom_site_label_2
_geom_bond_distance
_ccdc_geom_bond_type
C51   N4    1.384907 A    
N2    C27   1.366382 A    
C1    C42   1.409567 S    
C21   C22   1.386482 A    
C12   C15   1.408283 A    
C4    C17   1.458855 S    
C48   H18   1.112445 S    
C56   C57   1.398233 A    
C53   C54   1.514207 S    
C71   C72   1.398930 A    
C46   C47   1.494467 S    
Zn1   O7    2.014028 S    
C25   C39   1.394810 A    
C59   H26   1.082374 S    
N1    C11   1.425226 S    
C44   C45   1.401554 A    
O4    C2    1.295635 A    
C39   H12   1.083647 S    
C22   C23   1.395182 A    
C37   C40   1.386560 A    
N3    C50   1.357368 A    
C66   H32   1.081615 S    
O7    C4    1.299115 A    
C47   H16   1.112415 S    
C5    C13   1.397895 A    
C40   H13   1.076787 S    
C57   H24   1.082361 S    
C57   C58   1.397089 A    
C38   F1    1.356164 S    
C70   H35   1.082323 S    
C62   C63   1.398508 A    
C5    N1    1.365456 A    
Zn2   N3    2.016653 S    
C61   C66   1.405594 A    
C23   C27   1.398414 A    
O5    C3    1.284795 A    
C64   C65   1.397195 A    
C29   H3    1.083276 S    
C6    O11   1.350060 S    
C2    C16   1.460120 S    
C7    C8    1.386730 A    
C30   H11   1.081070 S    
C61   C62   1.405835 A    
C41   C42   1.389965 A    
C49   C54   1.488628 S    
C8    H8    1.081396 S    
C56   H23   1.082290 S    
C19   C38   1.420085 A    
C58   H25   1.082625 S    
C41   C48   1.494681 S    
C20   C24   1.415183 A    
C55   C60   1.406033 A    
C41   C46   1.361594 A    
C10   C61   1.482674 S    
O3    Zn1   2.009114 S    
C34   C35   1.419500 A    
C45   C46   1.387141 A    
C12   C34   1.415432 A    
C17   C29   1.400677 A    
C18   C21   1.414450 A    
C12   C13   1.408224 A    
C43   C44   1.383592 A    
C44   H15   1.083608 S    
C25   C26   1.397669 A    
C47   C48   1.515215 S    
C8    C16   1.400733 A    
C13   C14   1.395513 A    
C67   C72   1.401558 A    
C9    H1    1.079711 S    
O1    C1    1.281925 A    
C35   C40   1.413267 A    
C18   C20   1.420252 A    
C62   H28   1.083235 S    
C7    C11   1.397657 A    
C28   C29   1.385066 A    
C51   C67   1.471279 S    
C23   C24   1.408309 A    
C14   C36   1.386898 A    
C54   H21   1.110081 S    
C28   H4    1.083379 S    
C53   H20   1.111226 S    
Zn1   N4    2.016399 S    
C3    C45   1.409125 S    
Zn2   O8    2.009114 S    
C33   C36   1.414331 A    
C55   C56   1.406218 A    
N1    C6    1.365074 A    
N2    C32   1.428399 S    
C50   F2    1.357380 S    
C27   O10   1.350029 S    
C49   N3    1.363337 A    
C69   C70   1.396835 A    
C65   H31   1.082379 S    
C63   H29   1.082358 S    
O3    C2    1.296537 A    
C26   N2    1.366579 A    
C9    C16   1.400910 A    
O8    C4    1.292402 A    
C14   H2    1.083593 S    
C26   O12   1.350228 S    
C49   C52   1.408964 A    
C68   C69   1.398941 A    
C50   C51   1.419601 A    
C60   H27   1.083129 S    
Zn1   O5    1.992938 S    
C31   C32   1.412915 A    
C37   H10   1.083596 S    
C65   C66   1.398419 A    
C21   H6    1.077339 S    
O1    Zn1   1.987780 S    
O2    Zn2   1.992939 S    
C6    C15   1.397772 A    
C43   H14   1.083586 S    
O6    C3    1.282294 A    
O4    Zn2   2.014031 S    
C67   C68   1.402984 A    
C19   C35   1.417036 A    
C58   C59   1.397327 A    
O2    C1    1.285278 A    
C52   C53   1.490689 S    
C42   C43   1.400109 A    
C22   H5    1.083624 S    
C15   C37   1.395062 A    
C63   C64   1.397389 A    
C54   H22   1.111689 S    
C48   H19   1.110983 S    
C47   H17   1.110821 S    
C71   H36   1.082205 S    
C24   C25   1.406662 A    
C7    H9    1.083271 S    
C59   C60   1.398529 A    
C68   H33   1.082637 S    
C19   C20   1.421148 A    
C72   H37   1.080794 S    
C18   C33   1.415313 A    
C36   H7    1.077474 S    
C38   C39   1.387348 A    
C53   F3    1.383086 S    
C30   C31   1.397131 A    
C69   H34   1.081851 S    
C31   C55   1.483796 S    
N4    C52   1.363364 A    
Zn2   O6    1.987779 S    
C33   C34   1.418754 A    
C17   C30   1.399398 A    
C10   C11   1.410439 A    
C70   C71   1.396925 A    
C9    C10   1.395508 A    
C28   C32   1.398893 A    
C64   H30   1.082625 S    
C5    O9    1.350075 S    
