data_mof_unit_11717.cif
_audit_creation_date              2012-12-11T14:01:12-0500
_audit_creation_method            fapswitch 2.2
_symmetry_space_group_name_H-M    P1
_symmetry_Int_Tables_number       1
_space_group_crystal_system       triclinic
_cell_length_a                    18.917906
_cell_length_b                    10.930558
_cell_length_c                    18.888528
_cell_angle_alpha                 90.170473
_cell_angle_beta                  90.535489
_cell_angle_gamma                 89.929445
_cell_volume                      3905.64086225

loop_
_atom_site_label
_atom_site_type_symbol
_atom_type_description
_atom_site_fract_x
_atom_site_fract_y
_atom_site_fract_z
_atom_type_partial_charge
C1    C     C_R   0.272186 0.043917 0.852624 0.591889
C2    C     C_R   0.727001 0.042192 0.146606 0.586567
C3    C     C_R   0.773039 0.542066 0.853450 0.574832
C4    C     C_R   0.227851 0.543833 0.147457 0.580877
C5    C     C_R   0.472496 0.039551 0.073251 -0.079459
C6    C     C_R   0.499080 0.062742 0.929288 -0.056105
C7    C     C_R   0.955346 0.547749 0.093801 -0.046981
C8    C     C_R   0.948297 0.560343 0.947298 -0.084736
C9    C     C_R   0.945408 0.659999 0.061224 -0.082742
C10   C     C_R   0.943737 0.666538 0.988128 -0.130020
C11   C     C_R   0.464866 0.152872 0.040403 -0.125500
C12   C     C_R   0.480368 0.165253 0.969027 -0.125459
C13   C     C_2   0.273055 0.656613 0.933049 -0.083628
C14   C     C_2   0.725544 0.649487 0.069169 -0.087145
C15   C     C_2   0.772904 0.152495 0.931125 -0.074618
C16   C     C_2   0.225768 0.157774 0.066723 -0.141987
C17   C     C_2   0.247804 0.588314 0.078324 -0.061044
C18   C     C_2   0.756165 0.582360 0.924231 -0.056932
C19   C     C_2   0.743491 0.083205 0.075927 -0.064339
C20   C     C_2   0.252337 0.088244 0.922007 -0.043928
C21   C     C_2   0.297440 0.533876 0.038455 0.023605
C22   C     C_2   0.728129 0.506814 0.972534 0.020172
C23   C     C_2   0.773892 0.010251 0.027625 0.005474
C24   C     C_2   0.200319 0.037704 0.960359 0.065992
C25   C     C_2   0.293753 0.547940 0.960754 -0.009216
C26   C     C_2   0.740939 0.535219 0.047662 -0.002249
C27   C     C_2   0.761154 0.037052 0.952451 -0.008216
C28   C     C_2   0.202951 0.050743 0.038357 -0.003406
C29   C     C_2   0.498371 0.833433 0.578369 -0.081931
C30   C     C_2   0.508720 0.832041 0.425182 -0.049239
C31   C     C_2   0.998266 0.333390 0.578309 -0.084436
C32   C     C_2   0.008575 0.332054 0.425115 -0.046342
C33   C     C_2   0.501305 0.730162 0.464505 0.123334
C34   C     C_2   0.515951 0.733303 0.540684 0.094256
C35   C     C_2   0.001086 0.230166 0.464410 0.123730
C36   C     C_2   0.015736 0.233230 0.540588 0.091639
C37   C     C_2   0.247523 0.583055 0.576057 -0.011945
C38   C     C_2   0.752656 0.583108 0.423873 -0.021822
C39   C     C_2   0.747517 0.083033 0.576074 -0.012944
C40   C     C_2   0.252638 0.083208 0.423909 -0.023291
C41   C     C_2   0.207926 0.479803 0.433601 -0.078853
C42   C     C_2   0.791734 0.479985 0.566165 -0.085396
C43   C     C_2   0.707933 0.979801 0.433610 -0.080122
C44   C     C_2   0.291726 0.980019 0.566175 -0.085466
C45   C     C_R   0.473788 0.823285 0.851684 0.536438
C46   C     C_R   0.531689 0.820469 0.144238 0.541064
C47   C     C_R   0.939302 0.318355 0.861756 0.541099
C48   C     C_R   0.024125 0.321758 0.150364 0.559642
C49   C     C_2   0.166213 0.548163 0.474389 -0.087488
C50   C     C_2   0.833953 0.546913 0.525313 -0.091073
C51   C     C_2   0.666194 0.048086 0.474421 -0.086571
C52   C     C_2   0.333923 0.047024 0.525353 -0.090256
C53   C     C_2   0.180488 0.563423 0.550701 0.001395
C54   C     C_2   0.819641 0.562223 0.448923 0.000634
C55   C     C_2   0.680485 0.063329 0.550739 0.002148
C56   C     C_2   0.319624 0.062365 0.448976 0.000083
C57   C     C_R   0.275225 0.686388 0.858433 0.589165
C58   C     C_R   0.724269 0.687596 0.141916 0.607760
C59   C     C_R   0.775534 0.188313 0.858126 0.597646
C60   C     C_R   0.224538 0.186591 0.141691 0.551283
C61   C     C_R   0.294772 0.988638 0.642870 0.593808
C62   C     C_R   0.705123 0.988557 0.356985 0.592580
C63   C     C_R   0.794772 0.488640 0.642867 0.595200
C64   C     C_R   0.205120 0.488551 0.356980 0.591053
C65   C     C_R   0.471817 0.823684 0.649122 0.539560
C66   C     C_R   0.529772 0.823638 0.352219 0.563373
C67   C     C_R   0.971789 0.323676 0.649098 0.553667
C68   C     C_R   0.029734 0.323643 0.352190 0.565939
C69   C     C_R   0.259598 0.634722 0.646464 0.521498
C70   C     C_R   0.740358 0.635148 0.353647 0.525610
C71   C     C_R   0.759592 0.134700 0.646478 0.529176
C72   C     C_R   0.240349 0.135181 0.353665 0.505384
C73   C     C_R   0.512564 0.823604 0.068293 0.002400
C74   C     C_R   0.511508 0.837056 0.919777 -0.006728
C75   C     C_R   0.978108 0.328196 0.087007 0.016316
C76   C     C_R   0.952019 0.326919 0.939945 -0.019381
C77   C     C_R   0.495980 0.935993 0.034835 -0.021870
C78   C     C_R   0.502459 0.945315 0.960565 -0.004790
C79   C     C_R   0.962849 0.439473 0.053441 -0.014697
C80   C     C_R   0.953766 0.441983 0.978591 -0.013916
C81   C     C_R   0.534542 0.729645 0.952965 0.077664
C82   C     C_R   0.530236 0.719633 0.026082 0.107456
C83   C     C_R   0.953331 0.215651 0.979674 0.062569
C84   C     C_R   0.961416 0.218572 0.052698 0.120595
Cr1   Cr    Cr6+3 0.230530 0.836340 0.748870 1.061492
Cr2   Cr    Cr6+3 0.769470 0.836340 0.251130 1.067542
Cr3   Cr    Cr6+3 0.730530 0.336340 0.748870 1.044382
Cr4   Cr    Cr6+3 0.269470 0.336340 0.251130 1.056635
Cr5   Cr    Cr6+3 0.387420 0.989430 0.750820 1.033033
Cr6   Cr    Cr6+3 0.612580 0.989430 0.249180 1.034707
Cr7   Cr    Cr6+3 0.887420 0.489430 0.750820 1.028212
Cr8   Cr    Cr6+3 0.112580 0.489430 0.249180 1.041529
Cr9   Cr    Cr6+3 0.385640 0.677860 0.749230 1.027070
Cr10  Cr    Cr6+3 0.614360 0.677860 0.250770 1.068487
Cr11  Cr    Cr6+3 0.885640 0.177860 0.749230 1.027518
Cr12  Cr    Cr6+3 0.114360 0.177860 0.250770 1.059360
H1    H     H_    0.122732 0.599840 0.451190 0.195666
H2    H     H_    0.877835 0.597567 0.548548 0.196618
H3    H     H_    0.622689 0.099720 0.451235 0.195864
H4    H     H_    0.377793 0.097693 0.548604 0.196668
H5    H     H_    0.248040 0.420928 0.457111 0.133014
H6    H     H_    0.751354 0.421607 0.542652 0.128399
H7    H     H_    0.748072 0.920963 0.457110 0.132081
H8    H     H_    0.251353 0.921642 0.542647 0.127456
H9    H     H_    0.458708 0.033801 0.128553 0.137118
H10   H     H_    0.512559 0.076903 0.874409 0.147437
H11   H     H_    0.954728 0.545834 0.151053 0.148896
H12   H     H_    0.948635 0.578652 0.891943 0.184490
H13   H     H_    0.939990 0.742265 0.092773 0.145610
H14   H     H_    0.938413 0.754693 0.962590 0.120303
H15   H     H_    0.448150 0.231681 0.070779 0.124421
H16   H     H_    0.477022 0.254209 0.944155 0.100476
H17   H     H_    0.209209 0.649195 0.054304 0.128925
H18   H     H_    0.784525 0.663208 0.942170 0.064169
H19   H     H_    0.712895 0.161565 0.057800 0.077324
H20   H     H_    0.292101 0.145553 0.947294 0.074544
H21   H     H_    0.261699 0.734221 0.966995 0.048382
H22   H     H_    0.700361 0.712635 0.032429 0.035949
H23   H     H_    0.793328 0.219832 0.968354 0.050556
H24   H     H_    0.238083 0.234919 0.033130 0.072636
H25   H     H_    0.520813 0.919309 0.449485 0.124829
H26   H     H_    0.481883 0.916940 0.552435 0.134990
H27   H     H_    0.020678 0.419298 0.449440 0.124609
H28   H     H_    0.981818 0.416947 0.552405 0.133789
O1    O     O_R   0.215090 0.709860 0.828130 -0.489358
O2    O     O_R   0.784910 0.709860 0.171870 -0.466992
O3    O     O_R   0.715090 0.209860 0.828130 -0.455825
O4    O     O_R   0.284910 0.209860 0.171870 -0.515778
O5    O     O_R   0.445660 0.919250 0.676780 -0.507179
O6    O     O_R   0.554340 0.919250 0.323220 -0.521124
O7    O     O_R   0.945660 0.419250 0.676780 -0.499661
O8    O     O_R   0.054340 0.419250 0.323220 -0.523980
O9    O     O_R   0.456260 0.718170 0.670000 -0.524833
O10   O     O_R   0.543740 0.718170 0.330000 -0.471300
O11   O     O_R   0.956260 0.218170 0.670000 -0.517292
O12   O     O_R   0.043740 0.218170 0.330000 -0.469625
O13   O     O_R   0.320940 0.626760 0.674370 -0.497778
O14   O     O_R   0.679060 0.626760 0.325630 -0.498144
O15   O     O_R   0.820940 0.126760 0.674370 -0.496184
O16   O     O_R   0.179060 0.126760 0.325630 -0.504899
O17   O     O_3   0.334530 0.834540 0.749640 -0.315846
O18   O     O_3   0.665470 0.834540 0.250360 -0.330767
O19   O     O_3   0.834530 0.334540 0.749640 -0.331615
O20   O     O_3   0.165470 0.334540 0.250360 -0.316864
O21   O     O_R   0.236990 0.958390 0.823710 -0.481998
O22   O     O_R   0.763010 0.958390 0.176290 -0.473261
O23   O     O_R   0.736990 0.458390 0.823710 -0.490422
O24   O     O_R   0.263010 0.458390 0.176290 -0.464548
O25   O     O_R   0.332380 0.074750 0.830850 -0.512744
O26   O     O_R   0.667620 0.074750 0.169150 -0.512046
O27   O     O_R   0.832380 0.574750 0.830850 -0.540759
O28   O     O_R   0.167620 0.574750 0.169150 -0.501028
O29   O     O_R   0.445800 0.917770 0.825070 -0.515697
O30   O     O_R   0.554200 0.917770 0.174930 -0.520306
O31   O     O_R   0.945800 0.417770 0.825070 -0.511488
O32   O     O_R   0.054200 0.417770 0.174930 -0.520729
O33   O     O_R   0.456410 0.716580 0.829970 -0.528695
O34   O     O_R   0.543590 0.716580 0.170030 -0.470638
O35   O     O_R   0.956410 0.216580 0.829970 -0.511466
O36   O     O_R   0.043590 0.216580 0.170030 -0.468242
O37   O     O_R   0.321080 0.625290 0.822650 -0.453365
O38   O     O_R   0.678920 0.625290 0.177350 -0.455916
O39   O     O_R   0.821080 0.125290 0.822650 -0.487786
O40   O     O_R   0.178920 0.125290 0.177350 -0.495698
O41   O     O_R   0.214930 0.711450 0.668160 -0.518341
O42   O     O_R   0.785070 0.711450 0.331840 -0.519468
O43   O     O_R   0.714930 0.211450 0.668160 -0.517384
O44   O     O_R   0.285070 0.211450 0.331840 -0.518856
O45   O     O_R   0.236850 0.959870 0.675420 -0.475439
O46   O     O_R   0.763150 0.959870 0.324580 -0.470475
O47   O     O_R   0.736850 0.459870 0.675420 -0.479760
O48   O     O_R   0.263150 0.459870 0.324580 -0.470288
O49   O     O_R   0.332230 0.076350 0.670880 -0.490656
O50   O     O_R   0.667770 0.076350 0.329120 -0.490213
O51   O     O_R   0.832230 0.576350 0.670880 -0.491152
O52   O     O_R   0.167770 0.576350 0.329120 -0.497433
N1    N     N_3   0.561680 0.627680 0.913141 -0.654202
H29   H     H_    0.520544 0.566284 0.902688 0.245539
H30   H     H_    0.583221 0.657610 0.865437 0.254587
N2    N     N_3   0.543246 0.601613 0.057096 -0.565254
H31   H     H_    0.507930 0.538887 0.034815 0.216014
H32   H     H_    0.593954 0.572755 0.043907 0.253825
N3    N     N_3   0.951539 0.095914 0.948107 -0.659105
H33   H     H_    0.905868 0.083421 0.918124 0.263939
H34   H     H_    0.996719 0.082115 0.917840 0.270104
N4    N     N_3   0.954948 0.107930 0.092999 -0.569134
H35   H     H_    0.902284 0.080762 0.091210 0.254269
H36   H     H_    0.987354 0.039527 0.072001 0.274756
C85   C     C_2   0.117938 0.567556 0.597736 0.248255
H37   H     H_    0.122914 0.542668 0.653149 0.135148
O53   O     O_2   0.060416 0.600768 0.575094 -0.512605
C86   C     C_2   0.881991 0.565392 0.401640 0.250327
H38   H     H_    0.876650 0.540945 0.346106 0.136818
O54   O     O_2   0.939751 0.597434 0.424203 -0.514809
C87   C     C_2   0.617960 0.067398 0.597811 0.245955
H39   H     H_    0.622965 0.042420 0.653211 0.135683
O55   O     O_2   0.560435 0.100695 0.575221 -0.514135
C88   C     C_2   0.381999 0.065530 0.401729 0.249730
H40   H     H_    0.376680 0.041157 0.346186 0.121372
O56   O     O_2   0.439766 0.097447 0.424338 -0.512779
C89   C     C_2   0.310615 0.590616 0.530222 0.197857
H41   H     H_    0.358524 0.542801 0.545791 0.109446
O57   O     O_2   0.310877 0.656992 0.478308 -0.515280
C90   C     C_2   0.690332 0.591648 0.470618 0.218346
H42   H     H_    0.644561 0.535049 0.459901 0.128621
O58   O     O_2   0.689090 0.665605 0.519182 -0.501996
C91   C     C_2   0.810586 0.090719 0.530219 0.196653
H43   H     H_    0.858519 0.042950 0.545758 0.108798
O59   O     O_2   0.810799 0.157148 0.478328 -0.511857
C92   C     C_2   0.190288 0.091742 0.470631 0.221758
H44   H     H_    0.144440 0.035406 0.459767 0.127704
O60   O     O_2   0.189090 0.165467 0.519314 -0.500467
N5    N     N_3   0.347967 0.451189 0.069528 -0.583995
H45   H     H_    0.397655 0.473124 0.049972 0.213764
H46   H     H_    0.336008 0.362211 0.053321 0.214923
N6    N     N_3   0.691416 0.396604 0.952476 -0.618992
H47   H     H_    0.645621 0.422311 0.924941 0.264377
H48   H     H_    0.673756 0.351769 0.997766 0.210033
N7    N     N_3   0.817040 0.907617 0.047569 -0.605344
H49   H     H_    0.866980 0.921091 0.025912 0.230746
H50   H     H_    0.797630 0.830267 0.022197 0.205179
N8    N     N_3   0.147715 0.961201 0.927308 -0.566446
H51   H     H_    0.098892 0.981367 0.949852 0.255730
H52   H     H_    0.159788 0.869888 0.938161 0.270181
C93   C     C_2   0.306777 0.436591 0.917080 0.258366
H53   H     H_    0.348274 0.372840 0.931877 0.072546
O61   O     O_2   0.268940 0.411957 0.866280 -0.464068
C94   C     C_2   0.772665 0.437968 0.093289 0.252428
H54   H     H_    0.785427 0.350052 0.070083 0.091069
O62   O     O_2   0.786552 0.454402 0.155808 -0.476495
C95   C     C_2   0.731737 0.937507 0.906550 0.249941
H55   H     H_    0.719098 0.849926 0.929767 0.083160
O63   O     O_2   0.718823 0.952015 0.843719 -0.470318
C96   C     C_2   0.188681 0.941272 0.082933 0.249262
H56   H     H_    0.219548 0.925498 0.130772 0.132181
O64   O     O_2   0.142057 0.868707 0.067411 -0.541269
N9    N     N_3   0.483696 0.614554 0.432090 -0.545191
H57   H     H_    0.439283 0.579312 0.456930 0.256676
H58   H     H_    0.525176 0.553222 0.440715 0.248770
N10   N     N_3   0.541756 0.622575 0.573265 -0.583154
H59   H     H_    0.498946 0.566747 0.586069 0.246486
H60   H     H_    0.571378 0.642957 0.618825 0.276236
N11   N     N_3   0.983488 0.114586 0.431953 -0.543427
H61   H     H_    0.939067 0.079309 0.456760 0.256854
H62   H     H_    0.024969 0.053248 0.440567 0.248396
N12   N     N_3   0.041502 0.122434 0.573119 -0.582314
H63   H     H_    0.998671 0.066710 0.586000 0.246906
H64   H     H_    0.071236 0.142739 0.618616 0.280766

loop_
_geom_bond_atom_site_label_1
_geom_bond_atom_site_label_2
_ccdc_geom_bond_type
Cr12  O16   S    
C16   C28   D    
C55   C87   S    
C38   C70   S    
C3    O23   A    
Cr4   O48   S    
C22   N6    S    
Cr2   O2    S    
C36   N12   S    
C89   H41   S    
C95   H55   S    
C84   N4    S    
C35   C36   S    
C32   H27   S    
Cr5   O49   S    
Cr6   O26   S    
C18   H18   S    
Cr3   O3    S    
C81   C82   A    
C89   O57   D    
C17   H17   S    
Cr12  O12   S    
C5    H9    S    
C77   C78   A    
Cr8   O52   S    
C35   N11   S    
C48   O36   A    
C69   O41   A    
Cr4   O44   S    
C50   C54   S    
C75   C79   A    
C54   C86   S    
C2    O26   A    
Cr11  O35   S    
Cr8   O8    S    
Cr1   O21   S    
C47   C76   S    
C5    C11   A    
C37   C69   S    
N3    H34   S    
Cr9   O13   S    
C6    C12   A    
C49   C53   S    
C75   C84   A    
C6    C78   A    
Cr7   O7    S    
C59   O3    A    
N11   H61   S    
C62   O50   A    
C40   C92   S    
Cr5   O5    S    
C91   O59   D    
C3    C18   S    
C68   O8    A    
C16   C60   S    
C85   O53   D    
Cr10  O10   S    
C93   O61   D    
C66   O10   A    
C68   O12   A    
Cr1   O1    S    
C39   C55   D    
C20   C24   D    
C26   C94   S    
N11   H62   S    
C39   C91   S    
Cr8   O28   S    
C1    O25   A    
C88   H40   S    
C23   C27   S    
C64   O52   A    
C18   C22   D    
C34   N10   S    
C9    C10   A    
Cr10  O38   S    
C56   C88   S    
C41   H5    S    
C23   N7    S    
C32   C68   S    
C37   C53   D    
C44   C52   D    
Cr5   O25   S    
C48   O32   A    
N1    H30   S    
Cr10  O34   S    
C38   C90   S    
N9    H57   S    
N4    H36   S    
C69   O13   A    
C90   H42   S    
C72   O44   A    
C48   C75   S    
C13   C25   D    
N8    H51   S    
C45   O29   A    
C96   O64   D    
C62   O46   A    
C8    H12   S    
C76   C83   A    
C41   C49   D    
C94   H54   S    
Cr7   O27   S    
N2    H32   S    
C33   C34   S    
Cr7   O19   S    
N5    H46   S    
C9    H13   S    
C63   O51   A    
C14   C58   S    
N12   H64   S    
C50   H2    S    
C11   H15   S    
C91   H43   S    
Cr10  O18   S    
C32   C35   D    
C76   C80   A    
C60   O4    A    
C61   O49   A    
N6    H47   S    
C95   O63   D    
Cr1   O17   S    
N7    H49   S    
C20   H20   S    
C63   O47   A    
C47   O35   A    
C51   C55   S    
C40   C56   D    
N8    H52   S    
N5    H45   S    
C29   C34   D    
C52   H4    S    
Cr1   O45   S    
Cr5   O29   S    
Cr12  O40   S    
C45   C74   S    
C4    O24   A    
C86   O54   D    
C64   O48   A    
C19   C23   D    
N3    H33   S    
Cr7   O31   S    
C67   O11   A    
Cr11  O39   S    
C65   O5    A    
Cr12  O20   S    
C51   H3    S    
C96   H56   S    
C15   C27   D    
C83   C84   A    
C38   C54   D    
C30   H25   S    
C19   H19   S    
Cr7   O51   S    
Cr3   O47   S    
C29   H26   S    
N10   H60   S    
Cr11  O11   S    
C6    H10   S    
C45   O33   A    
Cr8   O32   S    
Cr6   O18   S    
C14   C26   D    
C4    O28   A    
Cr9   O33   S    
C30   C66   S    
Cr3   O23   S    
C42   C50   D    
C29   C65   S    
C4    C17   S    
C46   O30   A    
C27   C95   S    
Cr12  O36   S    
C90   O58   D    
Cr9   O37   S    
C58   O2    A    
C92   O60   D    
N9    H58   S    
C22   C26   S    
C94   O62   D    
Cr10  O14   S    
C21   N5    S    
C79   C80   A    
C61   O45   A    
C1    O21   A    
C74   C81   A    
C5    C77   A    
C58   O38   A    
C73   C82   A    
C12   H16   S    
Cr9   O17   S    
N2    H31   S    
Cr2   O18   S    
C7    C79   A    
C7    C9    A    
C21   C25   S    
N12   H63   S    
C83   N3    S    
C1    C20   S    
C37   C89   S    
C40   C72   S    
C30   C33   D    
C93   H53   S    
C2    C19   S    
Cr2   O46   S    
Cr11  O15   S    
N1    H29   S    
C67   O7    A    
Cr11  O19   S    
C24   C28   S    
Cr2   O22   S    
C3    O27   A    
C43   H7    S    
C66   O6    A    
C31   H28   S    
C71   O15   A    
C11   C12   A    
C44   H8    S    
C24   N8    S    
C44   C61   S    
C2    O22   A    
Cr3   O43   S    
Cr6   O50   S    
Cr9   O9    S    
C15   C59   S    
C14   H22   S    
Cr1   O41   S    
C86   H38   S    
C16   H24   S    
C81   N1    S    
Cr4   O4    S    
C42   H6    S    
C57   O1    A    
Cr4   O24   S    
C70   O14   A    
C43   C51   D    
Cr6   O30   S    
C47   O31   A    
Cr5   O17   S    
C71   O43   A    
C25   C93   S    
N10   H59   S    
C60   O40   A    
C57   O37   A    
C15   H23   S    
C10   H14   S    
C7    H11   S    
N7    H50   S    
C85   H37   S    
Cr8   O20   S    
C17   C21   D    
C70   O42   A    
C33   N9    S    
C31   C67   S    
C49   H1    S    
C87   H39   S    
Cr6   O6    S    
C52   C56   S    
C72   O16   A    
C13   C57   S    
Cr2   O42   S    
C8    C10   A    
C92   H44   S    
C74   C78   A    
C82   N2    S    
C13   H21   S    
C8    C80   A    
C59   O39   A    
C73   C77   A    
C31   C36   D    
C88   O56   D    
C41   C64   S    
Cr3   O19   S    
N4    H35   S    
C53   C85   S    
C42   C63   S    
Cr4   O20   S    
C46   C73   S    
C65   O9    A    
N6    H48   S    
C43   C62   S    
C28   C96   S    
C87   O55   D    
C39   C71   S    
C46   O34   A    
