data_mof_unit_21036.cif
_audit_creation_date              2012-12-10T17:43:38-0500
_audit_creation_method            fapswitch 2.2
_symmetry_space_group_name_H-M    P1
_symmetry_Int_Tables_number       1
_space_group_crystal_system       triclinic
_cell_length_a                    14.968109
_cell_length_b                    10.711719
_cell_length_c                    9.98026
_cell_angle_alpha                 92.35947
_cell_angle_beta                  88.436026
_cell_angle_gamma                 93.103285
_cell_volume                      1595.97171281

loop_
_atom_site_label
_atom_site_type_symbol
_atom_type_description
_atom_site_fract_x
_atom_site_fract_y
_atom_site_fract_z
_atom_type_partial_charge
C1    C     C_R   0.512017 0.262563 0.497814 0.969997
C2    C     C_R   0.179598 0.400865 0.443319 0.299807
C3    C     C_R   0.229712 0.499752 0.506633 -0.203715
C4    C     C_R   0.326674 0.499493 0.501800 0.989767
C5    C     C_R   0.186915 0.597025 0.576981 -0.092066
C6    C     C_R   0.601776 0.134212 0.718683 0.399242
C7    C     C_R   0.599619 0.085030 0.845845 -0.151342
C8    C     C_R   0.551574 0.973383 0.868384 -0.208486
C9    C     C_R   0.514418 0.903542 0.761101 -0.179595
C10   C     C_R   0.520644 0.948395 0.629021 0.056930
C11   C     C_R   0.551883 0.073032 0.613689 0.021000
C12   C     C_R   0.908369 0.618930 0.542112 0.047066
C13   C     C_R   0.529985 0.131407 0.494995 -0.110355
C14   C     C_R   0.504459 0.060536 0.381577 -0.146743
C15   C     C_R   0.488897 0.934009 0.389106 -0.077199
C16   C     C_R   0.497165 0.740662 0.503524 0.921323
C17   C     C_R   0.497535 0.876046 0.510821 -0.096263
C18   C     C_R   0.413090 0.302266 0.134879 -0.165618
C19   C     C_R   0.388362 0.191298 0.064780 0.390826
C20   C     C_R   0.392131 0.187750 0.926373 -0.289921
C21   C     C_R   0.406812 0.299768 0.860522 -0.061333
C22   C     C_R   0.454102 0.403283 0.926347 0.116779
C23   C     C_R   0.941085 0.294271 0.407899 -0.226667
C24   C     C_R   0.455964 0.403267 0.069978 0.074647
C25   C     C_R   0.546911 0.589314 0.072081 0.031247
C26   C     C_R   0.545320 0.589913 0.929692 -0.125818
C27   C     C_R   0.672368 0.505574 0.498412 0.900504
C28   C     C_R   0.814855 0.615582 0.543793 -0.209823
C29   C     C_R   0.767091 0.509879 0.493741 -0.012103
C30   C     C_R   0.808895 0.406594 0.440700 -0.133587
C31   C     C_R   0.900747 0.404315 0.445429 0.101606
C32   C     C_R   0.951389 0.510014 0.496673 0.092275
C33   C     C_2   0.607169 0.682617 0.140284 0.954777
C34   C     C_R   0.032449 0.285903 0.420669 -0.026259
C35   C     C_2   0.331812 0.316654 0.773219 1.011366
C36   C     C_2   0.064827 0.157883 0.417833 1.056997
C37   C     C_2   0.236050 0.678560 0.677270 0.987045
C38   C     C_2   0.108016 0.844590 0.599349 0.930399
C39   C     C_2   0.914717 0.846568 0.614819 0.924689
C40   C     C_R   0.086052 0.395159 0.457394 -0.005118
C41   C     C_R   0.044223 0.505427 0.503520 0.013521
C42   C     C_R   0.095031 0.610206 0.557191 -0.004293
C43   C     C_R   0.053141 0.724792 0.587323 -0.107343
C44   C     C_R   0.959140 0.727707 0.583995 -0.090050
Cl1   Cl    Cl    0.682353 0.255460 0.689425 -0.630806
Cl2   Cl    Cl    0.338209 0.062753 0.147388 -0.523738
Cl3   Cl    Cl    0.234028 0.290368 0.338580 -0.559932
H1    H     H_    0.778190 0.694084 0.583276 0.149980
H2    H     H_    0.900022 0.211610 0.378122 0.198238
H3    H     H_    0.493235 0.103615 0.287992 0.193882
H4    H     H_    0.723953 0.719198 0.233656 0.353207
H5    H     H_    0.257323 0.245041 0.620894 0.377510
H6    H     H_    0.059766 0.984106 0.331386 0.380453
H7    H     H_    0.332575 0.812184 0.712676 0.341536
H8    H     H_    0.213921 0.948039 0.526387 0.404092
H9    H     H_    0.881396 0.978669 0.754201 0.366360
H10   H     H_    0.635463 0.133152 0.927228 0.185864
H11   H     H_    0.545623 0.938766 0.968463 0.224684
H12   H     H_    0.477858 0.818336 0.786730 0.192809
H13   H     H_    0.468100 0.881822 0.299106 0.226421
H14   H     H_    0.395865 0.309306 0.238134 0.260491
H15   H     H_    0.362516 0.105579 0.873863 0.221084
H16   H     H_    0.769186 0.325584 0.402571 0.156666
H17   H     H_    0.583678 0.661838 0.876671 0.145566
N1    N     N_R   0.499150 0.498800 0.142780 -0.149055
N2    N     N_R   0.499120 0.498720 0.857170 -0.115883
O1    O     O_R   0.500000 0.316780 0.614690 -0.603590
O2    O     O_R   0.687429 0.646435 0.190833 -0.760560
O3    O     O_2   0.277016 0.393782 0.805935 -0.582489
O4    O     O_R   0.316352 0.232883 0.664171 -0.788415
O5    O     O_2   0.114863 0.128738 0.504554 -0.594843
O6    O     O_R   0.034300 0.068834 0.320898 -0.736982
O7    O     O_2   0.208337 0.684354 0.793658 -0.540037
O8    O     O_R   0.310918 0.752504 0.637729 -0.805669
O9    O     O_2   0.097225 0.917473 0.695189 -0.503331
O10   O     O_R   0.174637 0.870884 0.501950 -0.758017
O11   O     O_2   0.878040 0.898114 0.525798 -0.617698
O12   O     O_R   0.499990 0.316750 0.385360 -0.666361
O13   O     O_R   0.913955 0.898030 0.745764 -0.714155
O14   O     O_R   0.367850 0.499980 0.614680 -0.612851
O15   O     O_R   0.367840 0.499960 0.385350 -0.584989
O16   O     O_R   0.500010 0.683250 0.614640 -0.638808
O17   O     O_R   0.500000 0.683220 0.385310 -0.623162
O18   O     O_R   0.632160 0.500040 0.614650 -0.575042
O19   O     O_R   0.632150 0.500020 0.385320 -0.595529
O20   O     O_2   0.589995 0.792790 0.144076 -0.682240
Zn1   Zn    Zn3+2 0.500010 0.500020 0.653130 1.010370
Zn2   Zn    Zn3+2 0.499990 0.499980 0.346870 1.006856

loop_
_geom_bond_atom_site_label_1
_geom_bond_atom_site_label_2
_ccdc_geom_bond_type
C37   O8    S    
C6    Cl1   S    
C5    C37   S    
C27   C29   S    
C15   H13   S    
C19   C20   A    
O18   Zn1   S    
C43   C44   A    
C19   Cl2   S    
C7    C8    A    
C38   O10   S    
H9    O13   S    
C12   C28   A    
C34   C40   A    
C39   O11   D    
C21   C22   A    
C28   C29   A    
C4    O14   A    
O14   Zn1   S    
C30   C31   A    
C23   H2    S    
C10   C17   A    
O16   Zn1   S    
C18   C19   A    
C41   C42   A    
C27   O19   A    
C26   H17   S    
C22   N2    A    
C8    H11   S    
H7    O8    S    
C28   H1    S    
C4    O15   A    
C35   O4    S    
C8    C9    A    
C32   C41   A    
C18   C24   A    
C9    C10   A    
C36   O5    D    
O17   Zn2   S    
C13   C14   A    
C12   C32   A    
C1    O12   A    
C38   O9    D    
C26   N2    A    
C25   N1    A    
C6    C11   A    
C16   C17   S    
C25   C26   A    
C16   O17   A    
C9    H12   S    
C39   O13   S    
C33   O20   D    
C29   C30   A    
C31   C32   A    
C23   C34   A    
C16   O16   A    
C39   C44   S    
C24   N1    A    
H8    O10   S    
C40   C41   A    
C22   C24   A    
C1    C13   S    
C42   C43   A    
C3    C4    S    
N2    Zn1   S    
C5    C42   A    
N1    Zn2   S    
O19   Zn2   S    
O12   Zn2   S    
C15   C17   A    
C37   O7    D    
C27   O18   A    
C3    C5    A    
C18   H14   S    
C6    C7    A    
C21   C35   S    
C2    Cl3   S    
O1    Zn1   S    
C2    C3    A    
C38   C43   S    
C12   C44   A    
C11   C13   A    
C14   H3    S    
C1    O1    A    
C34   C36   S    
H4    O2    S    
C20   H15   S    
O15   Zn2   S    
H5    O4    S    
C10   C11   A    
C2    C40   A    
C20   C21   A    
C35   O3    D    
C25   C33   S    
C14   C15   A    
C30   H16   S    
H6    O6    S    
C7    H10   S    
C36   O6    S    
C33   O2    S    
C23   C31   A    
