data_mof_unit_63186.cif
_audit_creation_date              2012-12-10T17:52:53-0500
_audit_creation_method            fapswitch 2.2
_symmetry_space_group_name_H-M    P1
_symmetry_Int_Tables_number       1
_space_group_crystal_system       triclinic
_cell_length_a                    18.845087
_cell_length_b                    18.784996
_cell_length_c                    18.639962
_cell_angle_alpha                 109.382091
_cell_angle_beta                  109.436726
_cell_angle_gamma                 109.973906
_cell_volume                      5055.60729051

loop_
_atom_site_label
_atom_site_type_symbol
_atom_type_description
_atom_site_fract_x
_atom_site_fract_y
_atom_site_fract_z
_atom_type_partial_charge
C1    C     C_R   0.121915 0.120349 0.501989 0.835324
C2    C     C_R   0.328040 0.320439 0.582032 -0.162712
C3    C     C_R   0.266219 0.257331 0.585013 0.445864
C4    C     C_R   0.119496 0.000074 0.620451 0.844367
C5    C     C_R   0.190090 0.187078 0.504545 -0.134043
C6    C     C_R   0.740888 0.921130 0.245630 -0.312875
C7    C     C_R   0.674803 0.919008 0.181047 0.463954
C8    C     C_R   0.686592 0.998410 0.184880 -0.081867
C9    C     C_R   0.762929 0.078175 0.250891 -0.307294
C10   C     C_R   0.828004 0.080192 0.315501 -0.000131
C11   C     C_R   0.816097 0.001120 0.312672 -0.102720
C12   C     C_R   0.270909 0.032547 0.691725 0.087752
C13   C     C_R   0.820236 0.741249 0.498043 -0.178165
C14   C     C_R   0.756942 0.678017 0.499474 -0.174691
C15   C     C_R   0.686156 0.686325 0.499835 -0.008320
C16   C     C_R   0.879726 0.879706 0.499897 0.853758
C17   C     C_R   0.678645 0.757839 0.500114 -0.168487
C18   C     C_R   0.743290 0.822398 0.501353 -0.174543
C19   C     C_R   0.813430 0.813452 0.499667 -0.013799
C20   C     C_R   0.499633 0.879517 0.879703 0.898926
C21   C     C_R   0.379936 0.994692 0.874066 0.878557
C22   C     C_R   0.499475 0.120263 0.119621 0.926355
C23   C     C_R   0.189275 0.004767 0.686835 -0.052888
C24   C     C_R   0.620218 0.999246 0.119580 0.914300
C25   C     C_R   0.500355 0.619937 0.620504 0.865661
C26   C     C_R   0.379914 0.379973 0.500248 0.869873
C27   C     C_R   0.499510 0.379731 0.379415 0.881356
C28   C     C_R   0.880792 0.000499 0.379529 0.892071
C29   C     C_R   0.620129 0.620319 0.500054 0.860838
C30   C     C_R   0.576427 0.826293 0.815661 -0.200968
C31   C     C_R   0.577940 0.762916 0.753138 -0.043658
C32   C     C_R   0.499404 0.683924 0.687600 -0.191524
C33   C     C_R   0.419197 0.668170 0.684346 0.405425
C34   C     C_R   0.170317 0.971942 0.738823 -0.212255
C35   C     C_R   0.418176 0.734054 0.745465 -0.054742
C36   C     C_R   0.497504 0.812062 0.812298 -0.148472
C37   C     C_R   0.488269 0.252165 0.170664 0.457138
C38   C     C_R   0.487335 0.315512 0.235263 -0.295641
C39   C     C_R   0.498506 0.313308 0.312319 -0.059127
C40   C     C_R   0.292158 0.073702 0.644869 -0.199337
C41   C     C_R   0.509115 0.247809 0.325456 -0.170758
C42   C     C_R   0.507937 0.183601 0.260900 -0.276332
C43   C     C_R   0.498518 0.186487 0.184571 -0.056689
C44   C     C_R   0.371484 0.097967 0.647256 -0.246454
C45   C     C_R   0.232701 0.966141 0.797022 -0.163379
C46   C     C_R   0.427534 0.073234 0.688521 0.470349
C47   C     C_R   0.404826 0.028075 0.731630 -0.037529
C48   C     C_R   0.331572 0.017416 0.743359 -0.032434
C49   C     C_1   0.907104 0.163242 0.382117 0.187115
C50   C     C_1   0.660217 0.781560 0.755833 0.201424
C51   C     C_1   0.334867 0.721129 0.737238 0.302466
C52   C     C_1   0.442242 0.973965 0.739077 0.260666
C53   C     C_R   0.313653 0.989659 0.801321 -0.095874
C54   C     C_R   0.177298 0.181573 0.424134 -0.208020
C55   C     C_R   0.239037 0.246000 0.422668 -0.173779
C56   C     C_R   0.314333 0.314649 0.501528 -0.110973
H1    H     H_    0.106966 0.950783 0.734242 0.148057
H2    H     H_    0.479399 0.367005 0.226313 0.149672
H3    H     H_    0.517187 0.245859 0.384992 0.161338
H4    H     H_    0.515831 0.132539 0.270926 0.163675
H5    H     H_    0.386540 0.131088 0.612031 0.151270
H6    H     H_    0.217798 0.944451 0.839985 0.171799
H7    H     H_    0.118731 0.128167 0.362711 0.164808
H8    H     H_    0.228890 0.241648 0.360262 0.162076
H9    H     H_    0.386858 0.374506 0.642879 0.173720
H10   H     H_    0.241256 0.214008 0.661033 0.337283
H11   H     H_    0.602735 0.791925 0.120720 0.334215
H12   H     H_    0.733354 0.860856 0.244583 0.148069
H13   H     H_    0.353299 0.542151 0.601356 0.334069
H14   H     H_    0.471032 0.302323 0.094668 0.336114
H15   H     H_    0.508027 0.119163 0.650127 0.332443
H16   H     H_    0.771168 0.138834 0.252422 0.174879
H17   H     H_    0.874986 0.734802 0.497182 0.149817
H18   H     H_    0.762283 0.622218 0.498928 0.148708
H19   H     H_    0.623810 0.764183 0.500838 0.150732
H20   H     H_    0.738111 0.878369 0.502271 0.150301
H21   H     H_    0.636875 0.887039 0.867150 0.169779
H22   H     H_    0.247836 0.087946 0.606403 0.143027
N1    N     N_1   0.970483 0.229650 0.435407 -0.172226
N2    N     N_1   0.725953 0.796441 0.757858 -0.189653
N3    N     N_1   0.268334 0.710845 0.730561 -0.183823
N4    N     N_1   0.471809 0.929505 0.740645 -0.193514
O1    O     O_R   0.091590 0.143330 0.551700 -0.604729
O2    O     O_R   0.551730 0.591680 0.643420 -0.613382
O3    O     O_R   0.356670 0.408480 0.448390 -0.614531
O4    O     O_R   0.091620 0.039900 0.448280 -0.620785
O5    O     O_R   0.460120 0.408460 0.551810 -0.627138
O6    O     O_R   0.448270 0.408490 0.356760 -0.621846
O7    O     O_R   0.551720 0.408480 0.460170 -0.625269
O8    O     O_R   0.539880 0.591710 0.448370 -0.623997
O9    O     O_R   0.643330 0.591700 0.551790 -0.613591
O10   O     O_R   0.091610 0.051730 0.643330 -0.618318
O11   O     O_R   0.091640 0.948310 0.539920 -0.616579
O12   O     O_R   0.551760 0.960180 0.908450 -0.618341
O13   O     O_R   0.908380 0.960100 0.551720 -0.619624
O14   O     O_R   0.908410 0.856670 0.448300 -0.621552
O15   O     O_R   0.908360 0.051690 0.460080 -0.613376
O16   O     O_R   0.908390 0.948270 0.356670 -0.618532
O17   O     O_R   0.448330 0.856720 0.908450 -0.616719
O18   O     O_3   0.284052 0.266974 0.666952 -0.756262
O19   O     O_3   0.599795 0.840912 0.113267 -0.753180
O20   O     O_3   0.341214 0.589915 0.622837 -0.745124
O21   O     O_3   0.477707 0.251892 0.093538 -0.757421
O22   O     O_3   0.502143 0.087624 0.683121 -0.759064
O23   O     O_R   0.356660 0.948290 0.908410 -0.628267
O24   O     O_R   0.460090 0.051750 0.908420 -0.601099
O25   O     O_R   0.448250 0.039900 0.091630 -0.637407
O26   O     O_R   0.551680 0.143360 0.091630 -0.581726
O27   O     O_R   0.539910 0.948330 0.091670 -0.572475
O28   O     O_R   0.643340 0.051790 0.091670 -0.644628
O29   O     O_R   0.448280 0.591700 0.540000 -0.600470
Zn1   Zn    Zn3+2 0.999980 0.069060 0.569050 0.999735
Zn2   Zn    Zn3+2 0.000020 0.930940 0.430950 0.975180
Zn3   Zn    Zn3+2 0.430940 0.930960 0.000040 1.011530
Zn4   Zn    Zn3+2 0.569060 0.069120 0.000040 1.017775
Zn5   Zn    Zn3+2 0.430920 0.500100 0.431040 0.990456
Zn6   Zn    Zn3+2 0.569080 0.500080 0.569140 0.981058

loop_
_geom_bond_atom_site_label_1
_geom_bond_atom_site_label_2
_ccdc_geom_bond_type
C28   O15   A    
C8    C9    A    
H15   O22   S    
C12   C40   A    
C41   C42   A    
C54   C55   A    
C35   C36   A    
C9    H16   S    
C12   C48   A    
C2    H9    S    
O17   Zn3   S    
C7    C8    A    
C39   C41   A    
H13   O20   S    
C12   C23   A    
O4    Zn2   S    
C1    C5    S    
C14   H18   S    
O26   Zn4   S    
O5    Zn6   S    
O13   Zn1   S    
C16   C19   S    
C30   C31   A    
C54   H7    S    
C22   O25   A    
C45   H6    S    
C15   C17   A    
C18   C19   A    
H10   O18   S    
C8    C24   S    
C38   H2    S    
C30   H21   S    
C3    O18   S    
C47   C48   A    
C27   C39   S    
C26   O5    A    
C34   H1    S    
O9    Zn6   S    
O29   Zn5   S    
O8    Zn5   S    
C9    C10   A    
C51   N3    T    
C21   O24   A    
C25   C32   S    
C6    H12   S    
C45   C53   A    
C13   C14   A    
C29   O8    A    
C44   C46   A    
C15   C29   S    
C48   C53   A    
C16   O14   A    
C13   C19   A    
C33   O20   S    
O23   Zn3   S    
C24   O28   A    
C41   H3    S    
C42   H4    S    
C6    C11   A    
C37   O21   S    
O15   Zn1   S    
C25   O29   A    
H14   O21   S    
O10   Zn1   S    
O16   Zn2   S    
C46   O22   S    
C49   N1    T    
C50   N2    T    
O6    Zn5   S    
O25   Zn3   S    
C37   C38   A    
C25   O2    A    
C5    C54   A    
C31   C32   A    
C23   C34   A    
C55   H8    S    
C55   C56   A    
C17   C18   A    
C34   C45   A    
O11   Zn2   S    
C52   N4    T    
C47   C52   S    
O27   Zn3   S    
O7    Zn6   S    
C35   C51   S    
C40   H22   S    
C37   C43   A    
C42   C43   A    
C31   C50   S    
C29   O9    A    
H11   O19   S    
C28   O16   A    
C1    O4    A    
C4    C23   S    
C20   O12   A    
C46   C47   A    
C16   O13   A    
C18   H20   S    
O1    Zn1   S    
O3    Zn5   S    
C24   O27   A    
C13   H17   S    
C3    C5    A    
C26   C56   S    
O12   Zn4   S    
C6    C7    A    
C44   H5    S    
C1    O1    A    
C30   C36   A    
O24   Zn4   S    
C32   C33   A    
C2    C3    A    
C2    C56   A    
C21   C53   S    
C38   C39   A    
C20   O17   A    
C11   C28   S    
C26   O3    A    
C22   O26   A    
C33   C35   A    
C27   O7    A    
C27   O6    A    
O14   Zn2   S    
C10   C11   A    
O2    Zn6   S    
C4    O11   A    
C20   C36   S    
C40   C44   A    
C7    O19   S    
C17   H19   S    
C14   C15   A    
C10   C49   S    
O28   Zn4   S    
C22   C43   S    
C21   O23   A    
C4    O10   A    
