data_mof_unit_6606.cif
_audit_creation_date              2012-12-10T19:11:33-0500
_audit_creation_method            fapswitch 2.2
_symmetry_space_group_name_H-M    P1
_symmetry_Int_Tables_number       1
_space_group_crystal_system       triclinic
_cell_length_a                    10.650616
_cell_length_b                    9.707156
_cell_length_c                    10.49708
_cell_angle_alpha                 90.297198
_cell_angle_beta                  89.825081
_cell_angle_gamma                 89.951822
_cell_volume                      1085.24355939

loop_
_atom_site_label
_atom_site_type_symbol
_atom_type_description
_atom_site_fract_x
_atom_site_fract_y
_atom_site_fract_z
_atom_type_partial_charge
C1    C     C_R   0.257881 0.500291 0.497368 0.852965
C2    C     C_3   0.499531 0.498398 0.122115 0.033613
C3    C     C_3   0.072978 0.648939 0.468956 -0.434692
C4    C     C_3   0.073977 0.454910 0.628498 -0.437365
C5    C     C_3   0.929678 0.648795 0.464074 -0.136109
C6    C     C_3   0.929386 0.460106 0.631543 -0.153882
C7    C     C_3   0.073123 0.401834 0.391591 -0.409345
C8    C     C_3   0.121932 0.501396 0.496429 0.148935
C9    C     C_3   0.879357 0.500786 0.496500 0.082076
C10   C     C_3   0.929296 0.396991 0.394968 -0.395577
C11   C     C_3   0.389183 0.080992 0.429058 -0.236366
C12   C     C_3   0.389191 0.918472 0.429049 -0.236564
C13   C     C_3   0.613329 0.080815 0.433723 -0.237529
C14   C     C_3   0.613347 0.918381 0.433810 -0.219964
C15   C     C_3   0.496639 0.081798 0.628503 -0.225489
C16   C     C_3   0.496660 0.919561 0.628501 -0.238141
C17   C     C_R   0.499947 0.499522 0.257080 0.868296
C18   C     C_R   0.742542 0.500152 0.497668 0.844027
C19   C     C_R   0.499797 0.500432 0.742759 0.873715
C20   C     C_3   0.396335 0.565412 0.043008 -0.184357
C21   C     C_3   0.498886 0.368250 0.039390 -0.143597
C22   C     C_3   0.395733 0.435469 0.957511 -0.185760
C23   C     C_3   0.499360 0.501318 0.877638 0.032196
C24   C     C_3   0.499914 0.631404 0.960343 -0.143896
C25   C     C_3   0.602449 0.434237 0.956740 -0.185007
C26   C     C_3   0.603035 0.564148 0.042105 -0.185158
H1    H     H_    0.311515 0.383432 0.917941 0.123148
H2    H     H_    0.891272 0.421473 0.299081 0.164244
H3    H     H_    0.898490 0.290374 0.417739 0.181280
H4    H     H_    0.387990 0.119116 0.329310 0.142861
H5    H     H_    0.388004 0.879269 0.329293 0.145739
H6    H     H_    0.301160 0.118828 0.474497 0.145897
H7    H     H_    0.301172 0.881297 0.474450 0.146037
H8    H     H_    0.619114 0.118913 0.334108 0.143634
H9    H     H_    0.619248 0.879087 0.334245 0.160982
H10   H     H_    0.579000 0.120131 0.683052 0.166433
H11   H     H_    0.579083 0.881642 0.682990 0.147701
H12   H     H_    0.411795 0.120387 0.679511 0.143144
H13   H     H_    0.411858 0.881603 0.679517 0.143738
H14   H     H_    0.699163 0.118533 0.482719 0.162053
H15   H     H_    0.699089 0.881342 0.483095 0.150658
H16   H     H_    0.312604 0.618477 0.083176 0.122758
H17   H     H_    0.498489 0.261028 0.075754 0.130237
H18   H     H_    0.500373 0.738647 0.924030 0.129382
H19   H     H_    0.686256 0.381202 0.916766 0.142618
H20   H     H_    0.687436 0.616121 0.080827 0.153752
H21   H     H_    0.115002 0.687356 0.378330 0.170478
H22   H     H_    0.109978 0.349362 0.648815 0.175921
H23   H     H_    0.103552 0.720988 0.545827 0.162083
H24   H     H_    0.111861 0.523946 0.704256 0.142509
H25   H     H_    0.895038 0.723545 0.537025 0.124552
H26   H     H_    0.899617 0.540663 0.701276 0.109815
H27   H     H_    0.105505 0.436941 0.296177 0.159640
H28   H     H_    0.110310 0.295866 0.406071 0.174961
N1    N     N_3   0.499750 0.138610 0.497240 -0.034227
N2    N     N_3   0.499750 0.861390 0.497240 -0.035307
O1    O     O_R   0.314910 0.616040 0.499970 -0.637082
O2    O     O_R   0.314910 0.383960 0.499970 -0.637299
O3    O     O_R   0.500080 0.616020 0.313900 -0.624357
O4    O     O_R   0.500080 0.383980 0.313900 -0.635909
O5    O     O_R   0.685320 0.616040 0.499930 -0.635052
O6    O     O_R   0.685320 0.383960 0.499930 -0.620259
O7    O     O_R   0.500150 0.616060 0.686000 -0.636506
O8    O     O_R   0.500150 0.383940 0.686000 -0.625845
Zn1   Zn    Zn3+2 0.500150 0.654960 0.499940 0.904021
Zn2   Zn    Zn3+2 0.500150 0.345040 0.499940 0.907467
C27   C     C_1   0.886760 0.699162 0.338539 0.152906
N3    N     N_1   0.853608 0.739026 0.240556 -0.262137
C28   C     C_1   0.879189 0.327640 0.678773 0.159282
N4    N     N_1   0.840064 0.224067 0.715808 -0.252980

loop_
_geom_bond_atom_site_label_1
_geom_bond_atom_site_label_2
_ccdc_geom_bond_type
C7    C10   S    
C14   N2    S    
C23   C24   S    
O7    Zn1   S    
C18   O5    A    
C5    C9    S    
N2    Zn1   S    
C1    O1    A    
C6    C28   S    
C1    C8    S    
C9    C10   S    
C19   O8    A    
C20   H16   S    
C7    H28   S    
C5    C27   S    
C16   H11   S    
C11   C12   S    
C13   N1    S    
C20   C24   S    
N1    Zn2   S    
C2    C21   S    
C16   N2    S    
C3    H23   S    
O4    Zn2   S    
C7    C8    S    
C2    C26   S    
C19   O7    A    
C21   H17   S    
C21   C22   S    
O3    Zn1   S    
C2    C17   S    
C12   H7    S    
C10   H3    S    
C14   H9    S    
C12   N2    S    
C15   H12   S    
C21   C25   S    
C9    C18   S    
C17   O3    A    
C14   H15   S    
C3    H21   S    
C20   C22   S    
C11   H6    S    
C22   H1    S    
C23   C25   S    
C12   H5    S    
C28   N4    T    
C24   H18   S    
C10   H2    S    
C15   C16   S    
C7    H27   S    
C16   H13   S    
C2    C20   S    
C27   N3    T    
O5    Zn1   S    
C15   H10   S    
C13   H8    S    
C6    C9    S    
C11   N1    S    
C4    C6    S    
C3    C8    S    
C4    H22   S    
C15   N1    S    
O1    Zn1   S    
C4    C8    S    
O6    Zn2   S    
C26   H20   S    
C19   C23   S    
C5    H25   S    
C13   H14   S    
C25   H19   S    
C17   O4    A    
C13   C14   S    
C6    H26   S    
C25   C26   S    
C1    O2    A    
O2    Zn2   S    
C22   C23   S    
C18   O6    A    
C24   C26   S    
C11   H4    S    
C4    H24   S    
C3    C5    S    
O8    Zn2   S    
