data_mof_unit_16598.cif
_audit_creation_date              2012-12-11T15:20:20-0500
_audit_creation_method            fapswitch 2.2
_symmetry_space_group_name_H-M    P1
_symmetry_Int_Tables_number       1
_space_group_crystal_system       triclinic
_cell_length_a                    12.927837
_cell_length_b                    13.028548
_cell_length_c                    15.268275
_cell_angle_alpha                 117.168998
_cell_angle_beta                  64.293913
_cell_angle_gamma                 96.977303
_cell_volume                      2052.04234775

loop_
_atom_site_label
_atom_site_type_symbol
_atom_type_description
_atom_site_fract_x
_atom_site_fract_y
_atom_site_fract_z
_atom_type_partial_charge
C1    C     C_R   0.001275 0.833880 0.054689 -0.123652
C2    C     C_R   0.295161 0.598022 0.790006 -0.126621
C3    C     C_R   0.260897 0.413473 0.043271 -0.157662
C4    C     C_R   0.686411 0.435873 0.219484 0.020702
C5    C     C_R   0.062062 0.278679 0.685428 -0.126151
C6    C     C_R   0.363435 0.430996 0.969281 0.152734
C7    C     C_R   0.054746 0.168067 0.677641 0.038059
C8    C     C_R   0.283175 0.574239 0.696375 0.057499
C9    C     C_R   0.008379 0.152303 0.044626 0.057393
C10   C     C_R   0.167143 0.971009 0.382934 -0.174029
C11   C     C_R   0.164068 0.064231 0.477213 -0.172121
C12   C     C_R   0.683709 0.481663 0.323067 -0.045493
C13   C     C_R   0.104567 0.060351 0.577128 0.147085
C14   C     C_R   0.074005 0.953860 0.577928 -0.170346
C15   C     C_R   0.078079 0.860075 0.483576 -0.175337
C16   C     C_R   0.756501 0.519352 0.891080 -0.161328
C17   C     C_R   0.112789 0.873061 0.388605 0.147054
C18   C     C_R   0.566543 0.613499 0.515915 -0.173521
C19   C     C_R   0.461003 0.646023 0.606067 -0.193720
C20   C     C_R   0.369094 0.579274 0.598789 0.069132
C21   C     C_R   0.382605 0.485105 0.498163 0.022772
C22   C     C_R   0.492778 0.437926 0.421695 -0.215833
C23   C     C_R   0.665737 0.455394 0.918257 0.142179
C24   C     C_R   0.582886 0.507205 0.424061 0.127990
C25   C     C_2   0.479050 0.386489 0.935697 -0.202443
C26   C     C_2   0.570920 0.433235 0.887049 -0.200824
C27   C     C_2   0.834203 0.960018 0.091264 -0.211710
C28   C     C_R   0.015293 0.700755 0.303899 -0.114677
C29   C     C_2   0.823801 0.046109 0.187104 -0.155616
C30   C     C_R   0.680862 0.416058 0.981331 -0.113797
C31   C     C_R   0.096380 0.800076 0.209538 -0.144096
C32   C     C_R   0.791412 0.516439 0.313616 0.043651
C33   C     C_R   0.900642 0.748495 0.956795 -0.150142
C34   C     C_R   0.074735 0.796080 0.304971 0.036738
C35   C     C_R   0.913203 0.853933 0.033357 0.142340
C36   C     C_R   0.596703 0.376494 0.185393 0.101816
C37   C     C_R   0.607093 0.255004 0.128975 -0.196173
C38   C     C_R   0.517350 0.197983 0.104159 -0.129204
C39   C     C_R   0.417115 0.261801 0.135806 -0.112580
C40   C     C_R   0.406617 0.382814 0.191895 -0.097917
C41   C     C_R   0.495985 0.440236 0.216815 -0.140522
C42   C     C_R   0.287337 0.445760 0.464172 0.125112
C43   C     C_R   0.272958 0.327329 0.414135 -0.151299
C44   C     C_R   0.185778 0.291709 0.378435 -0.116772
C45   C     C_R   0.338111 0.514217 0.947967 -0.112393
C46   C     C_R   0.112981 0.373675 0.391531 -0.103319
C47   C     C_R   0.127273 0.491509 0.440185 -0.131050
C48   C     C_R   0.214309 0.527568 0.475955 -0.172285
C49   C     C_R   0.978767 0.178199 0.779982 -0.122144
C50   C     C_R   0.188022 0.515522 0.700276 -0.153363
C51   C     C_R   0.052362 0.256194 0.088629 -0.141688
C52   C     C_R   0.950767 0.171840 0.994364 -0.122841
H1    H     H_    0.031271 0.896208 0.112989 0.093797
H2    H     H_    0.197203 0.142481 0.472760 0.109842
H3    H     H_    0.035676 0.945293 0.652526 0.106908
H4    H     H_    0.042765 0.782754 0.489430 0.102419
H5    H     H_    0.634799 0.670242 0.518499 0.128968
H6    H     H_    0.451810 0.720696 0.681487 0.118693
H7    H     H_    0.505319 0.354102 0.353536 0.142612
H8    H     H_    0.485205 0.335588 0.972986 0.142839
H9    H     H_    0.566594 0.479482 0.844923 0.127317
H10   H     H_    0.778071 0.966314 0.057471 0.129305
H11   H     H_    0.874824 0.044435 0.227203 0.130560
H12   H     H_    0.949694 0.109026 0.802247 0.088457
H13   H     H_    0.779337 0.549404 0.830222 0.093681
H14   H     H_    0.000949 0.661296 0.356098 0.093667
H15   H     H_    0.642295 0.343531 0.994100 0.121870
H16   H     H_    0.154126 0.853632 0.176481 0.085179
H17   H     H_    0.836643 0.732040 0.925485 0.099660
H18   H     H_    0.395565 0.551574 0.896510 0.089435
H19   H     H_    0.683493 0.204828 0.105963 0.120544
H20   H     H_    0.525152 0.104325 0.061110 0.110407
H21   H     H_    0.347459 0.217548 0.117113 0.101320
H22   H     H_    0.328808 0.432200 0.217073 0.123363
H23   H     H_    0.140591 0.499241 0.652953 0.117554
H24   H     H_    0.486204 0.533868 0.261906 0.122611
H25   H     H_    0.329292 0.262767 0.402610 0.106049
H26   H     H_    0.175226 0.200424 0.339751 0.102738
H27   H     H_    0.045971 0.345823 0.363361 0.095428
H28   H     H_    0.071427 0.554871 0.449497 0.102139
H29   H     H_    0.225248 0.619110 0.512319 0.117321
H30   H     H_    0.782232 0.516681 0.450230 0.100988
H31   H     H_    0.912347 0.478291 0.346190 0.089022
H32   H     H_    0.090180 0.276797 0.144766 0.085357
H33   H     H_    0.894109 0.114051 0.963544 0.084059
H34   H     H_    0.355880 0.651736 0.817687 0.084896
H35   H     H_    0.251711 0.356126 0.078839 0.094170
H36   H     H_    0.111462 0.304204 0.622037 0.106710
H37   H     H_    0.201657 0.981167 0.309248 0.102332
N1    N     N_R   0.037310 0.720000 0.995790 -0.044382
N2    N     N_R   0.824890 0.517960 0.936420 -0.040155
N3    N     N_R   0.003210 0.648190 0.211380 -0.037478
N4    N     N_R   0.774330 0.457010 0.995840 -0.047883
N5    N     N_R   0.053760 0.709140 0.151960 -0.038423
N6    N     N_R   0.853860 0.498840 0.211410 -0.057183
N7    N     N_R   0.974240 0.667310 0.936390 -0.040614
N8    N     N_R   0.225670 0.542990 0.004160 -0.046005
N9    N     N_3   0.839466 0.537449 0.388368 -0.228937
N10   N     N_R   0.946240 0.290860 0.848040 -0.040273
N11   N     N_R   0.146140 0.501160 0.788590 -0.038995
N12   N     N_R   0.025760 0.332690 0.063610 -0.037572
N13   N     N_R   0.962690 0.280000 0.004210 -0.041300
N14   N     N_R   0.209210 0.553840 0.847990 -0.039279
N15   N     N_R   0.175110 0.482040 0.063580 -0.041328
N16   N     N_R   0.996790 0.351810 0.788620 -0.039298
N17   N     N_R   0.790790 0.446160 0.152010 -0.066074
Ni1   Ni    Ni4+2 0.130310 0.630310 0.999970 0.206125
Ni2   Ni    Ni4+2 0.869690 0.369690 0.000030 0.209922
Ni3   Ni    Ni4+2 0.985640 0.509470 0.863740 0.212223
Ni4   Ni    Ni4+2 0.014360 0.490530 0.136260 0.205109

loop_
_geom_bond_atom_site_label_1
_geom_bond_atom_site_label_2
_ccdc_geom_bond_type
C3    N15   A    
C4    C36   S    
N12   N13   A    
C6    C45   A    
C27   C29   D    
C19   C20   A    
C9    C51   A    
C3    C6    A    
C29   H11   S    
C5    N16   A    
N10   Ni2   S    
C52   N13   A    
C1    N1    A    
C18   C24   A    
C36   C37   A    
N6    N17   A    
C26   H9    S    
N1    Ni1   S    
C30   N4    A    
N4    Ni2   S    
C46   H27   S    
C6    C25   S    
C49   N10   A    
C10   C17   A    
C48   H29   S    
C18   C19   A    
C23   C26   S    
C1    H1    S    
C5    H36   S    
C10   H37   S    
C32   N9    S    
H31   N9    S    
N13   Ni2   S    
C25   H8    S    
C4    C12   A    
C30   H15   S    
C33   H17   S    
C14   H3    S    
C28   C34   A    
N11   Ni3   S    
C49   H12   S    
C13   C14   A    
C12   C32   A    
H30   N9    S    
C36   C41   A    
C9    C52   A    
C47   H28   S    
C44   C46   A    
C19   H6    S    
C31   H16   S    
N10   N16   A    
C38   H20   S    
N5    Ni1   S    
C3    H35   S    
C23   C30   A    
C7    C49   A    
C39   C40   A    
C5    C7    A    
C42   C48   A    
C27   C35   S    
C25   C26   D    
C4    N17   A    
N11   N14   A    
C28   H14   S    
C43   C44   A    
C37   C38   A    
C27   H10   S    
N2    N4    A    
C18   H5    S    
C47   C48   A    
N3    N5    A    
C31   C34   A    
C28   N3    A    
C8    C20   S    
C11   H2    S    
C40   C41   A    
C16   C23   A    
C37   H19   S    
C22   C24   A    
C43   H25   S    
C42   C43   A    
C33   N7    A    
C8    C50   A    
C22   H7    S    
C1    C35   A    
C15   C17   A    
N16   Ni3   S    
C46   C47   A    
C52   H33   S    
C45   H18   S    
C2    C8    A    
N6    Ni4   S    
N1    N7    A    
C51   N12   A    
C31   N5    A    
N7    Ni3   S    
C12   C24   S    
C50   N11   A    
C15   H4    S    
N2    Ni3   S    
C44   H26   S    
N12   Ni4   S    
C45   N8    A    
C50   H23   S    
C41   H24   S    
N15   Ni4   S    
C11   C13   A    
N3    Ni4   S    
C38   C39   A    
N17   Ni2   S    
C2    N14   A    
C33   C35   A    
C40   H22   S    
C2    H34   S    
C39   H21   S    
N8    N15   A    
C10   C11   A    
C21   C42   S    
N8    Ni1   S    
C7    C13   S    
C32   N6    A    
C20   C21   A    
C16   N2    A    
C17   C34   S    
C14   C15   A    
N14   Ni1   S    
C16   H13   S    
C21   C22   A    
C51   H32   S    
