data_mof_unit_34858.cif
_audit_creation_date              2013-03-05T15:49:58-0500
_audit_creation_method            fapswitch 2.2
_symmetry_space_group_name_H-M    P1
_symmetry_Int_Tables_number       1
_space_group_crystal_system       triclinic
_cell_length_a                    17.537482
_cell_length_b                    17.628909
_cell_length_c                    17.76531
_cell_angle_alpha                 90.064585
_cell_angle_beta                  89.942698
_cell_angle_gamma                 90.412527
_cell_volume                      5492.29325653

loop_
_atom_site_label
_atom_site_type_symbol
_atom_site_description
_atom_site_fract_x
_atom_site_fract_y
_atom_site_fract_z
_atom_type_partial_charge
C1    C     C_R   0.390187 0.696045 0.601448 0.432545
C2    C     C_R   0.592914 0.318977 0.366953 0.427607
C3    C     C_R   0.674754 0.587296 0.640037 0.436271
C4    C     C_R   0.301313 0.388860 0.407289 0.427115
C5    C     C_R   0.611070 0.303349 0.598528 0.447841
C6    C     C_R   0.405621 0.682416 0.368871 0.428033
C7    C     C_R   0.324337 0.411124 0.639317 0.432738
C8    C     C_R   0.698606 0.611664 0.407482 0.443671
C9    C     C_R   0.390984 0.301109 0.405646 0.481879
C10   C     C_R   0.587535 0.679845 0.635500 0.455565
C11   C     C_R   0.682937 0.409871 0.367809 0.481269
C12   C     C_R   0.301867 0.605248 0.601087 0.523996
C13   C     C_R   0.608541 0.698917 0.405279 0.475799
C14   C     C_R   0.413060 0.320169 0.635329 0.457638
C15   C     C_R   0.315041 0.592024 0.370434 0.463820
C16   C     C_R   0.699093 0.394065 0.596391 0.499149
C17   C     C_R   0.886722 0.197229 0.092881 0.506008
C18   C     C_R   0.087176 0.823762 0.861462 0.423735
C19   C     C_R   0.179573 0.093253 0.135279 0.459708
C20   C     C_R   0.802625 0.888986 0.902262 0.428735
C21   C     C_R   0.113110 0.802796 0.093265 0.505848
C22   C     C_R   0.913575 0.175783 0.861582 0.439580
C23   C     C_R   0.819455 0.906377 0.134279 0.461790
C24   C     C_R   0.197786 0.111150 0.903144 0.432471
C25   C     C_R   0.892703 0.801295 0.903162 0.500074
C26   C     C_R   0.088059 0.181557 0.133470 0.446447
C27   C     C_R   0.179179 0.912843 0.863700 0.458396
C28   C     C_R   0.799933 0.105758 0.093593 0.434201
C29   C     C_R   0.108034 0.198896 0.904244 0.507065
C30   C     C_R   0.911115 0.818134 0.132894 0.446132
C31   C     C_R   0.820527 0.088497 0.863812 0.454987
C32   C     C_R   0.199988 0.894198 0.093892 0.437150
N1    N     N_R   0.424590 0.632770 0.578330 -0.129216
N2    N     N_R   0.575410 0.367230 0.421670 -0.096945
N3    N     N_R   0.632770 0.575410 0.578330 -0.086428
N4    N     N_R   0.367230 0.424590 0.421670 -0.130223
N5    N     N_R   0.575410 0.367230 0.578330 -0.129516
N6    N     N_R   0.424590 0.632770 0.421670 -0.098355
N7    N     N_R   0.367230 0.424590 0.578330 -0.088900
N8    N     N_R   0.632770 0.575410 0.421670 -0.129053
N9    N     N_R   0.424590 0.367230 0.421670 -0.133418
N10   N     N_R   0.575410 0.632770 0.578330 -0.099337
N11   N     N_R   0.632770 0.424590 0.421670 -0.102189
N12   N     N_R   0.367230 0.575410 0.578330 -0.132955
N13   N     N_R   0.575410 0.632770 0.421670 -0.134559
N14   N     N_R   0.424590 0.367230 0.578330 -0.099037
N15   N     N_R   0.367230 0.575410 0.421670 -0.105791
N16   N     N_R   0.632770 0.424590 0.578330 -0.127192
N17   N     N_R   0.924590 0.132770 0.078330 -0.124509
N18   N     N_R   0.075410 0.867230 0.921670 -0.094458
N19   N     N_R   0.132770 0.075410 0.078330 -0.099971
N20   N     N_R   0.867230 0.924590 0.921670 -0.130368
N21   N     N_R   0.075410 0.867230 0.078330 -0.124302
N22   N     N_R   0.924590 0.132770 0.921670 -0.094534
N23   N     N_R   0.867230 0.924590 0.078330 -0.101723
N24   N     N_R   0.132770 0.075410 0.921670 -0.131185
N25   N     N_R   0.924590 0.867230 0.921670 -0.134818
N26   N     N_R   0.075410 0.132770 0.078330 -0.099903
N27   N     N_R   0.132770 0.924590 0.921670 -0.097850
N28   N     N_R   0.867230 0.075410 0.078330 -0.129923
N29   N     N_R   0.075410 0.132770 0.921670 -0.134521
N30   N     N_R   0.924590 0.867230 0.078330 -0.099673
N31   N     N_R   0.867230 0.075410 0.921670 -0.098435
N32   N     N_R   0.132770 0.924590 0.078330 -0.129324
C33   C     C_3   0.270023 0.266657 0.339949 -0.106586
C34   C     C_3   0.685128 0.692762 0.738867 -0.070692
C35   C     C_3   0.298256 0.696091 0.272486 -0.063669
C36   C     C_3   0.734566 0.278868 0.668636 -0.141743
C37   C     C_3   0.728794 0.734171 0.339503 -0.103318
C38   C     C_3   0.315669 0.306656 0.739159 -0.076202
C39   C     C_3   0.699767 0.305984 0.269229 -0.059192
C40   C     C_3   0.267194 0.720718 0.672474 -0.114445
C41   C     C_3   0.775613 0.765457 0.834239 -0.119928
C42   C     C_3   0.184762 0.197183 0.237411 -0.011869
C43   C     C_3   0.810412 0.190435 0.762401 -0.069040
C44   C     C_3   0.234223 0.780036 0.166546 -0.108973
C45   C     C_3   0.226095 0.235538 0.836862 -0.108532
C46   C     C_3   0.813198 0.803361 0.236127 -0.013169
C47   C     C_3   0.191722 0.811976 0.763624 -0.071691
C48   C     C_3   0.764696 0.220454 0.164747 -0.108880
Ni1   Ni    Ni4+2 0.500000 0.631570 0.500000 0.317444
Ni2   Ni    Ni4+2 0.500000 0.368430 0.500000 0.318412
Ni3   Ni    Ni4+2 0.631570 0.500000 0.500000 0.318624
Ni4   Ni    Ni4+2 0.368430 0.500000 0.500000 0.316499
Ni5   Ni    Ni4+2 1.000000 0.131570 0.000000 0.319778
Ni6   Ni    Ni4+2 1.000000 0.868430 0.000000 0.319136
Ni7   Ni    Ni4+2 0.131570 0.000000 0.000000 0.317636
Ni8   Ni    Ni4+2 0.868430 0.000000 0.000000 0.317110
C49   C     C_R   0.316588 0.677307 0.622275 -0.231980
C50   C     C_R   0.658275 0.345769 0.330073 -0.263233
C51   C     C_R   0.646047 0.650732 0.677959 -0.261469
C52   C     C_R   0.316230 0.314115 0.391164 -0.181482
C53   C     C_R   0.685558 0.321393 0.616667 -0.213580
C54   C     C_R   0.339446 0.656428 0.333241 -0.254904
C55   C     C_R   0.353544 0.347992 0.677141 -0.258575
C56   C     C_R   0.683267 0.686330 0.390973 -0.184127
C57   C     C_R   0.811081 0.180144 0.108279 -0.178851
C58   C     C_R   0.149759 0.853004 0.822419 -0.258603
C59   C     C_R   0.149754 0.156385 0.173288 -0.225750
C60   C     C_R   0.819345 0.814507 0.885190 -0.210958
C61   C     C_R   0.188655 0.819857 0.109076 -0.181233
C62   C     C_R   0.850702 0.148316 0.822333 -0.258377
C63   C     C_R   0.848736 0.843223 0.172039 -0.226640
C64   C     C_R   0.181553 0.185829 0.886795 -0.212964
C65   C     C_3   0.721716 0.656339 0.808980 0.193244
C66   C     C_3   0.229744 0.305785 0.272870 0.150642
C67   C     C_3   0.699109 0.238593 0.737731 0.194785
C68   C     C_3   0.340117 0.728404 0.202477 0.181786
C69   C     C_3   0.280430 0.344322 0.809556 0.196478
C70   C     C_3   0.768688 0.695053 0.272062 0.138649
C71   C     C_3   0.302976 0.763217 0.740017 0.201130
C72   C     C_3   0.658446 0.272447 0.199477 0.178388
C73   C     C_3   0.769283 0.330393 0.219755 0.108718
C74   C     C_3   0.197634 0.695465 0.721267 0.133433
C75   C     C_3   0.700585 0.799164 0.287652 0.074210
C76   C     C_3   0.339068 0.235285 0.785914 0.161954
C77   C     C_3   0.229246 0.670896 0.223060 0.107739
C78   C     C_3   0.804018 0.305426 0.716593 0.101004
C79   C     C_3   0.297604 0.201408 0.288062 0.072953
C80   C     C_3   0.662403 0.765272 0.784657 0.166455
C81   C     C_3   0.222926 0.157060 0.304449 0.167380
C82   C     C_3   0.740012 0.801477 0.763272 0.195189
C83   C     C_3   0.192971 0.749287 0.237137 0.132002
C84   C     C_3   0.846218 0.232265 0.694112 0.196828
C85   C     C_3   0.775229 0.843912 0.303197 0.168365
C86   C     C_3   0.261310 0.198775 0.766000 0.173723
C87   C     C_3   0.805399 0.252250 0.235121 0.130615
C88   C     C_3   0.155447 0.768310 0.697004 0.193874
C89   C     C_3   0.261890 0.836256 0.714730 0.172604
C90   C     C_3   0.695564 0.194582 0.214356 0.108390
C91   C     C_3   0.202519 0.306968 0.790887 0.131356
C92   C     C_3   0.842202 0.739802 0.290408 0.168194
C93   C     C_3   0.740310 0.164734 0.713952 0.174751
C94   C     C_3   0.303032 0.806511 0.216229 0.106723
C95   C     C_3   0.799169 0.693780 0.788726 0.131728
C96   C     C_3   0.156153 0.261303 0.291722 0.171163
C97   C     C_3   0.196685 0.221393 0.358128 0.151290
C98   C     C_3   0.762481 0.730137 0.718445 0.119648
C99   C     C_3   0.261370 0.774336 0.286573 0.183199
C100  C     C_3   0.777139 0.206759 0.646025 0.100066
C101  C     C_3   0.801984 0.779988 0.356908 0.153523
C102  C     C_3   0.237981 0.269235 0.720581 0.125742
C103  C     C_3   0.736658 0.227885 0.284463 0.179898
C104  C     C_3   0.224818 0.792603 0.648022 0.099226
C105  C     C_3   0.699104 0.727782 0.854878 0.097044
C106  C     C_3   0.258840 0.241697 0.221276 0.128622
C107  C     C_3   0.768575 0.264734 0.785070 0.158914
C108  C     C_3   0.271960 0.703030 0.153509 0.114696
C109  C     C_3   0.302977 0.273416 0.856197 0.098315
C110  C     C_3   0.739085 0.758787 0.220598 0.131732
C111  C     C_3   0.233840 0.739094 0.788202 0.119896
C112  C     C_3   0.726948 0.297125 0.150453 0.114361
Cl1   Cl    Cl    0.410801 0.784613 0.561656 -0.554208
Cl2   Cl    Cl    0.556663 0.227823 0.363855 -0.685680
Cl3   Cl    Cl    0.761901 0.544100 0.656825 -0.736456
Cl4   Cl    Cl    0.220323 0.409020 0.461038 -0.571817
Cl5   Cl    Cl    0.591541 0.216358 0.554653 -0.550384
Cl6   Cl    Cl    0.440580 0.774148 0.367624 -0.680921
Cl7   Cl    Cl    0.235487 0.450818 0.655167 -0.716671
Cl8   Cl    Cl    0.778835 0.592931 0.462731 -0.575147
Cl9   Cl    Cl    0.412094 0.220674 0.458428 -0.522578
Cl10  Cl    Cl    0.567257 0.775745 0.629795 -0.617954
Cl11  Cl    Cl    0.774763 0.445990 0.369268 -0.635524
Cl12  Cl    Cl    0.217206 0.586675 0.552760 -0.531819
Cl13  Cl    Cl    0.586994 0.779614 0.457420 -0.518644
Cl14  Cl    Cl    0.439860 0.225958 0.631811 -0.633367
Cl15  Cl    Cl    0.221304 0.561623 0.378498 -0.621010
Cl16  Cl    Cl    0.778139 0.413255 0.539354 -0.549704
Cl17  Cl    Cl    0.908355 0.282156 0.046138 -0.561212
Cl18  Cl    Cl    0.049909 0.732642 0.851692 -0.709319
Cl19  Cl    Cl    0.271638 0.058318 0.145152 -0.690092
Cl20  Cl    Cl    0.714796 0.912623 0.942155 -0.543063
Cl21  Cl    Cl    0.091959 0.717841 0.046261 -0.559197
Cl22  Cl    Cl    0.953566 0.264150 0.852823 -0.723090
Cl23  Cl    Cl    0.727246 0.941283 0.143476 -0.688542
Cl24  Cl    Cl    0.284671 0.088461 0.945448 -0.544225
Cl25  Cl    Cl    0.912004 0.720195 0.955608 -0.528688
Cl26  Cl    Cl    0.057007 0.274173 0.129717 -0.652601
Cl27  Cl    Cl    0.274836 0.938461 0.865382 -0.633634
Cl28  Cl    Cl    0.721215 0.080432 0.038865 -0.524052
Cl29  Cl    Cl    0.089020 0.280270 0.956922 -0.525162
Cl30  Cl    Cl    0.942583 0.725638 0.128913 -0.652063
Cl31  Cl    Cl    0.724248 0.064663 0.865623 -0.625003
Cl32  Cl    Cl    0.278956 0.919048 0.039104 -0.528032
C113  C     C_3   0.172832 0.207070 0.440490 -0.251076
C114  C     C_3   0.098317 0.161871 0.448385 -0.974373
H1    H     H_    0.069823 0.175454 0.501967 0.254006
H2    H     H_    0.057367 0.175109 0.403058 0.273573
H3    H     H_    0.109793 0.100227 0.449437 0.276494
H4    H     H_    0.219134 0.175834 0.469411 0.195246
H5    H     H_    0.167727 0.261758 0.470395 0.234548
C115  C     C_3   0.797426 0.729136 0.638150 -0.236950
C116  C     C_3   0.868895 0.777971 0.630434 -1.022241
H6    H     H_    0.855492 0.835368 0.609778 0.290754
H7    H     H_    0.900881 0.782495 0.683938 0.261289
H8    H     H_    0.905723 0.751267 0.587997 0.277211
H9    H     H_    0.814518 0.671549 0.622695 0.263461
H10   H     H_    0.754801 0.744024 0.594834 0.209484
C117  C     C_3   0.249617 0.805773 0.366890 -0.205233
C118  C     C_3   0.240852 0.891484 0.369426 -0.941981
H11   H     H_    0.293990 0.919338 0.389397 0.277691
H12   H     H_    0.225638 0.913835 0.313729 0.273760
H13   H     H_    0.194325 0.906696 0.408417 0.259240
H14   H     H_    0.198069 0.778559 0.391353 0.177247
H15   H     H_    0.296544 0.789744 0.404820 0.243475
C119  C     C_3   0.785124 0.176479 0.564566 -0.228494
C120  C     C_3   0.837432 0.106999 0.558803 -1.024170
H16   H     H_    0.891123 0.122159 0.529055 0.273968
H17   H     H_    0.851558 0.083234 0.614877 0.258238
H18   H     H_    0.808654 0.060674 0.527180 0.259078
H19   H     H_    0.728532 0.160200 0.542588 0.240937
H20   H     H_    0.806357 0.222113 0.527112 0.206445
C121  C     C_3   0.827177 0.795425 0.438555 -0.254667
C122  C     C_3   0.900915 0.842425 0.444176 -0.973111
H21   H     H_    0.941119 0.829360 0.398028 0.274277
H22   H     H_    0.888045 0.903749 0.444907 0.277351
H23   H     H_    0.931224 0.830917 0.497110 0.252490
H24   H     H_    0.780839 0.825902 0.468379 0.197184
H25   H     H_    0.833962 0.740963 0.468334 0.234982
C123  C     C_3   0.199490 0.266202 0.641992 -0.222842
C124  C     C_3   0.126090 0.219334 0.641443 -1.021482
H26   H     H_    0.135081 0.162342 0.617593 0.282017
H27   H     H_    0.100793 0.213252 0.698246 0.259047
H28   H     H_    0.084918 0.248044 0.604854 0.278756
H29   H     H_    0.183756 0.323087 0.623164 0.257702
H30   H     H_    0.239160 0.246464 0.597894 0.203772
C125  C     C_3   0.747823 0.197242 0.365129 -0.203642
C126  C     C_3   0.757217 0.111589 0.368497 -0.938943
H31   H     H_    0.771201 0.088250 0.312798 0.273220
H32   H     H_    0.804788 0.097370 0.406470 0.259166
H33   H     H_    0.704746 0.083737 0.390227 0.277994
H34   H     H_    0.798811 0.225170 0.389894 0.176942
H35   H     H_    0.700403 0.213198 0.402585 0.245782
C127  C     C_3   0.217783 0.822606 0.566373 -0.225325
C128  C     C_3   0.167245 0.893420 0.560500 -1.009329
H36   H     H_    0.150788 0.915870 0.616525 0.259363
H37   H     H_    0.198630 0.939957 0.531674 0.256806
H38   H     H_    0.114908 0.880803 0.527687 0.269966
H39   H     H_    0.274647 0.837663 0.544373 0.239343
H40   H     H_    0.196439 0.777469 0.528478 0.203790
C129  C     C_3   0.664175 0.724264 0.934903 -0.223215
C130  C     C_3   0.589355 0.678547 0.938041 -1.020165
H41   H     H_    0.566473 0.665676 0.881196 0.258923
H42   H     H_    0.597182 0.624711 0.969118 0.277703
H43   H     H_    0.545421 0.711890 0.967878 0.256389
H44   H     H_    0.705663 0.701349 0.975503 0.204627
H45   H     H_    0.651981 0.781850 0.955284 0.239467
C131  C     C_3   0.296981 0.250822 0.143117 -0.264313
C132  C     C_3   0.359559 0.311548 0.142056 -0.989237
H46   H     H_    0.335442 0.368638 0.133342 0.280149
H47   H     H_    0.393618 0.310732 0.194661 0.259539
H48   H     H_    0.398116 0.301083 0.094060 0.281523
H49   H     H_    0.323400 0.196982 0.125858 0.244678
H50   H     H_    0.253854 0.262679 0.099326 0.204192
C133  C     C_3   0.768495 0.298882 0.865711 -0.227210
C134  C     C_3   0.710846 0.362148 0.878552 -1.008500
H51   H     H_    0.704097 0.398302 0.828202 0.264934
H52   H     H_    0.654647 0.339961 0.896175 0.279848
H53   H     H_    0.730716 0.397593 0.925881 0.281942
H54   H     H_    0.760660 0.253783 0.908540 0.204942
H55   H     H_    0.824475 0.324258 0.877567 0.263583
C135  C     C_3   0.281387 0.664047 0.076570 -0.257072
C136  C     C_3   0.323938 0.588395 0.081576 -1.008422
H56   H     H_    0.380223 0.592892 0.053268 0.273384
H57   H     H_    0.332861 0.569883 0.140570 0.258092
H58   H     H_    0.290364 0.543212 0.053206 0.259658
H59   H     H_    0.224770 0.652975 0.051935 0.234662
H60   H     H_    0.311212 0.702880 0.037189 0.211864
C137  C     C_3   0.337737 0.276919 0.936069 -0.227928
C138  C     C_3   0.412486 0.322641 0.939184 -1.015074
H61   H     H_    0.434950 0.336378 0.882383 0.259401
H62   H     H_    0.404904 0.375892 0.971440 0.279045
H63   H     H_    0.456614 0.288693 0.967765 0.255594
H64   H     H_    0.296045 0.299635 0.976741 0.203781
H65   H     H_    0.349841 0.219207 0.956146 0.238599
C139  C     C_3   0.700340 0.749517 0.142810 -0.262818
C140  C     C_3   0.637953 0.688622 0.142255 -0.986489
H66   H     H_    0.662157 0.631518 0.133828 0.279511
H67   H     H_    0.603965 0.689760 0.194961 0.259275
H68   H     H_    0.599365 0.698710 0.094297 0.280537
H69   H     H_    0.673548 0.803241 0.125952 0.243737
H70   H     H_    0.743095 0.737886 0.098524 0.201797
C141  C     C_3   0.236910 0.709808 0.871020 -0.247510
C142  C     C_3   0.291233 0.643520 0.883149 -1.012990
H71   H     H_    0.295034 0.606662 0.832742 0.263248
H72   H     H_    0.348820 0.663016 0.899525 0.284643
H73   H     H_    0.270135 0.609147 0.930709 0.281190
H74   H     H_    0.249576 0.756369 0.911040 0.211868
H75   H     H_    0.180612 0.689362 0.889083 0.261563
C143  C     C_3   0.717572 0.334550 0.072731 -0.253842
C144  C     C_3   0.676875 0.411287 0.076775 -1.007338
H76   H     H_    0.623934 0.409789 0.042589 0.271866
H77   H     H_    0.662103 0.427745 0.135255 0.260191
H78   H     H_    0.714673 0.456457 0.054102 0.256815
H79   H     H_    0.773958 0.343637 0.046779 0.234172
H80   H     H_    0.686462 0.295538 0.034483 0.209292
C145  C     C_3   0.704441 0.575101 0.836872 -0.282444
C146  C     C_3   0.739508 0.557059 0.913798 -0.885624
H81   H     H_    0.770937 0.605638 0.938265 0.287170
H82   H     H_    0.694483 0.538705 0.953676 0.249702
H83   H     H_    0.781238 0.510564 0.908623 0.254092
H84   H     H_    0.641797 0.566569 0.839413 0.177163
H85   H     H_    0.724951 0.532948 0.796182 0.211255
C147  C     C_3   0.231384 0.390317 0.251187 -0.379988
C148  C     C_3   0.191267 0.406979 0.176277 -0.773496
H86   H     H_    0.188791 0.357588 0.138736 0.302111
H87   H     H_    0.131888 0.425389 0.185746 0.269318
H88   H     H_    0.222244 0.452109 0.145242 0.222281
H89   H     H_    0.203181 0.423731 0.295715 0.248036
H90   H     H_    0.291547 0.409996 0.248421 0.177689
C149  C     C_3   0.617744 0.252813 0.766664 -0.381957
C150  C     C_3   0.599662 0.213997 0.841989 -0.751386
H91   H     H_    0.574907 0.157460 0.833722 0.272747
H92   H     H_    0.650004 0.206394 0.877898 0.298291
H93   H     H_    0.557795 0.248185 0.873903 0.210086
H94   H     H_    0.609887 0.314859 0.772746 0.177007
H95   H     H_    0.575715 0.235512 0.724167 0.219713
C151  C     C_3   0.423795 0.712788 0.181493 -0.316684
C152  C     C_3   0.447692 0.749792 0.107037 -0.867455
H96   H     H_    0.402109 0.784625 0.081877 0.277704
H97   H     H_    0.498200 0.787131 0.115703 0.264299
H98   H     H_    0.462317 0.705066 0.065805 0.242740
H99   H     H_    0.462326 0.732974 0.226232 0.204828
H100  H     H_    0.432775 0.650672 0.178367 0.182912
C153  C     C_3   0.300555 0.426263 0.833867 -0.278198
C154  C     C_3   0.269922 0.448551 0.911534 -0.896085
H101  H     H_    0.227153 0.493997 0.906113 0.253102
H102  H     H_    0.241025 0.401311 0.940863 0.283393
H103  H     H_    0.317045 0.470430 0.947109 0.252185
H104  H     H_    0.363450 0.433210 0.833259 0.173120
H105  H     H_    0.279334 0.467482 0.792596 0.206357
C155  C     C_3   0.767996 0.610687 0.249953 -0.371584
C156  C     C_3   0.807039 0.594813 0.174120 -0.775772
H106  H     H_    0.810198 0.644898 0.137701 0.302008
H107  H     H_    0.866182 0.575240 0.182349 0.269356
H108  H     H_    0.775088 0.550858 0.142349 0.221047
H109  H     H_    0.798028 0.578279 0.293767 0.253078
H110  H     H_    0.708161 0.589865 0.248472 0.179775
C157  C     C_3   0.384596 0.748618 0.768161 -0.369957
C158  C     C_3   0.404831 0.788864 0.842193 -0.761612
H111  H     H_    0.433739 0.842858 0.831766 0.264343
H112  H     H_    0.355367 0.802503 0.877194 0.305207
H113  H     H_    0.443913 0.753186 0.875751 0.213161
H114  H     H_    0.391794 0.686617 0.775352 0.175331
H115  H     H_    0.426176 0.764377 0.724594 0.215498
C159  C     C_3   0.574720 0.287391 0.178341 -0.312400
C160  C     C_3   0.551753 0.251237 0.103238 -0.872001
H116  H     H_    0.596100 0.213522 0.080012 0.278390
H117  H     H_    0.498924 0.216867 0.110086 0.264087
H118  H     H_    0.541635 0.296551 0.061434 0.246392
H119  H     H_    0.536160 0.265983 0.222482 0.207804
H120  H     H_    0.564856 0.349405 0.176173 0.181157
C161  C     C_3   0.811419 0.406645 0.205998 -0.262528
C162  C     C_3   0.890501 0.414939 0.241806 -0.763287
H121  H     H_    0.892889 0.388911 0.298053 0.279482
H122  H     H_    0.934647 0.389769 0.204906 0.266601
H123  H     H_    0.905433 0.475611 0.248965 0.252305
H124  H     H_    0.820755 0.415693 0.145039 0.217454
H125  H     H_    0.773125 0.452427 0.224108 0.213926
C163  C     C_3   0.167127 0.614529 0.738132 -0.288808
C164  C     C_3   0.092925 0.590279 0.699942 -0.670909
H126  H     H_    0.045081 0.625839 0.719327 0.243603
H127  H     H_    0.096895 0.591298 0.638281 0.308112
H128  H     H_    0.078860 0.531020 0.715718 0.235753
H129  H     H_    0.213112 0.574692 0.725661 0.218036
H130  H     H_    0.155730 0.607762 0.798896 0.211050
C165  C     C_3   0.620322 0.833778 0.280841 -0.303498
C166  C     C_3   0.606947 0.901711 0.332785 -0.698272
H131  H     H_    0.641659 0.898865 0.384727 0.273693
H132  H     H_    0.622084 0.954715 0.303341 0.216764
H133  H     H_    0.545867 0.905180 0.348531 0.299218
H134  H     H_    0.610204 0.853406 0.222570 0.217673
H135  H     H_    0.577430 0.788899 0.291269 0.212367
C167  C     C_3   0.416764 0.196578 0.800475 -0.287850
C168  C     C_3   0.422492 0.113406 0.777594 -0.751765
H136  H     H_    0.382097 0.078317 0.810404 0.292889
H137  H     H_    0.414734 0.105760 0.716800 0.298367
H138  H     H_    0.479385 0.091038 0.791088 0.227547
H139  H     H_    0.461586 0.231452 0.774651 0.211521
H140  H     H_    0.430773 0.196283 0.860879 0.213258
C169  C     C_3   0.188258 0.593682 0.211514 -0.270226
C170  C     C_3   0.108427 0.586319 0.245672 -0.768482
H141  H     H_    0.105147 0.613354 0.301396 0.279763
H142  H     H_    0.065292 0.611158 0.207537 0.267599
H143  H     H_    0.093152 0.525792 0.253436 0.252055
H144  H     H_    0.180602 0.581994 0.150792 0.217036
H145  H     H_    0.226245 0.548937 0.232603 0.211295
C171  C     C_3   0.835492 0.387340 0.716403 -0.260960
C172  C     C_3   0.910096 0.403188 0.756959 -0.832134
H146  H     H_    0.954517 0.362718 0.740576 0.290428
H147  H     H_    0.932450 0.459136 0.738499 0.242814
H148  H     H_    0.901986 0.405717 0.818671 0.294777
H149  H     H_    0.848010 0.403667 0.658594 0.281431
H150  H     H_    0.791399 0.424829 0.739754 0.210878
C173  C     C_3   0.377711 0.166667 0.280596 -0.300080
C174  C     C_3   0.391123 0.098659 0.332204 -0.700870
H151  H     H_    0.357253 0.101952 0.384717 0.273938
H152  H     H_    0.374856 0.045835 0.302900 0.219084
H153  H     H_    0.452395 0.094530 0.346863 0.297887
H154  H     H_    0.387592 0.147158 0.222186 0.219334
H155  H     H_    0.420632 0.211495 0.290880 0.213571
C175  C     C_3   0.585177 0.804901 0.799476 -0.286914
C176  C     C_3   0.580086 0.888647 0.777901 -0.746566
H156  H     H_    0.627502 0.921575 0.802300 0.294719
H157  H     H_    0.575898 0.896217 0.716644 0.291234
H158  H     H_    0.528390 0.914633 0.802004 0.227820
H159  H     H_    0.540207 0.770950 0.772797 0.209243
H160  H     H_    0.571125 0.804356 0.859874 0.213852
C177  C     C_3   0.210719 0.072889 0.324348 -0.280412
C178  C     C_3   0.129111 0.044400 0.309415 -0.938569
H161  H     H_    0.087112 0.090955 0.309862 0.270375
H162  H     H_    0.125637 0.016255 0.253778 0.253244
H163  H     H_    0.112002 0.002300 0.352671 0.256512
H164  H     H_    0.249995 0.037918 0.291129 0.224719
H165  H     H_    0.225313 0.063963 0.384419 0.183623
C179  C     C_3   0.762335 0.881279 0.734247 -0.348415
C180  C     C_3   0.729935 0.901628 0.656748 -0.794041
H166  H     H_    0.713426 0.852353 0.622628 0.301844
H167  H     H_    0.678298 0.935088 0.662397 0.260853
H168  H     H_    0.771669 0.936731 0.624866 0.217196
H169  H     H_    0.745687 0.925080 0.775012 0.211180
H170  H     H_    0.825435 0.885047 0.731883 0.172220
C181  C     C_3   0.109771 0.763817 0.260555 -0.320047
C182  C     C_3   0.088679 0.847659 0.267462 -0.974551
H171  H     H_    0.089730 0.865417 0.327322 0.275119
H172  H     H_    0.127484 0.884442 0.234573 0.261108
H173  H     H_    0.030029 0.856919 0.246211 0.247097
H174  H     H_    0.072091 0.737093 0.218500 0.241594
H175  H     H_    0.098411 0.736472 0.315576 0.194880
C183  C     C_3   0.928378 0.228285 0.664017 -0.339310
C184  C     C_3   0.940986 0.280687 0.595938 -0.828427
H176  H     H_    0.887778 0.307030 0.576250 0.294082
H177  H     H_    0.980867 0.327611 0.610565 0.262524
H178  H     H_    0.964718 0.248275 0.547910 0.237999
H179  H     H_    0.969495 0.243299 0.708305 0.215261
H180  H     H_    0.942516 0.169154 0.648919 0.191930
C185  C     C_3   0.786672 0.928503 0.322391 -0.276933
C186  C     C_3   0.867626 0.958097 0.306015 -0.941362
H181  H     H_    0.885008 0.000236 0.349188 0.257276
H182  H     H_    0.910249 0.912136 0.305192 0.269885
H183  H     H_    0.869682 0.986582 0.250574 0.253074
H184  H     H_    0.746498 0.962822 0.289675 0.224696
H185  H     H_    0.772719 0.937799 0.382600 0.182642
C187  C     C_3   0.243067 0.118198 0.736345 -0.333801
C188  C     C_3   0.273954 0.102360 0.656824 -0.808603
H186  H     H_    0.303301 0.151461 0.631755 0.308999
H187  H     H_    0.316854 0.058034 0.657629 0.246956
H188  H     H_    0.228449 0.081239 0.618830 0.227951
H189  H     H_    0.265083 0.075634 0.775748 0.221308
H190  H     H_    0.180356 0.109657 0.736456 0.170927
C189  C     C_3   0.888414 0.238134 0.259537 -0.318412
C190  C     C_3   0.909653 0.154438 0.267211 -0.973324
H191  H     H_    0.908941 0.137457 0.327256 0.274344
H192  H     H_    0.870695 0.117271 0.234958 0.261388
H193  H     H_    0.968214 0.144949 0.245657 0.247943
H194  H     H_    0.926697 0.264502 0.217805 0.242512
H195  H     H_    0.899009 0.266034 0.314472 0.193490
C191  C     C_3   0.072776 0.775550 0.668181 -0.301565
C192  C     C_3   0.058533 0.732870 0.594064 -0.853696
H196  H     H_    0.040881 0.772520 0.549146 0.243005
H197  H     H_    0.109316 0.702071 0.574413 0.298959
H198  H     H_    0.012934 0.689667 0.601357 0.252901
H199  H     H_    0.032121 0.754075 0.710253 0.212928
H200  H     H_    0.058620 0.836267 0.661061 0.180453
C193  C     C_3   0.295910 0.915320 0.695123 -0.284671
C194  C     C_3   0.381092 0.926910 0.710703 -0.757974
H201  H     H_    0.391924 0.939563 0.770449 0.284503
H202  H     H_    0.414918 0.878735 0.690812 0.298017
H203  H     H_    0.403989 0.975556 0.678366 0.233536
H204  H     H_    0.290317 0.927132 0.634609 0.208340
H205  H     H_    0.260950 0.959097 0.722210 0.205745
C195  C     C_3   0.656419 0.116813 0.202899 -0.259354
C196  C     C_3   0.587347 0.098657 0.251031 -0.804786
H206  H     H_    0.563117 0.043261 0.232953 0.246072
H207  H     H_    0.602986 0.094241 0.311055 0.299471
H208  H     H_    0.541856 0.140443 0.241491 0.284238
H209  H     H_    0.634545 0.114018 0.145188 0.263014
H210  H     H_    0.699087 0.072069 0.210971 0.221394
C197  C     C_3   0.124025 0.345113 0.781852 -0.299235
C198  C     C_3   0.110866 0.416101 0.828817 -0.681290
H211  H     H_    0.122547 0.406929 0.888905 0.304576
H212  H     H_    0.146709 0.463114 0.807409 0.238497
H213  H     H_    0.050624 0.433787 0.823783 0.247010
H214  H     H_    0.114777 0.362243 0.722707 0.221067
H215  H     H_    0.080201 0.302439 0.793823 0.233013
C199  C     C_3   0.922142 0.704510 0.298169 -0.397120
C200  C     C_3   0.937392 0.658460 0.369146 -0.788336
H216  H     H_    0.938010 0.693346 0.420580 0.276427
H217  H     H_    0.896638 0.610848 0.373540 0.315622
H218  H     H_    0.994786 0.633082 0.365274 0.246289
H219  H     H_    0.931468 0.663415 0.252719 0.261869
H220  H     H_    0.964054 0.750971 0.294698 0.214068
C201  C     C_3   0.707060 0.085082 0.694645 -0.293408
C202  C     C_3   0.621278 0.074532 0.706569 -0.756774
H221  H     H_    0.608197 0.061601 0.765834 0.279343
H222  H     H_    0.589044 0.123303 0.685715 0.300269
H223  H     H_    0.599150 0.026424 0.672897 0.235138
H224  H     H_    0.715736 0.071312 0.634846 0.207940
H225  H     H_    0.740119 0.041617 0.724106 0.208799
C203  C     C_3   0.342590 0.883925 0.204403 -0.257701
C204  C     C_3   0.411856 0.901768 0.252315 -0.808329
H226  H     H_    0.436779 0.956706 0.233832 0.246986
H227  H     H_    0.396238 0.907037 0.312291 0.298823
H228  H     H_    0.456761 0.859236 0.243244 0.284195
H229  H     H_    0.364327 0.886285 0.146571 0.263491
H230  H     H_    0.300165 0.928845 0.212722 0.222332
C205  C     C_3   0.878914 0.658552 0.778417 -0.294754
C206  C     C_3   0.895023 0.587504 0.823841 -0.686777
H231  H     H_    0.887389 0.595622 0.884620 0.307562
H232  H     H_    0.857114 0.541269 0.804541 0.250172
H233  H     H_    0.955007 0.570151 0.814577 0.244073
H234  H     H_    0.888118 0.641964 0.719096 0.215913
H235  H     H_    0.921492 0.702707 0.790067 0.226715
C207  C     C_3   0.076085 0.296410 0.299851 -0.402115
C208  C     C_3   0.061620 0.344449 0.369846 -0.777294
H236  H     H_    0.064672 0.311649 0.422409 0.278838
H237  H     H_    0.100605 0.393804 0.371139 0.311579
H238  H     H_    0.002967 0.367228 0.367330 0.245053
H239  H     H_    0.065744 0.336155 0.253617 0.261398
H240  H     H_    0.034213 0.249727 0.298124 0.212744

loop_
_geom_bond_atom_site_label_1
_geom_bond_atom_site_label_2
_geom_bond_distance
_ccdc_geom_bond_type
C192  H196  1.107272 S    
C4    N4    1.337213 A    
C5    N5    1.341493 A    
C144  H76   1.110085 S    
C198  H211  1.099503 S    
C121  H25   1.103977 S    
C113  H4    1.111083 S    
C185  C186  1.536659 S    
C196  H208  1.103119 S    
C147  H90   1.109361 S    
C94   C203  1.540973 S    
N17   N28   1.421197 A    
C203  H230  1.100228 S    
C151  H99   1.100879 S    
N18   N27   1.421197 A    
C142  H71   1.108046 S    
C176  H157  1.099159 S    
C110  C139  1.548524 S    
C96   C207  1.545164 S    
C163  H129  1.095496 S    
N21   N32   1.421197 A    
C7    Cl7   1.735329 S    
N22   N31   1.421197 A    
C171  H150  1.101317 S    
C134  H53   1.102311 S    
C117  H15   1.102768 S    
C39   C73   1.560478 S    
C136  H57   1.109593 S    
N23   Ni8   1.925585 S    
C2    C50   1.399176 A    
N3    N10   1.431467 A    
C72   C159  1.540562 S    
C195  H209  1.095967 S    
C76   C109  1.553751 S    
C6    Cl6   1.725488 S    
C23   C63   1.401369 A    
C41   C95   1.557437 S    
C95   C205  1.544954 S    
C6    C54   1.396625 A    
C92   C199  1.544243 S    
C35   C54   1.478572 S    
C130  H42   1.107958 S    
C145  H84   1.108664 S    
C154  H101  1.105762 S    
C115  H10   1.106487 S    
C140  H67   1.109704 S    
C79   C173  1.542145 S    
C2    N2    1.328171 A    
C79   C81   1.547966 S    
C117  C118  1.520511 S    
C10   Cl10  1.733221 S    
C191  H200  1.107933 S    
C30   Cl30  1.726582 S    
N8    Ni3   1.925583 S    
C126  H32   1.103837 S    
C166  H131  1.107378 S    
C42   C106  1.539739 S    
C202  H222  1.097359 S    
C18   Cl18  1.738421 S    
C125  H35   1.102409 S    
C164  H128  1.107946 S    
C207  H240  1.099423 S    
C130  H43   1.106866 S    
C132  H47   1.109789 S    
C48   C90   1.563794 S    
C158  H111  1.091157 S    
C19   C59   1.405021 A    
C119  C120  1.538833 S    
C208  H237  1.102915 S    
C156  H106  1.096255 S    
C177  H165  1.109343 S    
N30   Ni6   1.918820 S    
C194  H202  1.097373 S    
C74   C88   1.548505 S    
C25   C60   1.347826 A    
C125  C126  1.521358 S    
C154  H103  1.107728 S    
C199  H219  1.097111 S    
C200  H217  1.101282 S    
C78   C84   1.543592 S    
C195  C196  1.514572 S    
C28   Cl28  1.744498 S    
C102  C123  1.552092 S    
C95   C98   1.546938 S    
N29   Ni5   1.918819 S    
C175  H160  1.100719 S    
C165  H134  1.106753 S    
C20   Cl20  1.747796 S    
C10   C51   1.376725 A    
C21   Cl21  1.751494 S    
N6    Ni1   1.920947 S    
C172  H146  1.098943 S    
C138  H62   1.108042 S    
C36   C100  1.531879 S    
C146  H81   1.104079 S    
N19   Ni7   1.923447 S    
C24   Cl24  1.748814 S    
C198  H213  1.107415 S    
C155  H110  1.109526 S    
C14   C55   1.373603 A    
C135  H59   1.101557 S    
C39   C103  1.549654 S    
C189  H194  1.100790 S    
C156  H108  1.107429 S    
C40   C104  1.537001 S    
C141  H74   1.106763 S    
C197  H214  1.106024 S    
C142  H73   1.102382 S    
C112  C143  1.540420 S    
C16   Cl16  1.747609 S    
C103  C125  1.545209 S    
C70   C110  1.542549 S    
C91   C197  1.544988 S    
C168  H136  1.103599 S    
C23   N23   1.337236 A    
C24   N24   1.339686 A    
C9    N9    1.332963 A    
C193  H204  1.099871 S    
C88   C104  1.553028 S    
C179  C180  1.533864 S    
C12   N12   1.327176 A    
C13   N13   1.331479 A    
C139  H70   1.106307 S    
N9    Ni2   1.920703 S    
C107  C133  1.553320 S    
C153  H105  1.099884 S    
C167  H139  1.095122 S    
C199  C200  1.525333 S    
N27   Ni7   1.923627 S    
C119  H20   1.106780 S    
C42   C81   1.541724 S    
C44   C108  1.531807 S    
C118  H12   1.099297 S    
C194  H201  1.100762 S    
C41   C105  1.537098 S    
C7    N7    1.338826 A    
C8    N8    1.339501 A    
C108  C135  1.538502 S    
C177  C178  1.536566 S    
C46   C85   1.541902 S    
C126  H33   1.109089 S    
C197  H215  1.092511 S    
C68   C108  1.542441 S    
C28   C57   1.349646 A    
C152  H97   1.110521 S    
C106  C131  1.548691 S    
C48   C57   1.475862 S    
N11   Ni3   1.923627 S    
C69   C109  1.554189 S    
C158  H113  1.108456 S    
C208  H238  1.107881 S    
C76   C167  1.550372 S    
C15   C54   1.379483 A    
N28   Ni8   1.923626 S    
C159  H119  1.100285 S    
C22   N22   1.325200 A    
C89   C104  1.552941 S    
C79   C106  1.544287 S    
C192  H197  1.102612 S    
C132  H46   1.105619 S    
C137  H64   1.104349 S    
C77   C108  1.549961 S    
C143  H80   1.107537 S    
C66   C106  1.543368 S    
C78   C107  1.541081 S    
C144  H77   1.109270 S    
N7    Ni4   1.925585 S    
C122  H22   1.106044 S    
C83   C99   1.548824 S    
C203  C204  1.514934 S    
C129  C130  1.535949 S    
C173  H154  1.106689 S    
C81   C97   1.552927 S    
C46   C92   1.567091 S    
C167  C168  1.525091 S    
C36   C78   1.556140 S    
N14   Ni2   1.918820 S    
C169  H144  1.106158 S    
C133  H55   1.096446 S    
C67   C149  1.538373 S    
C171  C172  1.518280 S    
C148  H87   1.105644 S    
C134  H52   1.102941 S    
C172  H148  1.106254 S    
C6    N6    1.327833 A    
C179  H170  1.108882 S    
C14   Cl14  1.730347 S    
C35   C99   1.547756 S    
N32   Ni7   1.925824 S    
C26   C59   1.370090 A    
C65   C95   1.548164 S    
C66   C96   1.542058 S    
C157  H114  1.108722 S    
C187  H190  1.108972 S    
C2    Cl2   1.724719 S    
C204  H226  1.109588 S    
C15   Cl15  1.731242 S    
C188  H186  1.098405 S    
N10   Ni1   1.920702 S    
C25   N25   1.327430 A    
C9    C52   1.357439 A    
C123  C124  1.524617 S    
C180  H167  1.088797 S    
C85   C101  1.552899 S    
C28   N28   1.326955 A    
C29   N29   1.331527 A    
C191  C192  1.535563 S    
C13   C56   1.354495 A    
C43   C84   1.550407 S    
C31   N31   1.336231 A    
N20   Ni8   1.923448 S    
C155  C156  1.536932 S    
C32   N32   1.327858 A    
C17   N17   1.345001 A    
C94   C99   1.552766 S    
C131  H49   1.102252 S    
C152  H96   1.106502 S    
C29   C64   1.347186 A    
C42   C96   1.570086 S    
C187  C188  1.538484 S    
C188  H188  1.107852 S    
C9    Cl9   1.743045 S    
C80   C175  1.550538 S    
C124  H26   1.102272 S    
C120  H18   1.109439 S    
C37   C70   1.550461 S    
C184  H176  1.102709 S    
C34   C98   1.546852 S    
C3    N3    1.336669 A    
C116  H8    1.099889 S    
C39   C72   1.550540 S    
C11   Cl11  1.727643 S    
C123  H30   1.104800 S    
C127  H40   1.105215 S    
C199  H220  1.098301 S    
C163  C164  1.526298 S    
C178  H161  1.106706 S    
C161  H125  1.101233 S    
C182  H171  1.108352 S    
C116  H6    1.103705 S    
C128  H38   1.108863 S    
C34   C65   1.544290 S    
C208  H236  1.100436 S    
C175  C176  1.528957 S    
C168  H138  1.102191 S    
C92   C101  1.548774 S    
C133  H54   1.108820 S    
C173  H155  1.102662 S    
C132  H48   1.103885 S    
N24   N29   1.431467 A    
N1    N12   1.421197 A    
N2    N11   1.421197 A    
C96   C97   1.550102 S    
C198  H212  1.104263 S    
C155  H109  1.102642 S    
C121  H24   1.111100 S    
C90   C195  1.542209 S    
C135  C136  1.535632 S    
C189  H195  1.107641 S    
C196  H207  1.104287 S    
C150  H93   1.108405 S    
C151  H100  1.108752 S    
C83   C181  1.540017 S    
C142  H72   1.103675 S    
C207  C208  1.525750 S    
C114  H1    1.101545 S    
C33   C97   1.542795 S    
C160  H118  1.106709 S    
C163  H130  1.104081 S    
C205  H234  1.105367 S    
C39   C50   1.481159 S    
C166  H133  1.108939 S    
C195  H210  1.100747 S    
C189  C190  1.530622 S    
C139  C140  1.527311 S    
C162  H121  1.101004 S    
C204  H228  1.102883 S    
C141  C142  1.528623 S    
C120  H17   1.110032 S    
C32   C61   1.351562 A    
C154  H102  1.102836 S    
N2    Ni2   1.918994 S    
C72   C90   1.546571 S    
C201  C202  1.529095 S    
C17   C57   1.385272 A    
C183  H179  1.098624 S    
C201  H225  1.097766 S    
C206  H231  1.097235 S    
C41   C60   1.464684 S    
C170  H141  1.099851 S    
C87   C189  1.541535 S    
N31   Ni8   1.925823 S    
C10   N10   1.327186 A    
C197  C198  1.522144 S    
C138  H63   1.105895 S    
C47   C88   1.546092 S    
C166  H132  1.102022 S    
C161  C162  1.532377 S    
C185  H185  1.109271 S    
C136  H56   1.109739 S    
C14   N14   1.324239 A    
C121  C122  1.534093 S    
C164  H127  1.097727 S    
C206  H232  1.102676 S    
C158  H112  1.094786 S    
C124  H28   1.098638 S    
C27   Cl27  1.734444 S    
C25   Cl25  1.742786 S    
C35   C68   1.550514 S    
C23   Cl23  1.741834 S    
C37   C101  1.542991 S    
C47   C89   1.563037 S    
C40   C74   1.558423 S    
C3    C51   1.401314 A    
C143  C144  1.535645 S    
C177  H164  1.098748 S    
C186  H181  1.108580 S    
C126  H31   1.099375 S    
C71   C89   1.547322 S    
C182  H173  1.109275 S    
C37   C75   1.554814 S    
C176  H156  1.099794 S    
C99   C117  1.544288 S    
C30   C63   1.371412 A    
C69   C91   1.548561 S    
C1    C49   1.380302 A    
C128  H36   1.109372 S    
C72   C112  1.543468 S    
C70   C92   1.541536 S    
C36   C67   1.546495 S    
C69   C153  1.545745 S    
C40   C71   1.545202 S    
C80   C105  1.554637 S    
C137  C138  1.534944 S    
C73   C112  1.550779 S    
N4    N9    1.431467 A    
C147  H89   1.104424 S    
C146  H82   1.107162 S    
C74   C111  1.549576 S    
C190  H193  1.109458 S    
C113  H5    1.104411 S    
C97   C113  1.541999 S    
C156  H107  1.105366 S    
C74   C163  1.549654 S    
N8    N13   1.431467 A    
C157  H115  1.097455 S    
C203  H229  1.096220 S    
C120  H16   1.110422 S    
C31   C62   1.388547 A    
C176  H158  1.104514 S    
C174  H151  1.107161 S    
C82   C98   1.541240 S    
C184  H177  1.110216 S    
C45   C109  1.539243 S    
C160  H116  1.106044 S    
C44   C94   1.564021 S    
C190  H191  1.108290 S    
C170  H143  1.107012 S    
C43   C107  1.558274 S    
C171  H149  1.088590 S    
C86   C102  1.539999 S    
C129  H44   1.103982 S    
C100  C119  1.548460 S    
C186  H183  1.106488 S    
C68   C94   1.546119 S    
C12   Cl12  1.744610 S    
C67   C107  1.548180 S    
C13   Cl13  1.740314 S    
C157  C158  1.534355 S    
C20   C60   1.380710 A    
C65   C105  1.553243 S    
C3    Cl3   1.738621 S    
C130  H41   1.109661 S    
C145  H85   1.098305 S    
C153  H104  1.108960 S    
N19   N26   1.431467 A    
C167  H140  1.101120 S    
N15   Ni4   1.925823 S    
C174  H152  1.102251 S    
C75   C165  1.543124 S    
C35   C77   1.557743 S    
C34   C51   1.477141 S    
C206  H233  1.109721 S    
C201  H224  1.100128 S    
C70   C155  1.537802 S    
C4    Cl4   1.749087 S    
C82   C179  1.546471 S    
C5    Cl5   1.751255 S    
C191  H199  1.098179 S    
C30   N30   1.320257 A    
N5    Ni2   1.920946 S    
C127  C128  1.539905 S    
C114  H2    1.105727 S    
C8    Cl8   1.749950 S    
C131  C132  1.527704 S    
C18   N18   1.331849 A    
N3    Ni3   1.923447 S    
C84   C100  1.546936 S    
C98   C115  1.552114 S    
N12   Ni4   1.923626 S    
C75   C85   1.548414 S    
C173  C174  1.529779 S    
C43   C93   1.565511 S    
C159  H120  1.108802 S    
C42   C59   1.478205 S    
C104  C127  1.549839 S    
C194  H203  1.105630 S    
C38   C76   1.565848 S    
C114  H3    1.106804 S    
C109  C137  1.545904 S    
C67   C93   1.551647 S    
C205  H235  1.094491 S    
C135  H60   1.107650 S    
C113  C114  1.532066 S    
C93   C201  1.554628 S    
C149  H95   1.097101 S    
C150  H92   1.098823 S    
C200  H218  1.106470 S    
N13   Ni1   1.918819 S    
C153  C154  1.532030 S    
N20   N25   1.431467 A    
C175  H159  1.094605 S    
C93   C100  1.554304 S    
C124  H27   1.106940 S    
C41   C82   1.546490 S    
C172  H147  1.108578 S    
C138  H61   1.109267 S    
C45   C64   1.468170 S    
C146  H83   1.106436 S    
C45   C86   1.545506 S    
C4    C52   1.375036 A    
C33   C52   1.474602 S    
C149  C150  1.535442 S    
C27   C58   1.381312 A    
C145  C146  1.533787 S    
C47   C58   1.469748 S    
C207  H239  1.096298 S    
C8    C56   1.377346 A    
C174  H153  1.108835 S    
C15   N15   1.325938 A    
C37   C56   1.474950 S    
C16   N16   1.324987 A    
C180  H166  1.096056 S    
C1    N1    1.336081 A    
C205  C206  1.519067 S    
C88   C191  1.544294 S    
C141  H75   1.096442 S    
C202  H223  1.105556 S    
C68   C151  1.540381 S    
C16   C53   1.350495 A    
C193  H205  1.099291 S    
C136  H58   1.108194 S    
C29   Cl29  1.745883 S    
C148  H86   1.096811 S    
C19   Cl19  1.741286 S    
C45   C91   1.560192 S    
C131  H50   1.106687 S    
C139  H69   1.102161 S    
C89   C193  1.551999 S    
C117  H14   1.108913 S    
N25   Ni6   1.920703 S    
C188  H187  1.088747 S    
C183  C184  1.537555 S    
C66   C147  1.539668 S    
C119  H19   1.102834 S    
C26   N26   1.320701 A    
C118  H11   1.108647 S    
C116  H7    1.106677 S    
C43   C62   1.481551 S    
C11   N11   1.325901 A    
N21   Ni6   1.920946 S    
C178  H162  1.106985 S    
C161  H124  1.106662 S    
C181  H175  1.107607 S    
C21   C61   1.385442 A    
C86   C187  1.545895 S    
C125  H34   1.108839 S    
C152  H98   1.106919 S    
C76   C86   1.544935 S    
C149  H94   1.108584 S    
C128  H37   1.110018 S    
C65   C145  1.543825 S    
N16   Ni3   1.925824 S    
C22   Cl22  1.710981 S    
C17   Cl17  1.751862 S    
C80   C82   1.546356 S    
C184  H178  1.108737 S    
C168  H137  1.096731 S    
C33   C79   1.552899 S    
C192  H198  1.107990 S    
C38   C102  1.545288 S    
C78   C171  1.542246 S    
C137  H65   1.100668 S    
C143  H79   1.101393 S    
N17   Ni5   1.918995 S    
C12   C49   1.347763 A    
C144  H78   1.108300 S    
C178  H163  1.108619 S    
C190  H192  1.103590 S    
C101  C121  1.540082 S    
C181  C182  1.530973 S    
C122  H21   1.105918 S    
N24   Ni7   1.925583 S    
C87   C103  1.548377 S    
C196  H206  1.109500 S    
C115  H9    1.095180 S    
C77   C169  1.548291 S    
C24   C64   1.380231 A    
C1    Cl1   1.749887 S    
C151  C152  1.532220 S    
C38   C69   1.545762 S    
C111  C141  1.560896 S    
C160  H117  1.110023 S    
C165  C166  1.530335 S    
C129  H45   1.099796 S    
C169  H145  1.102331 S    
C150  H91   1.094081 S    
C148  H88   1.107362 S    
C134  H51   1.105856 S    
C193  C194  1.531776 S    
C105  C129  1.548596 S    
C179  H169  1.098860 S    
N5    N16   1.421197 A    
C90   C103  1.552202 S    
N6    N15   1.421197 A    
C91   C102  1.546536 S    
C81   C177  1.539183 S    
N7    N14   1.431467 A    
C147  C148  1.535588 S    
C187  H189  1.099099 S    
C162  H122  1.108736 S    
C204  H227  1.103849 S    
C71   C157  1.540192 S    
C140  H68   1.103952 S    
C84   C183  1.538421 S    
C133  C134  1.527526 S    
N26   Ni5   1.920702 S    
C183  H180  1.105883 S    
C33   C66   1.550945 S    
C200  H216  1.100878 S    
C180  H168  1.110351 S    
C46   C110  1.538981 S    
C47   C111  1.550039 S    
C44   C61   1.478224 S    
C48   C112  1.530886 S    
C202  H221  1.101103 S    
C170  H142  1.108803 S    
C31   Cl31  1.737312 S    
C46   C63   1.473974 S    
C44   C83   1.544021 S    
C32   Cl32  1.745499 S    
C122  H23   1.100454 S    
C71   C111  1.541129 S    
N22   Ni5   1.920947 S    
C5    C53   1.380644 A    
C185  H184  1.099090 S    
C181  H174  1.101148 S    
C73   C87   1.545050 S    
C48   C87   1.543132 S    
C162  H123  1.106553 S    
C7    C55   1.401124 A    
C164  H126  1.105491 S    
C26   Cl26  1.726243 S    
C73   C161  1.548822 S    
C36   C53   1.471570 S    
C22   C62   1.389091 A    
C165  H135  1.103445 S    
C115  C116  1.521620 S    
C38   C55   1.476300 S    
C77   C83   1.545506 S    
C20   N20   1.336639 A    
C27   N27   1.328980 A    
C21   N21   1.345226 A    
C40   C49   1.462118 S    
C11   C50   1.380330 A    
C159  C160  1.531042 S    
C169  C170  1.530039 S    
N4    Ni4   1.923448 S    
C118  H13   1.104136 S    
C75   C110  1.544336 S    
C182  H172  1.103945 S    
C123  H29   1.094805 S    
C127  H39   1.101525 S    
C186  H182  1.106406 S    
N18   Ni6   1.918994 S    
C85   C185  1.541122 S    
C19   N19   1.339202 A    
N23   N30   1.431467 A    
C34   C80   1.568079 S    
C18   C58   1.393771 A    
C140  H66   1.105310 S    
N1    Ni1   1.918995 S    
