data_mof_unit_65685.cif
_audit_creation_date              2012-12-10T19:33:13-0500
_audit_creation_method            fapswitch 2.2
_symmetry_space_group_name_H-M    P1
_symmetry_Int_Tables_number       1
_space_group_crystal_system       triclinic
_cell_length_a                    27.77519
_cell_length_b                    15.734968
_cell_length_c                    14.924063
_cell_angle_alpha                 90.005036
_cell_angle_beta                  90.000706
_cell_angle_gamma                 89.985477
_cell_volume                      6522.4380149

loop_
_atom_site_label
_atom_site_type_symbol
_atom_type_description
_atom_site_fract_x
_atom_site_fract_y
_atom_site_fract_z
_atom_type_partial_charge
C1    C     C_R   0.500007 0.337443 0.499986 0.916846
C2    C     C_R   0.499992 0.662557 0.500014 0.916850
C3    C     C_R   0.101957 0.500005 0.499960 -0.127008
C4    C     C_R   0.898044 0.499970 0.500036 -0.127011
C5    C     C_R   0.127441 0.422205 0.509582 -0.097815
C6    C     C_R   0.872563 0.577798 0.509452 -0.097813
C7    C     C_R   0.101357 0.345742 0.521165 0.342032
C8    C     C_R   0.898650 0.654289 0.520811 0.342037
C9    C     C_R   0.127407 0.577815 0.490326 -0.097824
C10   C     C_R   0.872591 0.422135 0.490638 -0.097808
C11   C     C_R   0.353206 0.500032 0.499973 -0.147070
C12   C     C_R   0.646795 0.499966 0.500027 -0.147159
C13   C     C_R   0.974602 0.422259 0.496002 0.026423
C14   C     C_R   0.025397 0.577701 0.495764 0.026425
C15   C     C_R   0.974572 0.577703 0.504010 0.026425
C16   C     C_R   0.025430 0.422279 0.504206 0.026425
C17   C     C_R   0.949136 0.499977 0.500016 0.092101
C18   C     C_R   0.050865 0.499995 0.499976 0.092103
C19   C     C_R   0.948600 0.346728 0.482053 -0.230689
C20   C     C_R   0.051396 0.653194 0.481576 -0.230699
C21   C     C_R   0.898706 0.345650 0.479271 0.342036
C22   C     C_R   0.101289 0.654266 0.478753 0.342032
C23   C     C_R   0.405798 0.500021 0.499984 0.917514
C24   C     C_R   0.594202 0.499979 0.500015 0.917525
C25   C     C_R   0.051462 0.346795 0.518371 -0.230699
C26   C     C_R   0.948544 0.653226 0.517988 -0.230691
C27   C     C_3   0.539276 0.971893 0.543477 -0.148698
C28   C     C_3   0.460723 0.028106 0.456523 -0.148517
C29   C     C_3   0.539869 0.028060 0.458427 -0.148272
C30   C     C_3   0.460130 0.971940 0.541573 -0.148093
C31   C     C_1   0.500008 0.248543 0.499980 -0.160148
C32   C     C_1   0.499991 0.751457 0.500020 -0.160148
C33   C     C_3   0.499410 0.028109 0.585039 -0.157494
C34   C     C_3   0.500588 0.971891 0.414961 -0.157492
C35   C     C_3   0.500003 0.082477 0.499989 0.180718
C36   C     C_3   0.499995 0.917523 0.500011 0.180718
C37   C     C_1   0.500007 0.173278 0.499981 -0.050271
C38   C     C_1   0.499992 0.826722 0.500019 -0.050271
C39   C     C_3   0.508420 0.421008 0.969860 -0.145749
C40   C     C_3   0.491580 0.578992 0.030140 -0.145790
C41   C     C_3   0.542966 0.473364 0.030121 -0.135044
C42   C     C_3   0.457033 0.526637 0.969879 -0.134939
C43   C     C_3   0.465461 0.447648 0.030139 -0.138771
C44   C     C_3   0.534539 0.552352 0.969861 -0.138922
C45   C     C_R   0.178019 0.424496 0.507893 0.628797
C46   C     C_R   0.821984 0.575506 0.507785 0.628798
C47   C     C_3   0.500007 0.500003 0.089251 0.095087
C48   C     C_3   0.499992 0.499997 0.910749 0.095087
C49   C     C_1   0.500015 0.500002 0.189658 0.066757
C50   C     C_1   0.499984 0.499998 0.810342 0.066758
C51   C     C_R   0.177987 0.575546 0.492001 0.628809
C52   C     C_R   0.822011 0.424413 0.492325 0.628801
C53   C     C_R   0.277889 0.504432 0.581418 0.300440
C54   C     C_R   0.722112 0.504135 0.418570 0.300421
C55   C     C_R   0.327922 0.504324 0.581212 -0.229865
C56   C     C_R   0.672078 0.504040 0.418776 -0.229902
C57   C     C_R   0.327931 0.495746 0.418724 -0.229833
C58   C     C_R   0.672070 0.495882 0.581288 -0.229865
C59   C     C_R   0.277897 0.495644 0.418499 0.300431
C60   C     C_R   0.722104 0.495774 0.581514 0.300425
C61   C     C_R   0.252844 0.500038 0.499954 0.160512
C62   C     C_R   0.747157 0.499953 0.500046 0.160490
H1    H     H_    0.571370 0.946719 0.579004 0.159805
H2    H     H_    0.428628 0.053281 0.420996 0.159639
H3    H     H_    0.501069 0.946713 0.345473 0.152978
H4    H     H_    0.498929 0.053287 0.654528 0.152982
H5    H     H_    0.515385 0.355663 0.944996 0.148188
H6    H     H_    0.484614 0.644338 0.055004 0.148236
H7    H     H_    0.033644 0.287134 0.531106 0.184240
H8    H     H_    0.966367 0.712919 0.530548 0.184242
N1    N     N_R   0.201508 0.500027 0.499947 -0.347196
N2    N     N_R   0.798493 0.499957 0.500056 -0.347191
N3    N     N_1   0.500020 0.500000 0.268010 -0.087979
N4    N     N_1   0.499980 0.500000 0.731990 -0.087979
O1    O     O_R   0.500000 0.376780 0.574460 -0.608740
O2    O     O_R   0.500000 0.623220 0.425540 -0.608740
O3    O     O_R   0.500010 0.376780 0.425520 -0.609056
O4    O     O_R   0.499990 0.623220 0.574480 -0.609055
O5    O     O_R   0.428750 0.500010 0.574460 -0.617687
O6    O     O_R   0.571250 0.499990 0.425540 -0.617707
O7    O     O_R   0.428760 0.500020 0.425520 -0.617600
O8    O     O_R   0.571240 0.499980 0.574480 -0.617618
O9    O     O_2   0.204176 0.352584 0.513484 -0.465508
O10   O     O_2   0.795831 0.647436 0.513179 -0.465550
O11   O     O_2   0.795884 0.352477 0.486940 -0.465556
O12   O     O_2   0.204112 0.647469 0.486403 -0.465496
Zn1   Zn    Zn3+2 0.499990 0.500000 0.599450 0.998676
Zn2   Zn    Zn3+2 0.500010 0.500000 0.400550 0.998675
H9    H     H_    0.346904 0.492268 0.355425 0.198098
H10   H     H_    0.653098 0.492579 0.644597 0.198196
H11   H     H_    0.578510 0.451335 0.054972 0.156905
H12   H     H_    0.421489 0.548666 0.945028 0.156823
H13   H     H_    0.563112 0.595656 0.944996 0.153684
H14   H     H_    0.436887 0.404345 0.055004 0.153549
Br1   Br    Br    0.244562 0.489183 0.306256 -0.403437
Br2   Br    Br    0.755441 0.489617 0.693776 -0.403326
Br3   Br    Br    0.129317 0.235541 0.543704 -0.308646
Br4   Br    Br    0.870696 0.764552 0.543068 -0.308712
H15   H     H_    0.653112 0.507348 0.355459 0.197787
H16   H     H_    0.346888 0.507799 0.644518 0.197683
Br5   Br    Br    0.755457 0.510287 0.306319 -0.404033
Br6   Br    Br    0.244542 0.510893 0.693650 -0.404147
Br7   Br    Br    0.870789 0.235375 0.457062 -0.308706
Br8   Br    Br    0.129200 0.764478 0.456194 -0.308640
H17   H     H_    0.966442 0.287039 0.469487 0.184238
H18   H     H_    0.033549 0.712847 0.468851 0.184241
H19   H     H_    0.572448 0.053197 0.424457 0.160073
H20   H     H_    0.427551 0.946803 0.575543 0.159912

loop_
_geom_bond_atom_site_label_1
_geom_bond_atom_site_label_2
_ccdc_geom_bond_type
O4    Zn1   S    
C40   C47   S    
C45   N1    A    
C1    O3    A    
C14   C18   A    
C54   Br5   S    
C9    C51   A    
C10   C52   A    
O5    Zn1   S    
C2    O2    A    
C39   C41   S    
C27   C33   S    
C57   H9    S    
C52   N2    A    
C2    C32   S    
C52   O11   S    
C35   C37   S    
C50   N4    T    
C9    C22   A    
C57   C59   A    
C27   C29   S    
C58   C60   A    
O8    Zn1   S    
C1    C31   S    
C43   H14   S    
C22   Br8   S    
C51   O12   S    
C3    C18   A    
C60   C62   A    
C24   O8    A    
C8    Br4   S    
C44   H13   S    
C53   C61   A    
C24   O6    A    
C28   C35   S    
C55   H16   S    
C32   C38   T    
N4    Zn1   S    
C7    Br3   S    
O2    Zn2   S    
C46   N2    A    
C12   C58   A    
C61   N1    S    
C40   C42   S    
C28   C34   S    
C45   O9    S    
C51   N1    A    
C34   H3    S    
C33   H4    S    
C20   H18   S    
C53   C55   A    
C10   C21   A    
C8    C26   A    
C54   C56   A    
C59   C61   A    
C13   C19   A    
C1    O1    A    
C14   C20   A    
O3    Zn2   S    
C4    C6    A    
C5    C7    A    
C15   C26   A    
C6    C8    A    
C54   C62   A    
C5    C45   A    
C29   C34   S    
C31   C37   T    
N3    Zn2   S    
C3    C9    A    
C42   H12   S    
C53   Br6   S    
C41   C47   S    
C62   N2    S    
C42   C48   S    
C48   C50   S    
C58   H10   S    
C12   C56   A    
C27   H1    S    
C59   Br1   S    
C46   O10   S    
C4    C17   A    
C60   Br2   S    
O1    Zn1   S    
C41   H11   S    
C20   C22   A    
C26   H8    S    
C41   C44   S    
C49   N3    T    
C25   H7    S    
C42   C43   S    
C4    C10   A    
C19   H17   S    
C11   C55   A    
C2    O4    A    
C28   H2    S    
C16   C25   A    
C15   C17   A    
C12   C24   S    
C6    C46   A    
C30   C33   S    
C30   H20   S    
C39   H5    S    
C23   O7    A    
C3    C5    A    
C39   C43   S    
C30   C36   S    
C27   C36   S    
C47   C49   S    
C29   C35   S    
C7    C25   A    
C13   C17   A    
C36   C38   S    
C28   C30   S    
O6    Zn2   S    
C11   C23   S    
C33   C35   S    
C34   C36   S    
O7    Zn2   S    
C21   Br7   S    
C40   C44   S    
C16   C18   A    
C40   H6    S    
C13   C16   A    
C14   C15   A    
C29   H19   S    
C56   H15   S    
C23   O5    A    
C11   C57   A    
C43   C47   S    
C44   C48   S    
C39   C48   S    
C19   C21   A    
