data_mof_unit_47072.cif
_audit_creation_date              2012-12-10T16:50:05-0500
_audit_creation_method            fapswitch 2.2
_symmetry_space_group_name_H-M    P1
_symmetry_Int_Tables_number       1
_space_group_crystal_system       triclinic
_cell_length_a                    7.786724
_cell_length_b                    8.566872
_cell_length_c                    10.603697
_cell_angle_alpha                 90.982212
_cell_angle_beta                  85.676971
_cell_angle_gamma                 93.737871
_cell_volume                      703.783968321

loop_
_atom_site_label
_atom_site_type_symbol
_atom_type_description
_atom_site_fract_x
_atom_site_fract_y
_atom_site_fract_z
_atom_type_partial_charge
C1    C     C_R   0.545792 0.794680 0.496801 0.923844
C2    C     C_R   0.454209 0.205310 0.503252 0.999782
C3    C     C_R   0.498872 0.503168 0.260686 0.881739
C4    C     C_R   0.411519 0.786064 0.877215 -0.378990
C5    C     C_R   0.362681 0.917322 0.947386 0.587166
C6    C     C_R   0.357813 0.915802 0.078963 0.585187
C7    C     C_R   0.401558 0.782943 0.140547 -0.374347
C8    C     C_R   0.449763 0.648400 0.070693 0.007409
C9    C     C_R   0.454992 0.650070 0.938396 0.009732
C10   C     C_R   0.508059 0.515824 0.871260 -0.043797
C11   C     C_R   0.561368 0.385958 0.930561 -0.129123
C12   C     C_R   0.556105 0.384212 0.059522 -0.123558
C13   C     C_R   0.498009 0.512498 0.128487 -0.038981
C14   C     C_2   0.569781 0.958264 0.494918 -0.372027
C15   C     C_2   0.430175 0.041695 0.505117 -0.300796
C16   C     C_R   0.502589 0.504686 0.739218 0.879588
F1    F     F_    0.321420 0.046703 0.887268 -0.653315
F2    F     F_    0.311955 0.043770 0.147349 -0.657215
H1    H     H_    0.602766 0.284409 0.876852 0.176441
H2    H     H_    0.986691 0.617992 0.594591 0.199094
H3    H     H_    0.417318 0.792995 0.775245 0.190144
H4    H     H_    0.399082 0.787518 0.242566 0.196462
H5    H     H_    0.595318 0.281883 0.106012 0.175259
H6    H     H_    0.701569 0.009484 0.485156 0.188822
H7    H     H_    0.298387 0.990457 0.514863 0.188307
H8    H     H_    0.013329 0.382033 0.405399 0.209635
N1    N     N_2   0.950330 0.457950 0.466250 -0.166463
N2    N     N_2   0.049670 0.542050 0.533750 -0.167718
O1    O     O_R   0.389250 0.738570 0.508280 -0.625423
O2    O     O_R   0.678390 0.711630 0.486650 -0.622490
O3    O     O_R   0.355400 0.513470 0.694050 -0.599737
O4    O     O_R   0.644540 0.486530 0.672420 -0.631605
O5    O     O_R   0.321610 0.288370 0.513350 -0.611742
O6    O     O_R   0.610750 0.261430 0.491720 -0.620126
O7    O     O_R   0.355460 0.513470 0.327580 -0.615427
O8    O     O_R   0.644600 0.486530 0.305950 -0.616273
Zn1   Zn    Zn3+2 0.306930 0.517990 0.514440 0.981849
Zn2   Zn    Zn3+2 0.693070 0.482010 0.485560 0.968695

loop_
_geom_bond_atom_site_label_1
_geom_bond_atom_site_label_2
_ccdc_geom_bond_type
C11   C12   A    
C6    C7    A    
C4    H3    S    
O4    Zn2   S    
C16   O4    A    
C7    H4    S    
C9    C10   A    
C3    C13   S    
C3    O7    A    
C2    O6    A    
O8    Zn2   S    
C7    C8    A    
C10   C16   S    
C16   O3    A    
C2    C15   S    
C12   H5    S    
C11   H1    S    
H8    N1    S    
C8    C13   A    
C3    O8    A    
N2    Zn1   S    
C2    O5    A    
C1    O1    A    
C1    O2    A    
O7    Zn1   S    
C5    C6    A    
C6    F2    S    
C15   H7    S    
C5    F1    S    
C10   C11   A    
N1    Zn2   S    
C14   H6    S    
C12   C13   A    
O2    Zn2   S    
O1    Zn1   S    
N1    N2    D    
C14   C15   D    
C8    C9    A    
C1    C14   S    
H2    N2    S    
C4    C9    A    
O6    Zn2   S    
O5    Zn1   S    
O3    Zn1   S    
C4    C5    A    
