data_mof_unit_51897.cif
_audit_creation_date              2012-12-10T18:11:03-0500
_audit_creation_method            fapswitch 2.2
_symmetry_space_group_name_H-M    P1
_symmetry_Int_Tables_number       1
_space_group_crystal_system       triclinic
_cell_length_a                    11.01864
_cell_length_b                    9.646474
_cell_length_c                    10.642343
_cell_angle_alpha                 90.218899
_cell_angle_beta                  85.773521
_cell_angle_gamma                 90.68921
_cell_volume                      1128.02280807

loop_
_atom_site_label
_atom_site_type_symbol
_atom_type_description
_atom_site_fract_x
_atom_site_fract_y
_atom_site_fract_z
_atom_type_partial_charge
C1    C     C_R   0.260337 0.499000 0.500137 0.888376
C2    C     C_3   0.501155 0.500780 0.122741 -0.159700
C3    C     C_3   0.060581 0.599382 0.599507 0.664156
C4    C     C_3   0.065467 0.345473 0.514486 0.617326
C5    C     C_3   0.921456 0.578116 0.607956 -0.434117
C6    C     C_3   0.925901 0.350723 0.507236 -0.380542
C7    C     C_3   0.087137 0.546324 0.366297 -0.511734
C8    C     C_3   0.122364 0.496820 0.497448 -0.272715
C9    C     C_3   0.879826 0.499582 0.491728 -0.277933
C10   C     C_3   0.945697 0.557562 0.364913 0.700140
C11   C     C_3   0.598408 0.083178 0.576725 0.272031
C12   C     C_3   0.577095 0.924797 0.599595 0.329654
C13   C     C_3   0.381965 0.081510 0.557764 0.130375
C14   C     C_3   0.377351 0.914215 0.544820 0.136315
C15   C     C_3   0.515951 0.081312 0.371995 0.234536
C16   C     C_3   0.527034 0.917065 0.374839 0.248121
C17   C     C_R   0.502097 0.500061 0.259893 0.875495
C18   C     C_R   0.740235 0.500350 0.494852 0.894581
C19   C     C_R   0.494862 0.500180 0.740108 0.894072
C20   C     C_3   0.399938 0.569048 0.053627 -0.260098
C21   C     C_3   0.494147 0.369138 0.041521 -0.177390
C22   C     C_3   0.394211 0.438244 0.970767 0.470216
C23   C     C_3   0.491868 0.500793 0.877244 -0.158551
C24   C     C_3   0.498209 0.632559 0.958172 -0.175341
C25   C     C_3   0.592889 0.432858 0.946524 -0.240308
C26   C     C_3   0.598324 0.563972 0.028905 0.466185
Cu1   Cu    Cu3+1 0.499860 0.642410 0.500060 1.100770
Cu2   Cu    Cu3+1 0.499860 0.357590 0.500060 1.082444
H1    H     H_    0.599797 0.137525 0.668861 0.148594
H2    H     H_    0.529404 0.920620 0.694967 0.144841
H3    H     H_    0.433093 0.105046 0.322319 0.086766
H4    H     H_    0.459410 0.875240 0.311388 0.088832
H5    H     H_    0.306741 0.121800 0.506524 0.212998
H6    H     H_    0.311422 0.887425 0.474069 0.161083
H7    H     H_    0.320484 0.624239 0.099365 0.204676
H8    H     H_    0.490326 0.260349 0.075020 0.226446
H9    H     H_    0.500215 0.740786 0.922809 0.225726
H10   H     H_    0.672471 0.377628 0.901099 0.209281
H11   H     H_    0.889636 0.521396 0.695500 0.211254
H12   H     H_    0.879370 0.305259 0.594017 0.244868
H13   H     H_    0.877805 0.678581 0.616368 0.298718
H14   H     H_    0.899588 0.289011 0.425587 0.305540
H15   H     H_    0.133608 0.646343 0.340815 0.233416
H16   H     H_    0.124196 0.475168 0.291107 0.241600
N1    N     N_3   0.500250 0.143650 0.502780 -0.311615
N2    N     N_3   0.500250 0.856350 0.502780 -0.297876
O1    O     O_R   0.317570 0.620260 0.500070 -0.556861
O2    O     O_R   0.317570 0.379740 0.500070 -0.543200
O3    O     O_R   0.499850 0.620240 0.316900 -0.578835
O4    O     O_R   0.499850 0.379760 0.316900 -0.550318
O5    O     O_R   0.682190 0.620260 0.500030 -0.481269
O6    O     O_R   0.682190 0.379740 0.500030 -0.545115
O7    O     O_R   0.499910 0.620280 0.683200 -0.536901
O8    O     O_R   0.499910 0.379720 0.683200 -0.561205
Cl1   Cl    Cl    0.253990 0.356413 0.940793 -0.333965
Cl2   Cl    Cl    0.912680 0.734570 0.339080 -0.296545
Cl3   Cl    Cl    0.896641 0.463164 0.231730 -0.407268
Cl4   Cl    Cl    0.749778 0.101290 0.506732 -0.389118
Cl5   Cl    Cl    0.705909 0.838971 0.648449 -0.457321
Cl6   Cl    Cl    0.350787 0.139240 0.717492 -0.381873
Cl7   Cl    Cl    0.317000 0.833373 0.690366 -0.368150
Cl8   Cl    Cl    0.635713 0.158188 0.267510 -0.380692
Cl9   Cl    Cl    0.666667 0.855025 0.305311 -0.273821
Cl10  Cl    Cl    0.735494 0.653320 0.056598 -0.350023
Cl11  Cl    Cl    0.086659 0.779186 0.559929 -0.392002
Cl12  Cl    Cl    0.123529 0.226517 0.393622 -0.498671
Cl13  Cl    Cl    0.114596 0.578630 0.753041 -0.364309
Cl14  Cl    Cl    0.095061 0.268653 0.661848 -0.344053

loop_
_geom_bond_atom_site_label_1
_geom_bond_atom_site_label_2
_ccdc_geom_bond_type
C17   O4    A    
C14   H6    S    
C7    C10   S    
C19   C23   S    
C23   C24   S    
Cu1   O7    S    
C1    O2    A    
C13   H5    S    
C22   Cl1   S    
C16   Cl9   S    
C7    H15   S    
C25   H10   S    
C16   H4    S    
C1    C8    S    
C10   Cl2   S    
C9    C10   S    
Cu1   O1    S    
C4    C8    S    
C11   C12   S    
C19   O7    A    
C2    C21   S    
C23   C25   S    
C24   H9    S    
C18   O6    A    
C7    C8    S    
C14   N2    S    
C21   H8    S    
C21   C22   S    
C2    C17   S    
C13   N1    S    
Cu2   O6    S    
C24   C26   S    
C11   H1    S    
C5    C9    S    
C3    Cl11  S    
C21   C25   S    
C6    C9    S    
Cu2   O4    S    
C19   O8    A    
C12   N2    S    
C12   Cl5   S    
C15   Cl8   S    
Cu1   O5    S    
C18   O5    A    
C5    H11   S    
Cu2   O8    S    
C3    Cl13  S    
C6    H12   S    
Cu2   N1    S    
C11   N1    S    
C4    C6    S    
C15   N1    S    
C16   N2    S    
C15   C16   S    
C11   Cl4   S    
C20   C24   S    
C9    C18   S    
C10   Cl3   S    
Cu1   N2    S    
C4    Cl12  S    
C2    C26   S    
C3    C8    S    
C6    H14   S    
C17   O3    A    
Cu1   Cu2   S    
C4    Cl14  S    
C5    H13   S    
C22   C23   S    
Cu2   O2    S    
C20   H7    S    
C26   Cl10  S    
C12   H2    S    
C25   C26   S    
C13   C14   S    
C14   Cl7   S    
C2    C20   S    
C15   H3    S    
C7    H16   S    
C1    O1    A    
C13   Cl6   S    
Cu1   O3    S    
C20   C22   S    
C3    C5    S    
