data_mof_unit_44822.cif
_audit_creation_date              2012-12-10T17:00:45-0500
_audit_creation_method            fapswitch 2.2
_symmetry_space_group_name_H-M    P1
_symmetry_Int_Tables_number       1
_space_group_crystal_system       triclinic
_cell_length_a                    10.718398
_cell_length_b                    10.766879
_cell_length_c                    10.066505
_cell_angle_alpha                 90.014269
_cell_angle_beta                  103.679002
_cell_angle_gamma                 89.351029
_cell_volume                      1128.68496466

loop_
_atom_site_label
_atom_site_type_symbol
_atom_type_description
_atom_site_fract_x
_atom_site_fract_y
_atom_site_fract_z
_atom_type_partial_charge
C1    C     C_R   0.488606 0.264142 0.496901 0.850978
C2    C     C_2   0.121237 0.515236 0.412946 -0.468580
C3    C     C_2   0.064644 0.575077 0.499953 0.533165
C4    C     C_2   0.878586 0.521800 0.585192 -0.336242
C5    C     C_2   0.928444 0.556167 0.481120 -0.302681
C6    C     C_2   0.466505 0.935895 0.387946 0.368515
C7    C     C_3   0.071290 0.758922 0.623683 0.146491
C8    C     C_3   0.059506 0.846818 0.500613 -0.468534
C9    C     C_3   0.960755 0.949959 0.500921 -0.828176
C10   C     C_3   0.315938 0.947050 0.172792 0.129228
C11   C     C_3   0.187154 0.950785 0.213634 -0.411834
C12   C     C_2   0.521328 0.869339 0.501744 0.203964
C13   C     C_3   0.080221 0.005327 0.100237 -0.900832
C14   C     C_3   0.257585 0.159219 0.556906 0.041697
C15   C     C_3   0.246856 0.206421 0.697285 -0.237245
C16   C     C_3   0.254790 0.101323 0.801013 -0.700896
C17   C     C_2   0.485588 0.068377 0.391343 -0.320551
C18   C     C_2   0.446381 0.137900 0.483459 0.390760
C19   C     C_2   0.603216 0.494836 0.950967 -0.060442
C20   C     C_2   0.600048 0.520635 0.097076 -0.030359
C21   C     C_R   0.258998 0.504642 0.443334 0.945194
C22   C     C_R   0.502706 0.737587 0.500230 0.849079
C23   C     C_R   0.741479 0.502678 0.556573 0.956845
H1    H     H_    0.870856 0.563396 0.376807 0.166002
H2    H     H_    0.976488 0.742515 0.646625 0.191246
H3    H     H_    0.155156 0.886689 0.503911 0.230888
H4    H     H_    0.028655 0.796132 0.402530 0.223782
H5    H     H_    0.863686 0.909453 0.486843 0.306786
H6    H     H_    0.959124 0.015108 0.415021 0.244060
H7    H     H_    0.984221 0.002292 0.598437 0.275705
H8    H     H_    0.301361 0.900297 0.071955 0.179007
H9    H     H_    0.349437 0.041849 0.156382 0.156671
H10   H     H_    0.160814 0.854909 0.236364 0.241338
H11   H     H_    0.196355 0.007961 0.306868 0.217729
H12   H     H_    0.428330 0.554926 0.872721 0.242042
H13   H     H_    0.102739 0.102057 0.077080 0.252329
H14   H     H_    0.988667 0.006057 0.133737 0.277340
H15   H     H_    0.067562 0.948415 0.006004 0.273863
H16   H     H_    0.712100 0.776862 0.787134 0.373500
H17   H     H_    0.175073 0.098587 0.516335 0.150008
H18   H     H_    0.244848 0.239340 0.484563 0.062563
H19   H     H_    0.323901 0.274021 0.736468 0.280706
H20   H     H_    0.153360 0.256040 0.685743 0.170264
H21   H     H_    0.181043 0.030465 0.762060 0.213789
H22   H     H_    0.237826 0.139375 0.897750 0.236073
H23   H     H_    0.687206 0.554975 0.164111 0.089600
H24   H     H_    0.351251 0.056574 0.823380 0.313193
H25   H     H_    0.937352 0.513202 0.688824 0.180879
H26   H     H_    0.065434 0.467377 0.323647 0.128024
H27   H     H_    0.539173 0.106676 0.321947 0.170116
H28   H     H_    0.694609 0.472149 0.927900 0.146528
H29   H     H_    0.241711 0.277474 0.117985 0.341921
H30   H     H_    0.128810 0.806218 0.715615 0.155608
N1    N     N_2   0.501330 0.501330 0.852460 -0.149168
N2    N     N_2   0.501370 0.501360 0.148130 0.082529
O1    O     O_R   0.499980 0.319060 0.613030 -0.585966
O2    O     O_2   0.442419 0.299199 0.990562 -0.325405
O3    O     O_3   0.316356 0.320311 0.175752 -0.529039
O4    O     O_3   0.135857 0.646261 0.606989 -0.605790
O5    O     O_3   0.407012 0.874501 0.266982 -0.638003
O6    O     O_2   0.703582 0.039266 0.614593 -0.315520
O7    O     O_2   0.563715 0.963978 0.756539 -0.266432
O8    O     O_3   0.742719 0.816665 0.712177 -0.592873
O9    O     O_3   0.372445 0.088783 0.567033 -0.596322
O10   O     O_R   0.500020 0.319100 0.386910 -0.587620
O11   O     O_R   0.317800 0.500000 0.570840 -0.581763
O12   O     O_R   0.317840 0.500040 0.344720 -0.546766
O13   O     O_R   0.499980 0.680900 0.613090 -0.602450
O14   O     O_R   0.500020 0.680940 0.386970 -0.587430
O15   O     O_R   0.682160 0.499960 0.655280 -0.619712
O16   O     O_R   0.682200 0.500000 0.429160 -0.634656
O17   O     O_2   0.277288 0.464068 0.968106 -0.345956
S1    S     S_3+6 0.384107 0.396112 0.065752 0.087179
S2    S     S_3+6 0.633371 0.928166 0.648791 0.013234
Zn1   Zn    Zn3+2 0.499970 0.499970 0.650990 1.013795
Zn2   Zn    Zn3+2 0.500030 0.500030 0.349010 1.073029

loop_
_geom_bond_atom_site_label_1
_geom_bond_atom_site_label_2
_ccdc_geom_bond_type
C16   H22   S    
C17   H27   S    
C1    O10   A    
C8    C9    S    
C2    H26   S    
C12   S2    S    
O6    S2    D    
C8    H3    S    
C16   H21   S    
C22   O14   A    
C13   H14   S    
C19   C20   S    
C7    H2    S    
C9    H6    S    
C14   O9    S    
C2    C21   S    
C14   C15   S    
C17   C18   D    
C1    C18   S    
C15   H20   S    
C7    C8    S    
O10   Zn2   S    
O1    Zn1   S    
C21   O12   A    
O13   Zn1   S    
C10   H9    S    
C23   O16   A    
C11   C13   S    
C23   O15   A    
C18   O9    S    
C13   H15   S    
C5    H1    S    
H29   O3    S    
C9    H7    S    
C13   H13   S    
C14   H18   S    
O11   Zn1   S    
C15   H19   S    
C19   N1    D    
C7    O4    S    
O8    S2    S    
C1    O1    A    
C2    C3    D    
C19   H28   S    
C20   N2    D    
C6    C12   D    
O16   Zn2   S    
C21   O11   A    
C12   C22   S    
C20   H23   S    
C10   C11   S    
N2    Zn2   S    
C14   H17   S    
N1    Zn1   S    
N2    S1    S    
C6    O5    S    
C11   H10   S    
H16   O8    S    
C16   H24   S    
O14   Zn2   S    
C4    H25   S    
O2    S1    D    
O15   Zn1   S    
C8    H4    S    
C6    C17   S    
C7    H30   S    
C10   O5    S    
C4    C5    D    
O12   Zn2   S    
C3    C5    S    
C4    C23   S    
C22   O13   A    
O3    S1    S    
C10   H8    S    
C11   H11   S    
O7    S2    D    
C15   C16   S    
C9    H5    S    
O17   S1    D    
H12   N1    S    
C3    O4    S    
