data_mof_unit_7678.cif
_audit_creation_date              2012-10-26T19:46:06-0400
_audit_creation_method            fapswitch 2.2
_symmetry_space_group_name_H-M    P1
_symmetry_Int_Tables_number       1
_space_group_crystal_system       triclinic
_cell_length_a                    10.801371
_cell_length_b                    9.519648
_cell_length_c                    15.88711
_cell_angle_alpha                 90.064435
_cell_angle_beta                  90.257116
_cell_angle_gamma                 90.048656
_cell_volume                      1633.57797734

loop_
_atom_site_label
_atom_site_type_symbol
_atom_type_description
_atom_site_fract_x
_atom_site_fract_y
_atom_site_fract_z
_atom_type_partial_charge
C1    C     C_R   0.262168 0.499933 0.499808 0.618084
C2    C     C_R   0.933634 0.592785 0.447771 -0.139208
C3    C     C_R   0.870668 0.500055 0.499986 -0.030929
C4    C     C_R   0.127744 0.499732 0.499802 -0.028370
C5    C     C_R   0.424047 0.074246 0.446922 0.026340
C6    C     C_R   0.424071 0.925439 0.446910 0.026071
C7    C     C_R   0.500435 0.499922 0.340260 0.572052
C8    C     C_R   0.576060 0.925766 0.553079 0.022667
C9    C     C_R   0.576072 0.074586 0.553074 0.027220
C10   C     C_R   0.737508 0.500039 0.500010 0.537995
C11   C     C_R   0.500199 0.500083 0.659850 0.576141
C12   C     C_3   0.615001 0.589114 0.949311 -0.177469
C13   C     C_3   0.382574 0.568315 0.049047 -0.011406
C14   C     C_3   0.504592 0.346240 0.048387 0.013293
C15   C     C_3   0.516045 0.349081 0.950607 -0.224913
C16   C     C_3   0.383980 0.569519 0.951080 -0.202215
C17   C     C_1   0.500862 0.500330 0.749468 -0.002907
C18   C     C_3   0.507433 0.501692 0.083130 0.133720
C19   C     C_3   0.503882 0.501363 0.917163 -0.018061
C20   C     C_3   0.553010 0.154411 0.148574 -0.323557
C21   C     C_3   0.229314 0.756724 0.070824 -0.327719
C22   C     C_3   0.748115 0.805704 0.064498 -0.305514
C23   C     C_3   0.627036 0.582379 0.047873 0.325643
C24   C     C_3   0.783870 0.495395 0.155894 -0.274977
C25   C     C_2   0.124358 0.319211 0.619376 0.579903
C26   C     C_2   0.123855 0.677951 0.379557 0.564703
C27   C     C_1   0.501903 0.500736 0.824979 -0.067931
C28   C     C_1   0.504546 0.500163 0.175434 -0.024045
C29   C     C_1   0.502109 0.499861 0.250849 -0.038447
C30   C     C_R   0.062802 0.408830 0.555047 0.020228
C31   C     C_R   0.062264 0.590540 0.444583 0.026708
C32   C     C_R   0.934191 0.406956 0.551983 -0.136130
Cu1   Cu    Cu3+1 0.500020 0.640660 0.500000 0.978688
Cu2   Cu    Cu3+1 0.500020 0.359340 0.500000 0.989781
H1    H     H_    0.301754 0.511433 0.926751 0.112031
H2    H     H_    0.701605 0.552656 0.918466 0.106366
H3    H     H_    0.882738 0.337790 0.593313 0.153993
H4    H     H_    0.881809 0.661740 0.406264 0.153207
H5    H     H_    0.363140 0.130179 0.404400 0.121035
H6    H     H_    0.363228 0.869298 0.404363 0.141476
H7    H     H_    0.664616 0.213952 0.049026 0.245058
H8    H     H_    0.632830 0.107469 0.182609 0.149939
H9    H     H_    0.500960 0.069415 0.115966 0.140219
H10   H     H_    0.492053 0.205746 0.195495 0.162802
H11   H     H_    0.383631 0.723790 0.144191 0.259696
H12   H     H_    0.442174 0.281865 0.922553 0.118352
H13   H     H_    0.222081 0.867274 0.092637 0.147178
H14   H     H_    0.164066 0.691350 0.107936 0.149432
H15   H     H_    0.202397 0.753195 0.003367 0.150885
H16   H     H_    0.560225 0.788317 0.067951 0.263294
H17   H     H_    0.742583 0.909446 0.096264 0.130120
H18   H     H_    0.759506 0.823962 0.995985 0.126029
H19   H     H_    0.831359 0.751580 0.089289 0.180132
H20   H     H_    0.767436 0.423987 0.031047 0.237519
H21   H     H_    0.886439 0.488661 0.156864 0.127949
H22   H     H_    0.746667 0.398904 0.185509 0.171410
H23   H     H_    0.637034 0.869829 0.595550 0.115965
H24   H     H_    0.756210 0.588043 0.193832 0.175516
H25   H     H_    0.122667 0.137565 0.684710 0.337084
H26   H     H_    0.256651 0.693249 0.291102 0.320780
H27   H     H_    0.637077 0.130804 0.595528 0.113225
H28   H     H_    0.305326 0.498093 0.069025 0.122890
H29   H     H_    0.411495 0.300554 0.061729 0.118123
H30   H     H_    0.605924 0.305210 0.929121 0.116312
H31   H     H_    0.377326 0.678942 0.926828 0.151876
H32   H     H_    0.601973 0.699329 0.927687 0.111535
N1    N     N_R   0.500030 0.852070 0.500020 -0.232851
N2    N     N_R   0.500030 0.147930 0.500020 -0.227974
N3    N     N_2   0.597598 0.255506 0.087725 -0.525034
N4    N     N_2   0.355096 0.707583 0.082956 -0.544749
N5    N     N_2   0.635595 0.726467 0.081100 -0.499634
N6    N     N_2   0.741560 0.506381 0.069209 -0.488091
O1    O     O_R   0.319660 0.618740 0.500000 -0.475337
O2    O     O_R   0.073676 0.188294 0.639451 -0.705645
O3    O     O_2   0.083502 0.794764 0.362971 -0.537496
O4    O     O_R   0.224448 0.624716 0.334659 -0.708404
O5    O     O_R   0.319660 0.381260 0.500000 -0.473005
O6    O     O_R   0.500020 0.618840 0.379440 -0.490144
O7    O     O_R   0.500020 0.381160 0.379440 -0.507063
O8    O     O_R   0.680370 0.618830 0.500010 -0.508255
O9    O     O_R   0.680370 0.381170 0.500010 -0.508948
O10   O     O_R   0.500010 0.618730 0.620560 -0.507093
O11   O     O_R   0.500010 0.381270 0.620560 -0.478643
O12   O     O_2   0.216187 0.361285 0.657002 -0.518501

loop_
_geom_bond_atom_site_label_1
_geom_bond_atom_site_label_2
_ccdc_geom_bond_type
C7    C29   S    
C1    O5    A    
C14   C18   S    
C21   H15   S    
C24   H21   S    
C15   C19   S    
C12   C23   S    
C24   N6    S    
C13   C18   S    
C9    H27   S    
C22   H18   S    
C28   C29   T    
Cu2   O5    S    
C5    C6    A    
Cu2   O7    S    
Cu1   O6    S    
C13   N4    S    
C25   O2    S    
C13   H28   S    
C8    C9    A    
C25   O12   D    
C26   O4    S    
C15   H30   S    
Cu2   O9    S    
C12   H2    S    
C19   C27   S    
Cu1   O10   S    
C21   H14   S    
C26   C31   S    
C5    N2    A    
C20   H10   S    
C26   O3    D    
C22   H19   S    
C11   O10   A    
C18   C23   S    
C17   C27   T    
C23   N5    S    
C18   C28   S    
Cu2   N2    S    
C10   O8    A    
C11   O11   A    
C12   H32   S    
H26   O4    S    
C2    C31   A    
H16   N5    S    
C8    H23   S    
C2    H4    S    
Cu1   Cu2   S    
C32   H3    S    
H25   O2    S    
C7    O6    A    
Cu1   O1    S    
C6    N1    A    
C5    H5    S    
C14   N3    S    
C6    H6    S    
C20   N3    S    
Cu2   O11   S    
C22   N5    S    
C20   H9    S    
Cu1   N1    S    
C7    O7    A    
C25   C30   S    
C11   C17   S    
H11   N4    S    
C23   N6    S    
C20   H8    S    
Cu1   O8    S    
C24   H22   S    
C10   O9    A    
C21   N4    S    
C1    C4    S    
C1    O1    A    
C2    C3    A    
C9    N2    A    
C16   H1    S    
C3    C10   S    
C30   C32   A    
C16   C19   S    
C14   H29   S    
C12   C19   S    
C3    C32   A    
C4    C31   A    
H20   N6    S    
C8    N1    A    
C24   H24   S    
C13   C16   S    
C14   C15   S    
C16   H31   S    
C15   H12   S    
H7    N3    S    
C4    C30   A    
C22   H17   S    
C21   H13   S    
