data_mof_unit_48212.cif
_audit_creation_date              2012-12-10T17:03:38-0500
_audit_creation_method            fapswitch 2.2
_symmetry_space_group_name_H-M    P1
_symmetry_Int_Tables_number       1
_space_group_crystal_system       triclinic
_cell_length_a                    10.082235
_cell_length_b                    10.725743
_cell_length_c                    13.067783
_cell_angle_alpha                 90.353854
_cell_angle_beta                  68.753158
_cell_angle_gamma                 87.79974
_cell_volume                      1315.81140651

loop_
_atom_site_label
_atom_site_type_symbol
_atom_type_description
_atom_site_fract_x
_atom_site_fract_y
_atom_site_fract_z
_atom_type_partial_charge
C1    C     C_R   0.504399 0.736094 0.486415 0.831467
C2    C     C_R   0.364555 0.502161 0.826263 -0.267767
C3    C     C_2   0.627040 0.062252 0.462774 0.340163
C4    C     C_R   0.419397 0.499653 0.705326 1.034229
C5    C     C_2   0.503069 0.127332 0.518502 0.256667
C6    C     C_2   0.633060 0.926426 0.449479 0.403109
C7    C     C_2   0.517309 0.865401 0.452158 0.165525
C8    C     C_2   0.111065 0.431612 0.432000 0.718079
C9    C     C_2   0.958318 0.425011 0.437694 0.442654
C10   C     C_R   0.500145 0.262089 0.505577 0.865157
C11   C     C_R   0.580598 0.498754 0.294829 0.901007
C12   C     C_R   0.430233 0.489991 0.988168 -0.114737
C13   C     C_R   0.740152 0.322857 0.030331 0.448749
C14   C     C_R   0.634052 0.478153 0.175629 -0.368690
C15   C     C_R   0.246836 0.583007 0.884274 0.214113
C16   C     C_R   0.217851 0.613265 0.994108 0.467846
C17   C     C_R   0.302063 0.560824 0.048504 0.358158
C18   C     C_3   0.956488 0.404349 0.131863 -0.132600
C19   C     C_3   0.280055 0.138994 0.665299 -0.223911
C20   C     C_3   0.838210 0.835465 0.329549 -0.178021
C21   C     C_3   0.211613 0.237772 0.366058 -0.234475
C22   C     C_3   0.865715 0.276130 0.747252 -0.230220
C23   C     C_R   0.447575 0.445295 0.882042 -0.130956
C24   C     C_3   0.780115 0.114139 0.039952 -0.160854
C25   C     C_3   0.138168 0.810492 0.053343 -0.208902
C26   C     C_3   0.825390 0.111525 0.498043 -0.144759
C27   C     C_R   0.539374 0.460114 0.030265 -0.051927
C28   C     C_R   0.642950 0.362470 0.979887 -0.261004
C29   C     C_R   0.647411 0.307095 0.880432 0.453217
C30   C     C_R   0.546191 0.344401 0.834301 0.384027
C31   C     C_R   0.552853 0.529313 0.117871 0.399571
C32   C     C_R   0.737072 0.382677 0.126825 0.348132
H1    H     H_    0.000019 0.400719 0.040325 0.141962
H2    H     H_    0.341776 0.866474 0.420525 0.367583
H3    H     H_    0.153884 0.194010 0.318245 0.205419
H4    H     H_    0.162755 0.213049 0.454298 0.129817
H5    H     H_    0.321844 0.196236 0.334628 0.203053
H6    H     H_    0.096939 0.559872 0.641666 0.382313
H7    H     H_    0.839428 0.350736 0.369168 0.424791
H8    H     H_    0.799718 0.653380 0.570929 0.400320
H9    H     H_    0.830110 0.331378 0.689335 0.165537
H10   H     H_    0.944504 0.203319 0.698195 0.160529
H11   H     H_    0.920335 0.337197 0.787270 0.197584
H12   H     H_    0.939465 0.502786 0.162519 0.202009
H13   H     H_    0.677971 0.094869 0.029489 0.158709
H14   H     H_    0.764244 0.117854 0.128733 0.171168
H15   H     H_    0.856250 0.034700 0.001847 0.180611
H16   H     H_    0.525551 0.689871 0.196151 0.321364
H17   H     H_    0.120117 0.564071 0.808106 0.339017
H18   H     H_    0.284000 0.496891 0.189720 0.382004
H19   H     H_    0.192967 0.845284 0.968894 0.175975
H20   H     H_    0.206886 0.819591 0.102901 0.189269
H21   H     H_    0.040906 0.871101 0.092413 0.154755
H22   H     H_    0.597717 0.201853 0.730233 0.353287
H23   H     H_    0.038773 0.359169 0.158740 0.211824
H24   H     H_    0.940677 0.091753 0.452581 0.184138
H25   H     H_    0.787741 0.037618 0.560464 0.160445
H26   H     H_    0.812437 0.201662 0.543000 0.167207
H27   H     H_    0.209634 0.189009 0.629302 0.168219
H28   H     H_    0.326770 0.204968 0.707211 0.179937
H29   H     H_    0.211935 0.077459 0.729186 0.196496
H30   H     H_    0.863822 0.921922 0.280823 0.159562
H31   H     H_    0.780847 0.771529 0.294140 0.137138
H32   H     H_    0.940431 0.787132 0.322754 0.224350
N1    N     N_2   0.148270 0.498670 0.498870 0.016778
N2    N     N_2   0.852610 0.498640 0.498840 -0.009031
O1    O     O_R   0.386950 0.680940 0.500020 -0.607739
O2    O     O_3   0.384344 0.063480 0.584684 -0.607121
O3    O     O_3   0.759518 0.863446 0.441379 -0.611611
O4    O     O_3   0.416072 0.925167 0.418405 -0.778757
O5    O     O_3   0.218077 0.367504 0.347969 -0.648259
O6    O     O_3   0.050604 0.511262 0.600723 -0.738662
O7    O     O_3   0.935809 0.336384 0.369991 -0.802832
O8    O     O_3   0.889443 0.611175 0.522279 -0.642446
O9    O     O_3   0.751777 0.216949 0.826301 -0.597508
O10   O     O_3   0.838261 0.224560 0.987120 -0.569148
O11   O     O_3   0.489848 0.648077 0.143890 -0.715686
O12   O     O_R   0.613110 0.680900 0.499980 -0.590912
O13   O     O_3   0.158701 0.635120 0.835439 -0.715554
O14   O     O_3   0.246910 0.570091 0.161491 -0.704753
O15   O     O_3   0.097510 0.686456 0.051440 -0.588728
O16   O     O_3   0.536890 0.279483 0.745494 -0.814288
O17   O     O_3   0.755677 0.120392 0.421257 -0.602176
O18   O     O_R   0.330780 0.500000 0.653640 -0.638623
O19   O     O_R   0.556930 0.499960 0.653610 -0.587445
O20   O     O_R   0.386890 0.319100 0.500020 -0.621434
O21   O     O_R   0.613050 0.319060 0.499980 -0.598854
O22   O     O_R   0.443070 0.500040 0.346390 -0.558585
O23   O     O_R   0.669220 0.500000 0.346360 -0.611439
O24   O     O_3   0.829163 0.340262 0.176760 -0.588646
Zn1   Zn    Zn3+2 0.349000 0.500030 0.500020 1.009191
Zn2   Zn    Zn3+2 0.651000 0.499970 0.499980 1.004832

loop_
_geom_bond_atom_site_label_1
_geom_bond_atom_site_label_2
_ccdc_geom_bond_type
C6    O3    S    
C20   H32   S    
C26   O17   S    
C13   C32   A    
C14   C31   A    
C3    C6    S    
C7    O4    S    
C21   H4    S    
C22   H10   S    
C12   C23   A    
C21   O5    S    
C24   H13   S    
C28   C29   A    
C25   H21   S    
O20   Zn1   S    
C11   C14   S    
C22   H9    S    
C15   C16   A    
N2    O8    S    
C9    N2    D    
C32   O24   S    
C8    C9    S    
C12   C17   A    
O22   Zn1   S    
C13   C28   A    
O18   Zn1   S    
H2    O4    S    
O12   Zn2   S    
C8    N1    D    
O21   Zn2   S    
C25   O15   S    
C1    O12   A    
C9    O7    S    
C22   O9    S    
C5    O2    S    
C26   H25   S    
O19   Zn2   S    
C31   O11   S    
H6    O6    S    
C10   O21   A    
C12   C27   A    
C27   C31   A    
C18   O24   S    
C23   C30   A    
C24   O10   S    
N2    Zn2   S    
C4    O19   A    
C19   H27   S    
C17   O14   S    
H17   O13   S    
H18   O14   S    
H16   O11   S    
C30   O16   S    
C2    C4    S    
C25   H19   S    
C29   C30   A    
C18   H12   S    
C11   O23   A    
C22   H11   S    
C4    O18   A    
C13   O10   S    
C11   O22   A    
O1    Zn1   S    
C19   O2    S    
O23   Zn2   S    
C2    C15   A    
C26   H26   S    
C18   H23   S    
C29   O9    S    
C3    O17   S    
C20   O3    S    
H22   O16   S    
N1    Zn1   S    
C10   O20   A    
C8    O5    S    
C1    C7    S    
C24   H15   S    
C14   C32   A    
C3    C5    D    
C26   H24   S    
C6    C7    D    
C21   H3    S    
C15   O13   S    
C19   H28   S    
N1    O6    S    
C24   H14   S    
C20   H31   S    
C25   H20   S    
C5    C10   S    
C16   C17   A    
C19   H29   S    
C16   O15   S    
C1    O1    A    
H8    O8    S    
H7    O7    S    
C20   H30   S    
C18   H1    S    
C21   H5    S    
C2    C23   A    
C27   C28   A    
