data_mof_unit_33329.cif
_audit_creation_date              2013-03-05T15:54:25-0500
_audit_creation_method            fapswitch 2.2
_symmetry_space_group_name_H-M    P1
_symmetry_Int_Tables_number       1
_space_group_crystal_system       triclinic
_cell_length_a                    15.723264
_cell_length_b                    10.595149
_cell_length_c                    9.954318
_cell_angle_alpha                 87.845727
_cell_angle_beta                  90.488469
_cell_angle_gamma                 93.25417
_cell_volume                      1654.41505697

loop_
_atom_site_label
_atom_site_type_symbol
_atom_site_description
_atom_site_fract_x
_atom_site_fract_y
_atom_site_fract_z
_atom_type_partial_charge
O1    O     O_R   0.500000 0.316780 0.614690 -0.549682
O2    O     O_R   0.499990 0.316750 0.385360 -0.591064
C1    C     C_R   0.512927 0.262411 0.503666 0.961787
O3    O     O_R   0.376780 0.500000 0.614650 -0.588931
O4    O     O_R   0.376770 0.499980 0.385310 -0.648567
C2    C     C_R   0.338189 0.500152 0.499409 0.912137
Zn1   Zn    Zn3+2 0.500010 0.500020 0.653130 1.079387
Zn2   Zn    Zn3+2 0.499990 0.499980 0.346870 1.007971
O5    O     O_R   0.500010 0.683250 0.614640 -0.588423
O6    O     O_R   0.500000 0.683220 0.385310 -0.627638
O7    O     O_R   0.623230 0.500020 0.614690 -0.550586
O8    O     O_R   0.623220 0.500000 0.385350 -0.611913
C3    C     C_R   0.495349 0.740224 0.497752 0.882689
C4    C     C_R   0.661860 0.500441 0.500539 0.901719
C5    C     C_3   0.969387 0.397241 0.580213 0.249762
C6    C     C_3   0.023774 0.383109 0.454344 -0.209387
H1    H     H_    0.044377 0.292984 0.415326 0.223931
H2    H     H_    0.943746 0.472470 0.273812 0.211712
C7    C     C_1   0.249312 0.497685 0.498622 -0.078981
C8    C     C_1   0.750607 0.498029 0.502004 -0.051149
C9    C     C_3   0.029111 0.504901 0.627272 0.273882
C10   C     C_3   0.083191 0.493259 0.502407 0.013137
C11   C     C_3   0.976002 0.603412 0.552754 -0.239221
C12   C     C_3   0.916510 0.493402 0.504557 0.004088
C13   C     C_3   0.030973 0.591329 0.425185 -0.165461
C14   C     C_3   0.969940 0.481504 0.377150 -0.127542
C15   C     C_1   0.174013 0.495300 0.499629 0.103466
C16   C     C_1   0.825767 0.495620 0.503343 0.098980
H3    H     H_    0.058186 0.671040 0.360601 0.194725
H4    H     H_    0.955513 0.692647 0.594048 0.209056
C17   C     C_R   0.515345 0.098483 0.766165 0.421249
C18   C     C_R   0.465390 0.035791 0.867525 0.420398
C19   C     C_R   0.413245 0.929809 0.837335 -0.213296
H5    H     H_    0.372799 0.883093 0.913764 0.195506
C20   C     C_R   0.417780 0.878183 0.711308 -0.161590
H6    H     H_    0.379900 0.791924 0.692879 0.170546
C21   C     C_R   0.471638 0.936603 0.611491 0.060091
C22   C     C_R   0.507774 0.057480 0.631789 -0.071307
C23   C     C_R   0.533194 0.130615 0.515255 -0.189488
C24   C     C_R   0.556979 0.070733 0.399277 0.420359
H7    H     H_    0.562306 0.894430 0.305182 0.206427
C25   C     C_R   0.539598 0.942277 0.391152 -0.192156
C26   C     C_R   0.495213 0.875622 0.495085 -0.145073
H8    H     H_    0.614485 0.609687 0.123055 0.173772
C27   C     C_R   0.370933 0.367184 0.149455 -0.123914
H9    H     H_    0.379289 0.338370 0.252065 0.234268
C28   C     C_R   0.294103 0.330644 0.090926 0.342525
C29   C     C_R   0.286499 0.337798 0.953128 -0.160721
H10   H     H_    0.228737 0.296462 0.908423 0.246913
C30   C     C_R   0.358048 0.370333 0.874002 0.375074
C31   C     C_R   0.432696 0.435383 0.931002 0.027710
C32   C     C_R   0.435080 0.435254 0.075609 0.076869
N1    N     N_R   0.499210 0.498800 0.142780 -0.119010
C33   C     C_R   0.563190 0.559825 0.070231 -0.100714
C34   C     C_R   0.563753 0.559898 0.927610 0.369201
N2    N     N_R   0.499180 0.498720 0.857170 -0.148414
Cl1   Cl    Cl    0.210665 0.261426 0.189678 -0.542535
Cl2   Cl    Cl    0.352561 0.271608 0.736777 -0.591934
N3    N     N_R   0.633088 0.625276 0.858233 0.222995
O9    O     O_R   0.710321 0.592145 0.882406 -0.322205
O10   O     O_R   0.621879 0.734469 0.798736 -0.360624
N4    N     N_R   0.937089 0.291640 0.666867 0.242640
O11   O     O_R   0.990087 0.217068 0.725458 -0.305547
O12   O     O_R   0.855710 0.271203 0.686223 -0.299089
N5    N     N_R   0.060006 0.516127 0.765045 0.237497
O13   O     O_R   0.005992 0.524395 0.862072 -0.303608
O14   O     O_R   0.141149 0.518812 0.791893 -0.388876
Cl3   Cl    Cl    0.615849 0.151558 0.269235 -0.451953
Cl4   Cl    Cl    0.598298 0.208103 0.814037 -0.431500
Cl5   Cl    Cl    0.465219 0.089172 0.032376 -0.520367

loop_
_geom_bond_atom_site_label_1
_geom_bond_atom_site_label_2
_geom_bond_distance
_ccdc_geom_bond_type
Zn2   N1    2.032012 S    
C21   C26   1.410085 A    
O4    Zn2   1.978042 S    
C6    C10   1.540870 S    
C34   N2    1.374754 A    
C34   N3    1.427016 S    
C21   C22   1.392394 A    
H8    C33   1.082298 S    
C28   Cl1   1.756083 S    
C7    C15   1.182899 T    
H7    C25   1.084062 S    
C17   Cl4   1.770953 S    
N4    O12   1.300331 A    
C28   C29   1.375487 A    
H2    C14   1.110241 S    
C17   C22   1.423805 A    
C5    C9    1.521010 S    
Zn2   O8    1.971862 S    
C9    N5    1.457837 S    
C18   C19   1.392861 A    
C24   C25   1.378125 A    
C30   C31   1.449402 A    
C1    C23   1.450017 S    
N3    O9    1.301082 A    
O1    Zn1   1.992857 S    
N1    C33   1.361984 A    
Zn1   O7    1.978043 S    
C2    C7    1.396169 S    
N4    O11   1.300241 A    
Zn1   N2    2.030757 S    
O3    Zn1   1.971862 S    
C5    C6    1.539627 S    
C29   C30   1.398372 A    
C5    C12   1.524546 S    
C20   C21   1.412831 A    
C5    N4    1.457451 S    
C12   C14   1.540236 S    
O6    C3    1.296210 A    
C19   H5    1.082790 S    
O2    C1    1.310711 A    
C10   C15   1.427438 S    
C11   C13   1.555468 S    
C9    C11   1.538542 S    
C6    C14   1.556472 S    
O4    C2    1.292284 A    
O7    C4    1.292738 A    
C27   H9    1.064218 S    
N3    O10   1.300054 A    
C25   C26   1.399136 A    
C11   C12   1.540882 S    
C31   C32   1.439584 A    
C30   Cl2   1.750035 S    
C11   H4    1.110273 S    
C4    C8    1.397020 S    
C3    C26   1.433932 S    
C22   C23   1.418090 A    
C32   N1    1.364700 A    
C17   C18   1.407146 A    
C13   H3    1.110173 S    
O3    C2    1.293144 A    
N5    O13   1.300231 A    
C24   Cl3   1.764349 S    
C27   C28   1.378583 A    
C23   C24   1.401638 A    
Zn1   O5    1.964614 S    
O5    C3    1.293966 A    
C33   C34   1.419770 A    
C29   H10   1.085026 S    
C18   Cl5   1.755768 S    
C8    C16   1.183441 T    
C27   C32   1.402845 A    
C19   C20   1.391265 A    
C13   C14   1.552661 S    
C9    C10   1.524664 S    
N5    O14   1.300248 A    
C10   C13   1.539706 S    
Zn2   O6    1.992856 S    
O2    Zn2   1.964616 S    
C12   C16   1.428244 S    
O8    C4    1.293095 A    
C6    H1    1.110299 S    
O1    C1    1.288228 A    
C20   H6    1.082862 S    
C31   N2    1.406985 A    
