data_mof_unit_52855.cif
_audit_creation_date              2012-12-10T17:33:09-0500
_audit_creation_method            fapswitch 2.2
_symmetry_space_group_name_H-M    P1
_symmetry_Int_Tables_number       1
_space_group_crystal_system       triclinic
_cell_length_a                    15.532821
_cell_length_b                    15.514809
_cell_length_c                    17.928391
_cell_angle_alpha                 91.019964
_cell_angle_beta                  110.029348
_cell_angle_gamma                 68.845348
_cell_volume                      3757.9695822

loop_
_atom_site_label
_atom_site_type_symbol
_atom_type_description
_atom_site_fract_x
_atom_site_fract_y
_atom_site_fract_z
_atom_type_partial_charge
C1    C     C_R   0.464451 0.740098 0.532821 0.898794
C2    C     C_R   0.609189 0.422786 0.083547 -0.222927
C3    C     C_R   0.670670 0.371356 0.044711 -0.239739
C4    C     C_R   0.535933 0.259137 0.470205 0.770676
C5    C     C_R   0.641671 0.387294 0.962137 0.166867
C6    C     C_R   0.548077 0.456137 0.916675 0.095212
C7    C     C_R   0.706733 0.336185 0.924670 -0.195885
C8    C     C_R   0.680446 0.353205 0.842451 -0.205317
C9    C     C_R   0.520602 0.466854 0.832869 -0.273905
C10   C     C_R   0.450509 0.949852 0.641746 0.340014
C11   C     C_R   0.453448 0.834929 0.548502 -0.151463
C12   C     C_R   0.337751 0.666855 0.160619 -0.324466
C13   C     C_R   0.558552 0.134308 0.382785 -0.189890
C14   C     C_R   0.551359 0.051082 0.358247 -0.167444
C15   C     C_R   0.528526 0.996212 0.403071 -0.185021
C16   C     C_R   0.757966 0.447535 0.533091 0.788896
C17   C     C_R   0.516905 0.021467 0.476428 0.133636
C18   C     C_R   0.532534 0.102929 0.504450 0.086005
C19   C     C_R   0.490243 0.968859 0.522932 0.032333
C20   C     C_R   0.481226 0.998020 0.596579 -0.012622
C21   C     C_R   0.506445 0.072841 0.625942 -0.184878
C22   C     C_R   0.535024 0.122138 0.582068 -0.215837
C23   C     C_R   0.472559 0.525835 0.161990 -0.270884
C24   C     C_R   0.473568 0.887482 0.499401 -0.352165
C25   C     C_R   0.442607 0.864942 0.620162 0.344236
C26   C     C_R   0.546218 0.162788 0.454376 -0.078415
C27   C     C_R   0.023369 0.394972 0.651396 -0.206769
C28   C     C_R   0.241704 0.552218 0.468457 0.827265
C29   C     C_R   0.861677 0.430250 0.550112 0.002366
C30   C     C_R   0.067531 0.612213 0.370538 0.355949
C31   C     C_R   0.968788 0.621123 0.347422 0.409333
C32   C     C_R   0.939928 0.577001 0.395961 -0.376168
C33   C     C_R   0.006401 0.529977 0.472284 0.021559
C34   C     C_R   0.453672 0.548412 0.080824 0.027273
C35   C     C_R   0.102765 0.532853 0.500587 0.021986
C36   C     C_R   0.979775 0.481479 0.522074 0.131659
C37   C     C_R   0.047799 0.442038 0.600751 0.166713
C38   C     C_R   0.137909 0.453355 0.629726 -0.254771
C39   C     C_R   0.164104 0.499657 0.581178 -0.139383
C40   C     C_R   0.561027 0.440358 0.711737 0.774067
C41   C     C_R   0.887112 0.472269 0.497267 -0.264530
C42   C     C_R   0.930213 0.390540 0.626637 -0.194729
C43   C     C_R   0.135362 0.569365 0.447874 -0.257160
C44   C     C_R   0.440935 0.559398 0.287710 0.826032
C45   C     C_R   0.369067 0.628156 0.038085 0.067120
C46   C     C_R   0.416246 0.584675 0.202129 -0.081484
C47   C     C_R   0.587274 0.418140 0.796821 0.022709
C48   C     C_R   0.310810 0.687168 0.077997 0.472175
C49   C     C_3   0.501560 0.767884 0.735692 0.144778
C50   C     C_3   0.479830 0.698590 0.777837 -0.823363
C51   C     C_3   0.333533 0.037830 0.689528 0.121466
C52   C     C_3   0.315541 0.077092 0.763531 -0.820077
C53   C     C_3   0.119818 0.580373 0.265722 0.181128
C54   C     C_3   0.137393 0.623602 0.199742 -0.846368
C55   C     C_3   0.852102 0.759179 0.280112 0.129804
C56   C     C_R   0.516138 0.493463 0.041037 0.098091
C57   C     C_3   0.779642 0.809543 0.198085 -0.810348
C58   C     C_3   0.143101 0.766046 0.038320 0.080284
C59   C     C_3   0.056631 0.839890 0.974381 -0.811939
C60   C     C_R   0.486711 0.512599 0.956654 0.080237
C61   C     C_R   0.399420 0.590163 0.915664 -0.258573
C62   C     C_R   0.343218 0.647554 0.955874 -0.191282
H1    H     H_    0.278362 0.707344 0.921647 0.191746
H2    H     H_    0.448599 0.513294 0.793783 0.123200
H3    H     H_    0.188211 0.427116 0.690814 0.147103
H4    H     H_    0.074811 0.365158 0.711514 0.138726
H5    H     H_    0.830776 0.501562 0.439271 0.133549
H6    H     H_    0.864143 0.582650 0.372159 0.175926
H7    H     H_    0.232508 0.510464 0.608609 0.164489
H8    H     H_    0.732378 0.315557 0.814338 0.128510
H9    H     H_    0.742238 0.319293 0.079897 0.149363
H10   H     H_    0.296839 0.715141 0.192089 0.171751
H11   H     H_    0.529766 0.461515 0.195171 0.171565
H12   H     H_    0.778824 0.284543 0.959252 0.138029
H13   H     H_    0.374069 0.611089 0.852515 0.150949
H14   H     H_    0.639339 0.408193 0.147770 0.151278
H15   H     H_    0.517774 0.818298 0.777764 0.186549
H16   H     H_    0.568492 0.728931 0.721078 0.150605
H17   H     H_    0.460957 0.648677 0.736407 0.249543
H18   H     H_    0.545702 0.659636 0.831303 0.219130
H19   H     H_    0.416509 0.735821 0.796996 0.252843
H20   H     H_    0.287139 0.995786 0.666403 0.171677
H21   H     H_    0.310139 0.097402 0.643624 0.137152
H22   H     H_    0.360073 0.120311 0.787527 0.253992
H23   H     H_    0.506149 0.092701 0.684134 0.192641
H24   H     H_    0.235950 0.121099 0.747930 0.204358
H25   H     H_    0.336780 0.019399 0.810172 0.263143
H26   H     H_    0.058627 0.555370 0.236967 0.154147
H27   H     H_    0.188485 0.519809 0.299308 0.107164
H28   H     H_    0.195522 0.652153 0.226566 0.268942
H29   H     H_    0.161696 0.570227 0.161384 0.196153
H30   H     H_    0.068098 0.680830 0.162333 0.249789
H31   H     H_    0.905172 0.794671 0.303931 0.159980
H32   H     H_    0.809521 0.764526 0.320135 0.126220
H33   H     H_    0.724845 0.776512 0.173005 0.257600
H34   H     H_    0.481786 0.859426 0.445757 0.158596
H35   H     H_    0.739790 0.883605 0.203165 0.199987
H36   H     H_    0.820090 0.806438 0.156987 0.260030
H37   H     H_    0.136517 0.781978 0.097286 0.156105
H38   H     H_    0.137353 0.697187 0.025823 0.136938
H39   H     H_    0.060505 0.825624 0.914436 0.251403
H40   H     H_    0.985778 0.839200 0.975360 0.206815
H41   H     H_    0.058781 0.909844 0.985669 0.260591
H42   H     H_    0.570249 0.178153 0.343944 0.164607
H43   H     H_    0.520900 0.934484 0.378414 0.131682
H44   H     H_    0.560121 0.030438 0.302438 0.145764
H45   H     H_    0.560580 0.174623 0.610901 0.172566
H46   H     H_    0.909922 0.359544 0.668378 0.135241
O1    O     O_3   0.500000 0.500000 0.500000 -0.484250
O2    O     O_R   0.596500 0.492780 0.688380 -0.643735
O3    O     O_R   0.388780 0.611210 0.325000 -0.651656
O4    O     O_R   0.499860 0.410860 0.661600 -0.643203
O5    O     O_R   0.514860 0.485140 0.325020 -0.647284
O6    O     O_3   0.418150 0.813540 0.666155 -0.618240
O7    O     O_3   0.434910 0.982236 0.710246 -0.624317
O8    O     O_3   0.096407 0.647752 0.317178 -0.575232
O9    O     O_3   0.902037 0.665261 0.272703 -0.597409
O10   O     O_3   0.232578 0.768350 0.036709 -0.617611
O11   O     O_R   0.707110 0.418540 0.472990 -0.638189
O12   O     O_R   0.267620 0.606720 0.435250 -0.589973
O13   O     O_R   0.540230 0.674660 0.578090 -0.651650
O14   O     O_R   0.485030 0.300080 0.513670 -0.642100
O15   O     O_R   0.403610 0.721990 0.472930 -0.638337
O16   O     O_R   0.571130 0.303270 0.435320 -0.644009
O17   O     O_R   0.717650 0.497270 0.578120 -0.640495
O18   O     O_R   0.307610 0.477470 0.513630 -0.649105
Zn1   Zn    Zn3+2 0.572030 0.427990 0.434470 0.956713
Zn2   Zn    Zn3+2 0.587090 0.540470 0.584680 0.963767
Zn3   Zn    Zn3+2 0.449010 0.423430 0.546420 0.953327
Zn4   Zn    Zn3+2 0.391880 0.608100 0.434430 0.993996

loop_
_geom_bond_atom_site_label_1
_geom_bond_atom_site_label_2
_ccdc_geom_bond_type
C40   C47   S    
C34   C56   A    
C29   C42   A    
C9    H2    S    
C11   C24   A    
C3    H9    S    
C19   C20   A    
C18   C26   A    
C55   H31   S    
C50   H17   S    
C6    C9    A    
C7    C8    A    
C40   O4    A    
C30   O8    S    
C53   C54   S    
C61   H13   S    
C37   C38   A    
O12   Zn4   S    
C36   C37   A    
C54   H28   S    
C24   H34   S    
C30   C31   A    
C11   C25   A    
C22   H45   S    
C45   C62   A    
C58   O10   S    
C33   C36   A    
C49   H16   S    
C4    O16   A    
C52   H22   S    
C31   O9    S    
O3    Zn4   S    
C17   C19   A    
O1    Zn1   S    
C10   C20   A    
C1    C11   S    
O17   Zn2   S    
O4    Zn3   S    
C35   C43   A    
C16   O17   A    
O14   Zn3   S    
C53   O8    S    
C12   C48   A    
C32   H6    S    
C49   O6    S    
C12   H10   S    
C23   C46   A    
C13   C14   A    
C36   C41   A    
C23   H11   S    
C55   H32   S    
C44   C46   S    
C7    H12   S    
C38   C39   A    
C21   H23   S    
C51   C52   S    
C59   H39   S    
C6    C60   A    
C58   H38   S    
O13   Zn2   S    
C41   H5    S    
C28   O12   A    
C16   O11   A    
C5    C7    A    
C40   O2    A    
O18   Zn3   S    
C16   C29   S    
C51   O7    S    
C56   C60   A    
C60   C61   A    
C35   C39   A    
C1    O15   A    
C54   H30   S    
C62   H1    S    
O1    Zn2   S    
C4    C26   S    
C31   C32   A    
C38   H3    S    
C23   C34   A    
C57   H35   S    
C17   C18   A    
C39   H7    S    
C4    O14   A    
C34   C45   A    
C13   H42   S    
C51   H20   S    
O16   Zn1   S    
C10   C25   A    
C12   C46   A    
C44   O5    A    
C9    C47   A    
C55   C57   S    
O15   Zn4   S    
C53   H27   S    
C30   C43   A    
C51   H21   S    
C2    H14   S    
C55   O9    S    
C45   C48   A    
C15   C17   A    
C29   C41   A    
C18   C22   A    
C59   H40   S    
C52   H25   S    
C58   H37   S    
C3    C5    A    
C50   H18   S    
C48   O10   S    
O5    Zn1   S    
C28   O18   A    
C28   C43   S    
C8    H8    S    
C59   H41   S    
C32   C33   A    
C15   H43   S    
C52   H24   S    
C2    C3    A    
C58   C59   S    
C8    C47   A    
C54   H29   S    
C27   H4    S    
C2    C56   A    
C25   O6    S    
O1    Zn3   S    
C27   C42   A    
C5    C6    A    
C27   C37   A    
C57   H36   S    
C33   C35   A    
C49   H15   S    
C19   C24   A    
C53   H26   S    
C61   C62   A    
C13   C26   A    
C1    O13   A    
C44   O3    A    
C14   H44   S    
C20   C21   A    
C49   C50   S    
C57   H33   S    
O1    Zn4   S    
C14   C15   A    
C21   C22   A    
C42   H46   S    
C10   O7    S    
C50   H19   S    
O2    Zn2   S    
O11   Zn1   S    
