data_mof_unit_26923.cif
_audit_creation_date              2013-03-05T15:51:32-0500
_audit_creation_method            fapswitch 2.2
_symmetry_space_group_name_H-M    P1
_symmetry_Int_Tables_number       1
_space_group_crystal_system       triclinic
_cell_length_a                    15.873252
_cell_length_b                    10.771753
_cell_length_c                    9.615937
_cell_angle_alpha                 90.086659
_cell_angle_beta                  90.12379
_cell_angle_gamma                 92.437406
_cell_volume                      1642.66589215

loop_
_atom_site_label
_atom_site_type_symbol
_atom_site_description
_atom_site_fract_x
_atom_site_fract_y
_atom_site_fract_z
_atom_type_partial_charge
O1    O     O_R   0.499990 0.319640 0.618810 -0.577456
O2    O     O_R   0.500000 0.319660 0.381240 -0.574309
C1    C     C_R   0.497510 0.262645 0.499897 0.785223
O3    O     O_R   0.379430 0.499990 0.618840 -0.573371
O4    O     O_R   0.379440 0.500020 0.381260 -0.570826
C2    C     C_R   0.340345 0.499498 0.499960 0.807586
Cu1   Cu    Cu3+1 0.499990 0.499990 0.640660 0.940143
Cu2   Cu    Cu3+1 0.500010 0.500010 0.359340 0.941512
O5    O     O_R   0.500000 0.680340 0.618760 -0.601728
O6    O     O_R   0.500010 0.680360 0.381190 -0.589045
O7    O     O_R   0.620560 0.499980 0.618740 -0.588947
O8    O     O_R   0.620570 0.500010 0.381160 -0.592768
C3    C     C_R   0.497635 0.737102 0.500088 0.756847
C4    C     C_R   0.659670 0.500335 0.500099 0.805068
C5    C     C_3   0.046280 0.405491 0.608307 -0.324651
C6    C     C_3   0.047516 0.463939 0.354987 -0.371382
C7    C     C_3   0.949894 0.464231 0.355152 -0.371045
H1    H     H_    0.922294 0.310958 0.583445 0.170632
H2    H     H_    0.066794 0.310507 0.583152 0.197140
H3    H     H_    0.072795 0.530633 0.275545 0.172150
H4    H     H_    0.068035 0.370011 0.325237 0.175813
H5    H     H_    0.923590 0.370444 0.325470 0.167910
H6    H     H_    0.928341 0.531065 0.275790 0.166995
C8    C     C_1   0.749433 0.500599 0.500498 -0.174769
C9    C     C_3   0.082857 0.499989 0.500568 0.280478
C10   C     C_3   0.948629 0.405804 0.608492 -0.387352
C11   C     C_3   0.917289 0.500477 0.500853 0.312634
C12   C     C_3   0.955272 0.631120 0.538794 -0.371905
C13   C     C_3   0.052924 0.630832 0.538656 -0.371406
C14   C     C_1   0.825055 0.500661 0.500802 -0.108832
C15   C     C_1   0.175046 0.499727 0.500247 -0.076100
C16   C     C_1   0.250634 0.499571 0.499940 -0.134951
H7    H     H_    0.077407 0.658898 0.643139 0.171870
H8    H     H_    0.078319 0.700576 0.462584 0.172137
H9    H     H_    0.932890 0.659327 0.643347 0.167140
H10   H     H_    0.070658 0.429466 0.714040 0.189769
H11   H     H_    0.926159 0.429973 0.714314 0.170936
H12   H     H_    0.933825 0.700973 0.462752 0.164048
H13   H     H_    0.602659 0.119230 0.370274 0.147547
C17   C     C_R   0.359492 0.121244 0.635170 -0.277145
H14   H     H_    0.356472 0.221203 0.631993 0.175257
C18   C     C_R   0.294080 0.053063 0.701977 0.393751
C19   C     C_R   0.295302 0.923142 0.702375 -0.211218
H15   H     H_    0.245293 0.867977 0.751865 0.178431
C20   C     C_R   0.360207 0.862354 0.637095 -0.244945
H16   H     H_    0.356532 0.761962 0.637199 0.170991
C21   C     C_R   0.426722 0.930083 0.570647 0.108200
C22   C     C_R   0.426466 0.061192 0.570018 0.038251
C23   C     C_R   0.491866 0.128476 0.499507 -0.069451
C24   C     C_R   0.553375 0.067310 0.425813 -0.191106
H17   H     H_    0.602786 0.893387 0.370611 0.132698
C25   C     C_R   0.553462 0.939240 0.426059 -0.209837
C26   C     C_R   0.492107 0.870620 0.500166 -0.064403
H18   H     H_    0.405156 0.358852 0.128231 0.150347
C27   C     C_R   0.611611 0.665625 0.144329 -0.133644
H19   H     H_    0.617303 0.673078 0.253918 0.189913
C28   C     C_R   0.665893 0.746878 0.072529 -0.212648
H20   H     H_    0.708462 0.810203 0.128836 0.144966
C29   C     C_R   0.665889 0.746853 0.929247 -0.201907
H21   H     H_    0.708479 0.810130 0.873441 0.149690
C30   C     C_R   0.611568 0.665619 0.856829 -0.129341
H22   H     H_    0.617171 0.672998 0.747253 0.194685
C31   C     C_R   0.554754 0.581464 0.925556 0.205293
C32   C     C_R   0.554760 0.581431 0.075017 0.210792
N1    N     N_R   0.500800 0.501210 0.147910 -0.202059
C33   C     C_R   0.447898 0.422485 0.073498 -0.046849
H23   H     H_    0.405181 0.358878 0.870420 0.163670
C34   C     C_R   0.447910 0.422512 0.925730 -0.041735
N2    N     N_R   0.500820 0.501290 0.852040 -0.204027
N3    N     N_R   0.226116 0.115574 0.767366 0.114458
O9    O     O_R   0.224921 0.236343 0.767684 -0.404297
O10   O     O_R   0.164660 0.052276 0.827167 -0.379517

loop_
_geom_bond_atom_site_label_1
_geom_bond_atom_site_label_2
_geom_bond_distance
_ccdc_geom_bond_type
Cu1   N2    2.032655 S    
O4    Cu2   1.925867 S    
C2    C16   1.424037 S    
C27   H19   1.060105 S    
C5    C10   1.550188 S    
C10   H11   1.113150 S    
C17   H14   1.080306 S    
C6    H4    1.113174 S    
H18   C33   1.081762 S    
C7    H5    1.113158 S    
C24   C25   1.379603 A    
C21   C22   1.412476 A    
H1    C10   1.113123 S    
C12   H12   1.113157 S    
Cu2   O8    1.924697 S    
C27   C32   1.416691 A    
H13   C24   1.084204 S    
C17   C18   1.403423 A    
O2    C1    1.296483 A    
C10   C11   1.550136 S    
C31   N2    1.382443 A    
C29   H21   1.083083 S    
C15   C16   1.199903 T    
C20   H16   1.080501 S    
C32   N1    1.383151 A    
C11   C14   1.464141 S    
C5    H2    1.113238 S    
O4    C2    1.300283 A    
C19   C20   1.393960 A    
C28   H20   1.083118 S    
C7    H6    1.113196 S    
O3    Cu1   1.924695 S    
C22   C23   1.415360 A    
C21   C26   1.415999 A    
C13   H8    1.113179 S    
O3    C2    1.299369 A    
C6    H3    1.113171 S    
O8    C4    1.300013 A    
C23   C24   1.394918 A    
C3    C26   1.444610 S    
C27   C28   1.387589 A    
C19   H15   1.082624 S    
C9    C13   1.549984 S    
C30   H22   1.060430 S    
C34   N2    1.367962 A    
O7    C4    1.299924 A    
C8    C14   1.200320 T    
C28   C29   1.377784 A    
Cu2   N1    2.033221 S    
C29   C30   1.387615 A    
C33   C34   1.420930 A    
C31   C32   1.437208 A    
H23   C34   1.081915 S    
C1    C23   1.444201 S    
C13   H7    1.113220 S    
C5    H10   1.113175 S    
C18   N3    1.440843 S    
N3    O9    1.301830 A    
C25   C26   1.394997 A    
C5    C9    1.549862 S    
Cu2   O6    1.953698 S    
N1    C33   1.367932 A    
C18   C19   1.400447 A    
C20   C21   1.412111 A    
C4    C8    1.424714 S    
C6    C9    1.549727 S    
Cu1   O5    1.954376 S    
Cu1   Cu2   2.705155 S    
C17   C22   1.414664 A    
C12   C13   1.550193 S    
Cu1   O7    1.925869 S    
O5    C3    1.296667 A    
O1    C1    1.296762 A    
O1    Cu1   1.953699 S    
C9    C15   1.463472 S    
N3    O10   1.301626 A    
C30   C31   1.416558 A    
O2    Cu2   1.954376 S    
H17   C25   1.084033 S    
C12   H9    1.113155 S    
C6    C7    1.549718 S    
C11   C12   1.549936 S    
O6    C3    1.296998 A    
C7    C11   1.549801 S    
