data_mof_unit_62008.cif
_audit_creation_date              2012-10-26T20:01:27-0400
_audit_creation_method            fapswitch 2.2
_symmetry_space_group_name_H-M    P1
_symmetry_Int_Tables_number       1
_space_group_crystal_system       triclinic
_cell_length_a                    19.460969
_cell_length_b                    12.954883
_cell_length_c                    11.766612
_cell_angle_alpha                 98.450975
_cell_angle_beta                  93.924115
_cell_angle_gamma                 92.757321
_cell_volume                      2922.35510057

loop_
_atom_site_label
_atom_site_type_symbol
_atom_type_description
_atom_site_fract_x
_atom_site_fract_y
_atom_site_fract_z
_atom_type_partial_charge
C1    C     C_R   0.497441 0.299959 0.479881 0.578210
C2    C     C_R   0.456503 0.866525 0.483253 0.058011
C3    C     C_R   0.532279 0.026183 0.521526 0.011801
C4    C     C_R   0.467721 0.973817 0.478474 0.011802
C5    C     C_R   0.439431 0.392686 0.026396 -0.121727
C6    C     C_R   0.560568 0.607314 0.973604 -0.121727
C7    C     C_R   0.445018 0.403957 0.146603 0.062975
C8    C     C_R   0.554982 0.596043 0.853397 0.062975
C9    C     C_R   0.526864 0.547766 0.155192 0.274257
C10   C     C_R   0.473136 0.452234 0.844808 0.274257
C11   C     C_R   0.522216 0.539356 0.032704 0.004233
C12   C     C_R   0.502558 0.700041 0.520119 0.578209
C13   C     C_R   0.477784 0.460644 0.967296 0.004233
C14   C     C_R   0.367398 0.501759 0.499770 0.597846
C15   C     C_R   0.632602 0.498240 0.500229 0.597845
C16   C     C_R   0.259550 0.514784 0.604446 0.408378
C17   C     C_R   0.740449 0.485212 0.395553 0.408378
C18   C     C_R   0.187986 0.514456 0.606470 0.440554
C19   C     C_R   0.812014 0.485538 0.393529 0.440554
C20   C     C_R   0.145870 0.505599 0.503313 -0.046536
C21   C     C_R   0.854130 0.494397 0.496686 -0.046536
C22   C     C_R   0.176846 0.499150 0.398911 -0.151033
C23   C     C_R   0.510108 0.812382 0.528556 0.035214
C24   C     C_R   0.823154 0.500849 0.601088 -0.151032
C25   C     C_R   0.248188 0.499397 0.395142 0.052648
C26   C     C_R   0.751812 0.500604 0.604858 0.052648
C27   C     C_R   0.291133 0.505093 0.499010 -0.027186
C28   C     C_R   0.708867 0.494906 0.500990 -0.027186
C29   C     C_R   0.930108 0.496667 0.497793 0.364549
C30   C     C_R   0.069892 0.503328 0.502206 0.364549
C31   C     C_R   0.489892 0.187618 0.471444 0.035214
C32   C     C_R   0.416000 0.029838 0.431088 -0.072441
C33   C     C_R   0.583999 0.970163 0.568914 -0.072442
C34   C     C_R   0.426501 0.135803 0.428040 0.052479
C35   C     C_R   0.573498 0.864197 0.571963 0.052479
C36   C     C_R   0.543497 0.133475 0.516747 0.058011
Cu1   Cu    Cu3+1 0.505120 0.507730 0.615930 1.091264
Cu2   Cu    Cu3+1 0.494880 0.492270 0.384070 1.091264
F1    F     F_    0.297548 0.526216 0.707087 -0.539834
F2    F     F_    0.702451 0.473779 0.292913 -0.539834
F3    F     F_    0.160427 0.524000 0.710173 -0.520792
F4    F     F_    0.839572 0.475991 0.289825 -0.520792
H1    H     H_    0.404921 0.329738 0.982199 0.158357
H2    H     H_    0.595078 0.670262 0.017801 0.158357
H3    H     H_    0.145311 0.493587 0.318541 0.204552
H4    H     H_    0.854689 0.506414 0.681458 0.204551
H5    H     H_    0.366422 0.993108 0.397209 0.187268
H6    H     H_    0.633576 0.006893 0.602797 0.187268
H7    H     H_    0.584647 0.649205 0.810363 0.169424
H8    H     H_    0.415353 0.350795 0.189637 0.169423
I1    I     I_    0.280812 0.493968 0.225088 -0.177549
I2    I     I_    0.719189 0.506039 0.774912 -0.177551
I3    I     I_    0.358735 0.784131 0.426283 -0.251823
I4    I     I_    0.641266 0.215868 0.573713 -0.251821
I5    I     I_    0.658263 0.786366 0.636001 -0.275634
I6    I     I_    0.341735 0.213635 0.364004 -0.275635
I7    I     I_    0.400205 0.335525 0.750101 -0.154197
I8    I     I_    0.599796 0.664474 0.249899 -0.154199
N1    N     N_R   0.030943 0.507346 0.402866 -0.201668
N2    N     N_R   0.969057 0.492649 0.597132 -0.201667
N3    N     N_R   0.962493 0.504219 0.400705 -0.088551
N4    N     N_R   0.037506 0.495776 0.599293 -0.088550
N5    N     N_R   0.512830 0.519350 0.790130 -0.232812
N6    N     N_R   0.487170 0.480650 0.209870 -0.232811
O1    O     O_R   0.503640 0.354460 0.582000 -0.479280
O2    O     O_R   0.496360 0.645540 0.418000 -0.479280
O3    O     O_R   0.494980 0.341410 0.386200 -0.501034
O4    O     O_R   0.505020 0.658590 0.613800 -0.501034
O5    O     O_R   0.404470 0.506520 0.597930 -0.424007
O6    O     O_R   0.595530 0.493480 0.402070 -0.424006
O7    O     O_R   0.395820 0.493460 0.402130 -0.485915
O8    O     O_R   0.604180 0.506540 0.597870 -0.485915

loop_
_geom_bond_atom_site_label_1
_geom_bond_atom_site_label_2
_ccdc_geom_bond_type
C8    N5    A    
C2    C4    A    
C2    I3    S    
C19   F4    S    
C34   I6    S    
Cu1   Cu2   S    
C1    O3    A    
C26   I2    S    
C14   C27   S    
C25   C27   A    
C9    N6    A    
C12   O4    A    
C14   O7    A    
C5    C13   A    
C10   N5    A    
C6    C11   A    
C29   N2    A    
C20   C22   A    
C24   H4    S    
C30   N1    A    
C22   H3    S    
C16   C27   A    
C25   I1    S    
C5    H1    S    
C31   C34   A    
C20   C30   S    
C15   O8    A    
C9    C11   A    
C12   C23   S    
C15   C28   S    
C4    C32   A    
C21   C29   S    
C3    C36   A    
C6    C8    A    
C8    H7    S    
N2    N4    A    
C26   C28   A    
Cu1   N5    S    
C24   C26   A    
C15   O6    A    
Cu1   O5    S    
C30   N4    A    
Cu2   N6    S    
C23   C35   A    
C29   N3    A    
C7    N6    A    
N1    N3    A    
C11   C13   A    
C36   I4    S    
C3    C33   A    
Cu2   O6    S    
C35   I5    S    
C3    C4    A    
Cu1   O8    S    
Cu1   O4    S    
Cu2   O2    S    
C1    C31   S    
C10   I7    S    
Cu2   O3    S    
C22   C25   A    
C18   C20   A    
C16   C18   A    
C9    I8    S    
C21   C24   A    
C2    C23   A    
C5    C7    A    
C33   H6    S    
C31   C36   A    
C14   O5    A    
C6    H2    S    
C16   F1    S    
C17   C19   A    
C33   C35   A    
Cu2   O7    S    
C17   C28   A    
C12   O2    A    
C1    O1    A    
C17   F2    S    
Cu1   O1    S    
C18   F3    S    
C7    H8    S    
C32   H5    S    
C19   C21   A    
C10   C13   A    
C32   C34   A    
