data_mof_unit_10753.cif
_audit_creation_date              2012-12-10T18:11:07-0500
_audit_creation_method            fapswitch 2.2
_symmetry_space_group_name_H-M    P1
_symmetry_Int_Tables_number       1
_space_group_crystal_system       triclinic
_cell_length_a                    10.739583
_cell_length_b                    9.416609
_cell_length_c                    10.666822
_cell_angle_alpha                 89.05241
_cell_angle_beta                  90.279952
_cell_angle_gamma                 89.862368
_cell_volume                      1078.57682272

loop_
_atom_site_label
_atom_site_type_symbol
_atom_type_description
_atom_site_fract_x
_atom_site_fract_y
_atom_site_fract_z
_atom_type_partial_charge
C1    C     C_R   0.259849 0.500334 0.501566 0.782426
C2    C     C_3   0.498967 0.503562 0.122480 -0.084795
C3    C     C_3   0.070956 0.653577 0.518471 -0.375009
C4    C     C_3   0.072168 0.403673 0.607291 -0.375712
C5    C     C_3   0.928479 0.652280 0.521031 -0.389081
C6    C     C_3   0.928725 0.402807 0.605690 -0.395377
C7    C     C_3   0.075082 0.445663 0.372705 -0.400651
C8    C     C_3   0.122181 0.501014 0.500336 0.107670
C9    C     C_3   0.878427 0.499558 0.497051 0.073438
C10   C     C_3   0.929893 0.445919 0.367663 0.003799
C11   C     C_3   0.610753 0.082321 0.569220 -0.192773
C12   C     C_3   0.611226 0.914762 0.568468 -0.190991
C13   C     C_3   0.388795 0.082953 0.566517 -0.193979
C14   C     C_3   0.389106 0.915373 0.567113 -0.187149
C15   C     C_3   0.500941 0.085538 0.373842 -0.161435
C16   C     C_3   0.500371 0.918447 0.374109 -0.165005
C17   C     C_R   0.499448 0.501230 0.259323 0.818686
C18   C     C_R   0.740049 0.499934 0.499553 0.766912
C19   C     C_R   0.500582 0.498711 0.740375 0.811753
C20   C     C_3   0.494874 0.634489 0.034462 0.004893
C21   C     C_3   0.400646 0.429715 0.041698 -0.029380
C22   C     C_3   0.396158 0.560742 0.954260 -0.062347
C23   C     C_3   0.500172 0.496058 0.876410 -0.067027
C24   C     C_3   0.600047 0.570013 0.955437 -0.183093
C25   C     C_3   0.504469 0.362927 0.962321 -0.174869
C26   C     C_3   0.603958 0.437491 0.044137 -0.148368
Cu1   Cu    Cu3+1 0.499860 0.642410 0.500060 0.910148
Cu2   Cu    Cu3+1 0.499860 0.357590 0.500060 0.911385
H1    H     H_    0.613449 0.119694 0.667578 0.143214
H2    H     H_    0.615376 0.872706 0.666458 0.148699
H3    H     H_    0.697676 0.120699 0.524292 0.164626
H4    H     H_    0.697870 0.878892 0.522005 0.148486
H5    H     H_    0.384000 0.121410 0.664422 0.149463
H6    H     H_    0.385321 0.874308 0.665401 0.161432
H7    H     H_    0.418210 0.125392 0.320671 0.162854
H8    H     H_    0.416685 0.881115 0.322535 0.162275
H9    H     H_    0.584473 0.124377 0.322576 0.173692
H10   H     H_    0.583424 0.879795 0.322763 0.171352
H11   H     H_    0.302521 0.120714 0.518526 0.146698
H12   H     H_    0.302537 0.878942 0.520294 0.143550
H13   H     H_    0.682276 0.627382 0.917577 0.146034
H14   H     H_    0.508093 0.251338 0.930419 0.154631
H15   H     H_    0.689427 0.386600 0.083085 0.160629
H16   H     H_    0.102542 0.724770 0.440566 0.173421
H17   H     H_    0.106950 0.293135 0.596368 0.167081
H18   H     H_    0.106864 0.697941 0.607668 0.189388
H19   H     H_    0.106198 0.441654 0.699557 0.179702
H20   H     H_    0.896059 0.689758 0.613876 0.172298
H21   H     H_    0.893410 0.440819 0.697235 0.166639
H22   H     H_    0.892463 0.729292 0.449298 0.183196
H23   H     H_    0.895304 0.291838 0.595540 0.172475
H24   H     H_    0.115192 0.512551 0.295747 0.160424
H25   H     H_    0.113152 0.336774 0.359212 0.181320
N1    N     N_3   0.500250 0.143650 0.502780 -0.129814
N2    N     N_3   0.500250 0.856350 0.502780 -0.132979
O1    O     O_R   0.317570 0.620260 0.500070 -0.597734
O2    O     O_R   0.317570 0.379740 0.500070 -0.598268
O3    O     O_R   0.499850 0.620240 0.316900 -0.590676
O4    O     O_R   0.499850 0.379760 0.316900 -0.589207
O5    O     O_R   0.682190 0.620260 0.500030 -0.595770
O6    O     O_R   0.682190 0.379740 0.500030 -0.591180
O7    O     O_R   0.499910 0.620280 0.683200 -0.590115
O8    O     O_R   0.499910 0.379720 0.683200 -0.594299
C27   C     C_1   0.282168 0.627062 0.903498 0.214172
N3    N     N_1   0.192474 0.679365 0.863594 -0.315285
C28   C     C_1   0.886301 0.539121 0.263250 0.188001
N4    N     N_1   0.852269 0.612360 0.181807 -0.294208
C29   C     C_1   0.885876 0.301042 0.339417 0.218603
N5    N     N_1   0.851856 0.187684 0.316963 -0.317487
C30   C     C_1   0.490535 0.786293 0.062843 0.237672
N6    N     N_1   0.487084 0.906760 0.082132 -0.335892
C31   C     C_1   0.292031 0.350768 0.087859 0.219156
N7    N     N_1   0.206516 0.287885 0.123597 -0.302336

loop_
_geom_bond_atom_site_label_1
_geom_bond_atom_site_label_2
_ccdc_geom_bond_type
C7    C10   S    
C1    C8    S    
C4    C8    S    
C6    C9    S    
C7    C8    S    
Cu2   O2    S    
C13   H5    S    
C1    O1    A    
C24   C26   S    
C7    H24   S    
Cu1   O5    S    
Cu1   N2    S    
C19   O7    A    
C15   C16   S    
C15   H9    S    
C20   C24   S    
C19   O8    A    
C29   N5    T    
C23   C24   S    
C30   N6    T    
C6    H23   S    
C9    C10   S    
C17   O3    A    
Cu2   O6    S    
C14   N2    S    
C11   H3    S    
C13   C14   S    
C12   H4    S    
C2    C17   S    
C24   H13   S    
C20   C30   S    
C15   H7    S    
C26   H15   S    
C4    H17   S    
C10   C28   S    
C5    H20   S    
C3    H16   S    
C21   C31   S    
C2    C20   S    
C15   N1    S    
C4    C6    S    
C3    C8    S    
Cu2   N1    S    
Cu1   O1    S    
C25   C26   S    
C14   H12   S    
C19   C23   S    
C5    C9    S    
Cu1   O7    S    
C1    O2    A    
C2    C21   S    
C2    C26   S    
C11   N1    S    
C17   O4    A    
C18   O5    A    
C20   C22   S    
C5    H22   S    
C7    H25   S    
C13   N1    S    
Cu2   O4    S    
C21   C25   S    
C12   H2    S    
C31   N7    T    
C3    C5    S    
Cu1   O3    S    
C25   H14   S    
C14   H6    S    
C11   C12   S    
C18   O6    A    
C10   C29   S    
C3    H18   S    
C27   N3    T    
C16   N2    S    
C16   H8    S    
C28   N4    T    
C23   C25   S    
C6    H21   S    
C13   H11   S    
C12   N2    S    
C22   C27   S    
Cu2   O8    S    
C9    C18   S    
C11   H1    S    
Cu1   Cu2   S    
C22   C23   S    
C21   C22   S    
C16   H10   S    
C4    H19   S    
