data_mof_unit_23997.cif
_audit_creation_date              2012-12-10T17:03:54-0500
_audit_creation_method            fapswitch 2.2
_symmetry_space_group_name_H-M    P1
_symmetry_Int_Tables_number       1
_space_group_crystal_system       triclinic
_cell_length_a                    9.878926
_cell_length_b                    11.122436
_cell_length_c                    15.788424
_cell_angle_alpha                 95.706917
_cell_angle_beta                  79.225621
_cell_angle_gamma                 111.47154
_cell_volume                      1585.02723595

loop_
_atom_site_label
_atom_site_type_symbol
_atom_type_description
_atom_site_fract_x
_atom_site_fract_y
_atom_site_fract_z
_atom_type_partial_charge
C1    C     C_R   0.556861 0.744902 0.504617 0.869080
C2    C     C_R   0.442990 0.255121 0.495739 0.866597
C3    C     C_R   0.328197 0.423935 0.075280 0.428627
C4    C     C_R   0.663588 0.619558 0.928987 0.437754
C5    C     C_R   0.217078 0.403526 0.024567 0.380089
C6    C     C_R   0.774273 0.646959 0.981265 0.380745
C7    C     C_2   0.582595 0.882253 0.515191 -0.312929
C8    C     C_2   0.416918 0.117693 0.486157 -0.316983
C9    C     C_2   0.499605 0.935363 0.484623 0.335865
C10   C     C_2   0.501190 0.065366 0.516232 0.322652
C11   C     C_2   0.926733 0.498241 0.486621 0.675343
C12   C     C_2   0.082955 0.522077 0.498412 0.578097
C13   C     C_R   0.410097 0.480640 0.662854 0.864277
C14   C     C_R   0.589114 0.519177 0.337020 0.863635
C15   C     C_R   0.353958 0.463361 0.756830 -0.305781
C16   C     C_R   0.641761 0.542992 0.243184 -0.339380
C17   C     C_R   0.156416 0.431122 0.881293 0.489704
C18   C     C_R   0.838322 0.600490 0.118534 0.502146
C19   C     C_R   0.205487 0.445657 0.792190 0.284207
C20   C     C_R   0.787189 0.557423 0.203383 0.299989
C21   C     C_R   0.451183 0.469597 0.813347 0.405496
C22   C     C_R   0.545602 0.554727 0.191384 0.436906
C23   C     C_R   0.410326 0.486252 0.902719 -0.071364
C24   C     C_R   0.583606 0.550523 0.101211 -0.081393
C25   C     C_R   0.258101 0.442518 0.937573 -0.212238
C26   C     C_R   0.735255 0.599076 0.065765 -0.218400
C27   C     C_R   0.517450 0.535918 0.958450 -0.018082
C28   C     C_R   0.474867 0.506884 0.046407 -0.023801
Cu1   Cu    Cu3+1 0.362980 0.479380 0.485080 1.074020
Cu2   Cu    Cu3+1 0.637020 0.520620 0.514920 1.114189
H1    H     H_    0.335796 0.062163 0.446023 0.189734
H2    H     H_    0.662308 0.936920 0.556367 0.189607
N1    N     N_2   0.842890 0.551600 0.537350 -0.036480
N2    N     N_2   0.157110 0.448400 0.462650 -0.081554
O1    O     O_R   0.426810 0.668300 0.492040 -0.518676
O2    O     O_R   0.573190 0.331700 0.507960 -0.489034
O3    O     O_R   0.658240 0.703130 0.517240 -0.593365
O4    O     O_R   0.341760 0.296870 0.482760 -0.606398
O5    O     O_R   0.319390 0.472820 0.610170 -0.614476
O6    O     O_R   0.680610 0.527180 0.389830 -0.545077
O7    O     O_R   0.550820 0.507640 0.635370 -0.532745
O8    O     O_R   0.449180 0.492360 0.364630 -0.520420
Cl1   Cl    Cl    0.032437 0.315606 0.070061 -0.448076
Cl2   Cl    Cl    0.951575 0.761180 0.945775 -0.436756
Cl3   Cl    Cl    0.398532 0.610150 0.235611 -0.403075
Cl4   Cl    Cl    0.604422 0.418875 0.777422 -0.429590
O9    O     O_3   0.881823 0.531097 0.245801 -0.611913
H3    H     H_    0.825672 0.444654 0.269890 0.358970
O10   O     O_3   0.103670 0.435883 0.740649 -0.616278
H4    H     H_    0.096985 0.358423 0.702253 0.355260
Cl5   Cl    Cl    0.968174 0.408865 0.916469 -0.367910
Cl6   Cl    Cl    0.028283 0.635069 0.080434 -0.356583
O11   O     O_3   0.298870 0.359597 0.151097 -0.670793
H5    H     H_    0.211357 0.279620 0.150796 0.377097
O12   O     O_3   0.691276 0.679833 0.851667 -0.675122
H6    H     H_    0.797417 0.707892 0.827711 0.390225
Cl7   Cl    Cl    0.606829 0.147167 0.598570 -0.489130
Cl8   Cl    Cl    0.396650 0.855104 0.400972 -0.476517
O13   O     O_3   0.150773 0.632950 0.544169 -0.654066
H7    H     H_    0.193688 0.607576 0.587938 0.370259
O14   O     O_3   0.869921 0.422301 0.418223 -0.696163
H8    H     H_    0.953020 0.428707 0.370711 0.355529
O15   O     O_3   0.078608 0.330708 0.433122 -0.634050
H9    H     H_    0.152029 0.291542 0.406254 0.391375
O16   O     O_3   0.891387 0.619176 0.607817 -0.570100
H10   H     H_    0.813269 0.652784 0.635397 0.387222

loop_
_geom_bond_atom_site_label_1
_geom_bond_atom_site_label_2
_ccdc_geom_bond_type
Cu1   O4    S    
O12   H6    S    
Cu2   O7    S    
Cu1   Cu2   S    
C7    H2    S    
C14   C16   S    
C23   C27   A    
Cu1   O8    S    
C24   C28   A    
C9    C10   S    
C2    O4    A    
O9    H3    S    
C18   C26   A    
C13   C15   S    
C16   C20   A    
N2    O15   S    
C14   O8    A    
C17   C25   A    
C17   Cl5   S    
C13   O7    A    
C5    Cl1   S    
C18   Cl6   S    
O13   H7    S    
C6    Cl2   S    
O11   H5    S    
C12   N2    D    
C15   C19   A    
C3    O11   S    
Cu1   O5    S    
C6    C26   A    
C5    C25   A    
C4    C6    A    
C3    C28   A    
C17   C19   A    
C24   C26   A    
C21   Cl4   S    
C18   C20   A    
C2    O2    A    
C23   C25   A    
C4    O12   S    
O14   H8    S    
C21   C23   A    
C22   C24   A    
C19   O10   S    
C13   O5    A    
C20   O9    S    
Cu2   O6    S    
O15   H9    S    
C11   C12   S    
C7    C9    D    
C15   C21   A    
C10   Cl7   S    
C22   Cl3   S    
C1    O1    A    
C8    C10   D    
O16   H10   S    
C11   N1    D    
C27   C28   A    
O10   H4    S    
Cu1   O1    S    
C9    Cl8   S    
C16   C22   A    
C4    C27   A    
Cu2   N1    S    
C11   O14   S    
C1    C7    S    
C12   O13   S    
C14   O6    A    
Cu1   N2    S    
C2    C8    S    
C8    H1    S    
N1    O16   S    
Cu2   O3    S    
C1    O3    A    
C3    C5    A    
Cu2   O2    S    
