data_mof_unit_7646.cif
_audit_creation_date              2013-03-05T15:47:42-0500
_audit_creation_method            fapswitch 2.2
_symmetry_space_group_name_H-M    P1
_symmetry_Int_Tables_number       1
_space_group_crystal_system       triclinic
_cell_length_a                    21.625411
_cell_length_b                    21.621862
_cell_length_c                    30.117158
_cell_angle_alpha                 90.059032
_cell_angle_beta                  90.017468
_cell_angle_gamma                 89.983688
_cell_volume                      14082.2218031

loop_
_atom_site_label
_atom_site_type_symbol
_atom_site_description
_atom_site_fract_x
_atom_site_fract_y
_atom_site_fract_z
_atom_type_partial_charge
O1    O     O_R   0.448270 0.091550 0.500010 -0.578726
O2    O     O_R   0.091550 0.551730 0.500010 -0.604914
O3    O     O_R   0.551730 0.908450 0.500010 -0.578747
O4    O     O_R   0.908450 0.448270 0.500010 -0.604913
O5    O     O_R   0.448270 0.908450 0.499990 -0.603880
O6    O     O_R   0.091550 0.448270 0.499990 -0.602069
O7    O     O_R   0.551730 0.091550 0.499990 -0.603656
O8    O     O_R   0.908450 0.551730 0.499990 -0.602091
O9    O     O_R   0.948270 0.591550 0.000010 -0.604883
O10   O     O_R   0.591550 0.051730 0.000010 -0.576842
O11   O     O_R   0.051730 0.408450 0.000010 -0.604508
O12   O     O_R   0.408450 0.948270 0.000010 -0.578491
O13   O     O_R   0.948270 0.408450 0.999990 -0.602206
O14   O     O_R   0.591550 0.948270 0.999990 -0.605181
O15   O     O_R   0.051730 0.591550 0.999990 -0.602160
O16   O     O_R   0.408450 0.051730 0.999990 -0.607322
C1    C     C_R   0.500668 0.119640 0.492831 0.954501
C2    C     C_R   0.120137 0.500089 0.499854 1.029421
C3    C     C_R   0.499325 0.880332 0.492852 0.953953
C4    C     C_R   0.879864 0.499912 0.499856 1.029614
C5    C     C_R   0.999891 0.620136 0.999853 1.029348
C6    C     C_R   0.619748 0.999188 0.993125 0.953120
C7    C     C_R   0.000099 0.379862 0.999862 1.029090
C8    C     C_R   0.380325 0.000425 0.992857 0.953534
O17   O     O_R   0.448260 0.999910 0.566090 -0.611812
O18   O     O_R   0.999910 0.551740 0.566090 -0.619263
O19   O     O_R   0.551740 0.000090 0.566090 -0.611116
O20   O     O_R   0.000090 0.448260 0.566090 -0.619313
O21   O     O_R   0.448260 0.000090 0.433910 -0.627083
O22   O     O_R   0.999910 0.448260 0.433910 -0.634165
O23   O     O_R   0.551740 0.999910 0.433910 -0.627191
O24   O     O_R   0.000090 0.551740 0.433910 -0.634141
O25   O     O_R   0.948260 0.499910 0.066090 -0.619068
O26   O     O_R   0.499910 0.051740 0.066090 -0.612231
O27   O     O_R   0.051740 0.500090 0.066090 -0.619258
O28   O     O_R   0.500090 0.948260 0.066090 -0.615127
O29   O     O_R   0.948260 0.500090 0.933910 -0.634054
O30   O     O_R   0.499910 0.948260 0.933910 -0.630799
O31   O     O_R   0.051740 0.499910 0.933910 -0.634103
O32   O     O_R   0.500090 0.051740 0.933910 -0.607223
C9    C     C_R   0.500023 0.999941 0.586723 0.887916
C10   C     C_R   0.000003 0.500028 0.586533 0.967321
C11   C     C_R   0.499992 0.999992 0.413278 0.910316
C12   C     C_R   0.999995 0.499975 0.412982 0.974618
C13   C     C_R   0.000009 0.499985 0.086530 0.966944
C14   C     C_R   0.499992 0.000027 0.086831 0.889884
C15   C     C_R   0.999994 0.499995 0.912985 0.974307
C16   C     C_R   0.500084 0.000000 0.913177 0.907285
Zn1   Zn    Zn3+2 0.430920 0.000000 0.500000 1.011187
Zn2   Zn    Zn3+2 0.000000 0.569080 0.500000 0.976606
Zn3   Zn    Zn3+2 0.569080 0.000000 0.500000 1.012001
Zn4   Zn    Zn3+2 0.000000 0.430920 0.500000 0.976633
Zn5   Zn    Zn3+2 0.930920 0.500000 0.000000 0.976452
Zn6   Zn    Zn3+2 0.500000 0.069080 0.000000 1.029491
Zn7   Zn    Zn3+2 0.069080 0.500000 0.000000 0.977179
Zn8   Zn    Zn3+2 0.500000 0.930920 0.000000 1.009222
C17   C     C_R   0.536726 0.957592 0.842573 -0.210794
C18   C     C_R   0.055927 0.502500 0.841786 -0.141939
C19   C     C_R   0.465037 0.043648 0.842654 -0.202453
C20   C     C_R   0.944057 0.497513 0.841757 -0.141644
C21   C     C_R   0.467905 0.954132 0.157405 -0.138808
C22   C     C_R   0.998293 0.555955 0.156259 -0.151809
C23   C     C_R   0.531964 0.046028 0.157490 -0.139011
C24   C     C_R   0.001773 0.443973 0.156169 -0.151549
C25   C     C_R   0.997259 0.555877 0.341803 -0.141850
C26   C     C_R   0.464697 0.956527 0.342979 -0.221613
C27   C     C_R   0.002720 0.444010 0.341730 -0.142025
C28   C     C_R   0.535246 0.043506 0.343065 -0.221823
C29   C     C_R   0.055985 0.501651 0.656235 -0.152369
C30   C     C_R   0.538377 0.959047 0.656970 -0.143312
C31   C     C_R   0.944013 0.498530 0.656205 -0.152289
C32   C     C_R   0.462687 0.041687 0.657046 -0.144065
C33   C     C_R   0.500380 0.000179 0.865311 -0.111193
C34   C     C_R   0.999990 0.500000 0.864743 -0.092555
C35   C     C_R   0.499946 0.000074 0.134737 -0.106704
C36   C     C_R   0.000030 0.499969 0.133865 -0.093438
C37   C     C_R   0.999989 0.499945 0.364739 -0.092409
C38   C     C_R   0.499979 0.000006 0.365598 -0.094351
C39   C     C_R   1.000000 0.500090 0.633870 -0.093456
C40   C     C_R   0.500184 0.000076 0.634433 -0.097894
C41   C     C_R   0.465242 0.045034 0.796361 -0.026887
C42   C     C_R   0.943050 0.498767 0.795481 -0.025424
C43   C     C_R   0.537559 0.957030 0.796294 -0.025503
C44   C     C_R   0.056937 0.501296 0.795509 -0.025541
C45   C     C_R   0.532396 0.046921 0.203796 -0.022011
C46   C     C_R   0.002478 0.442954 0.202432 -0.026670
C47   C     C_R   0.467466 0.953228 0.203706 -0.022314
C48   C     C_R   0.997572 0.556958 0.202520 -0.026644
C49   C     C_R   0.001479 0.442997 0.295449 -0.025136
C50   C     C_R   0.535157 0.044838 0.296801 -0.025118
C51   C     C_R   0.998520 0.556894 0.295531 -0.025248
C52   C     C_R   0.464752 0.955240 0.296712 -0.025349
C53   C     C_R   0.942997 0.497817 0.702466 -0.026811
C54   C     C_R   0.462787 0.043061 0.703346 -0.023077
C55   C     C_R   0.056997 0.502344 0.702497 -0.026923
C56   C     C_R   0.539431 0.958610 0.703269 -0.019688
C57   C     C_R   0.501236 0.000903 0.773032 -0.032342
C58   C     C_R   0.999994 0.500046 0.772218 -0.001087
C59   C     C_R   0.499936 0.000067 0.227035 -0.011125
C60   C     C_R   0.000019 0.499953 0.225791 -0.000715
C61   C     C_R   0.000006 0.499947 0.272213 -0.000896
C62   C     C_R   0.499950 0.000047 0.273458 -0.020524
C63   C     C_R   0.999996 0.500072 0.725797 -0.000758
C64   C     C_R   0.501146 0.000849 0.726602 -0.009508
C65   C     C_R   0.429512 0.088934 0.773132 0.213207
C66   C     C_R   0.886362 0.497410 0.772202 0.213304
C67   C     C_R   0.574873 0.914458 0.773022 0.196505
C68   C     C_R   0.113628 0.502680 0.772261 0.214078
C69   C     C_R   0.565651 0.092775 0.227132 0.199817
C70   C     C_R   0.004252 0.386308 0.225587 0.205034
C71   C     C_R   0.434209 0.907366 0.226949 0.199948
C72   C     C_R   0.995784 0.613599 0.225760 0.204750
C73   C     C_R   0.003044 0.386305 0.272140 0.213963
C74   C     C_R   0.568020 0.090950 0.273633 0.189231
C75   C     C_R   0.996964 0.613592 0.272311 0.213946
C76   C     C_R   0.431862 0.909158 0.273452 0.189276
C77   C     C_R   0.886356 0.496219 0.725649 0.204402
C78   C     C_R   0.426913 0.086899 0.726631 0.193799
C79   C     C_R   0.113637 0.503918 0.725710 0.204238
C80   C     C_R   0.576804 0.916025 0.726511 0.194606
H1    H     H_    0.565456 0.926211 0.861400 0.185810
H2    H     H_    0.098640 0.505741 0.860304 0.187035
H3    H     H_    0.436701 0.075476 0.861592 0.195770
H4    H     H_    0.901347 0.494247 0.860252 0.186811
H5    H     H_    0.442301 0.920148 0.138442 0.198268
H6    H     H_    0.997695 0.598271 0.137098 0.200532
H7    H     H_    0.557578 0.080008 0.138591 0.198092
H8    H     H_    0.002379 0.401663 0.136941 0.200294
H9    H     H_    0.993795 0.598584 0.360335 0.186779
H10   H     H_    0.439301 0.922492 0.361959 0.185575
H11   H     H_    0.006176 0.401311 0.360210 0.186687
H12   H     H_    0.560634 0.077539 0.362113 0.185930
H13   H     H_    0.098293 0.502119 0.637052 0.200620
H14   H     H_    0.565881 0.926712 0.637874 0.192153
H15   H     H_    0.901707 0.498046 0.637002 0.200574
H16   H     H_    0.434928 0.073812 0.637992 0.192126
H17   H     H_    0.303784 0.199306 0.426935 0.197417
H18   H     H_    0.211525 0.632672 0.375912 0.203874
H19   H     H_    0.696072 0.800450 0.426853 0.197450
H20   H     H_    0.788389 0.367151 0.375826 0.203841
H21   H     H_    0.281585 0.787411 0.495442 0.164745
H22   H     H_    0.206656 0.379075 0.630262 0.206593
H23   H     H_    0.718435 0.212526 0.495307 0.164771
H24   H     H_    0.793509 0.621165 0.630333 0.206698
H25   H     H_    0.866435 0.711493 0.876257 0.204458
H26   H     H_    0.699243 0.194065 0.924856 0.196857
H27   H     H_    0.132336 0.288148 0.875709 0.204258
H28   H     H_    0.299514 0.803120 0.926315 0.197333
H29   H     H_    0.878690 0.293507 0.130134 0.207113
H30   H     H_    0.713844 0.780946 0.997828 0.165973
H31   H     H_    0.121282 0.706861 0.130174 0.207082
H32   H     H_    0.292488 0.216013 0.996048 0.177543
C81   C     C_R   0.620197 0.196144 0.481624 0.527343
C82   C     C_R   0.189764 0.426935 0.568384 0.430135
C83   C     C_R   0.379802 0.803755 0.481733 0.527457
C84   C     C_R   0.810312 0.573181 0.568430 0.429839
C85   C     C_R   0.601450 0.809059 0.447566 0.464355
C86   C     C_R   0.191632 0.577858 0.434509 0.456022
C87   C     C_R   0.398465 0.190767 0.447562 0.464346
C88   C     C_R   0.808325 0.422063 0.434460 0.456070
C89   C     C_R   0.073244 0.689824 0.068333 0.430107
C90   C     C_R   0.696415 0.878857 0.983787 0.525998
C91   C     C_R   0.926753 0.310350 0.068324 0.429701
C92   C     C_R   0.303976 0.117801 0.980317 0.542958
C93   C     C_R   0.077775 0.308162 0.934442 0.457078
C94   C     C_R   0.690772 0.099965 0.946792 0.466589
C95   C     C_R   0.921684 0.691629 0.934686 0.455665
C96   C     C_R   0.308905 0.897207 0.948070 0.463879
C97   C     C_R   0.671652 0.228902 0.499406 -0.357199
C98   C     C_R   0.227260 0.398308 0.600660 -0.252533
C99   C     C_R   0.328376 0.771060 0.499544 -0.357487
C100  C     C_R   0.772860 0.601861 0.600733 -0.252404
C101  C     C_R   0.657689 0.777421 0.442938 -0.311511
C102  C     C_R   0.230413 0.610969 0.405190 -0.310062
C103  C     C_R   0.342213 0.222393 0.442972 -0.311657
C104  C     C_R   0.769526 0.388896 0.405119 -0.310075
C105  C     C_R   0.102016 0.727388 0.100544 -0.252800
C106  C     C_R   0.729841 0.827912 0.001639 -0.354094
C107  C     C_R   0.898000 0.272881 0.100532 -0.253137
C108  C     C_R   0.274172 0.169908 0.999483 -0.368404
C109  C     C_R   0.110717 0.269288 0.905019 -0.314911
C110  C     C_R   0.722299 0.156109 0.941413 -0.308418
C111  C     C_R   0.888354 0.730406 0.905471 -0.310210
C112  C     C_R   0.276668 0.841519 0.942570 -0.307774
C113  C     C_R   0.664086 0.284696 0.522023 0.323710
C114  C     C_R   0.289618 0.389010 0.593269 0.295871
C115  C     C_R   0.335983 0.715351 0.522185 0.323608
C116  C     C_R   0.710482 0.611105 0.593379 0.296293
C117  C     C_R   0.663019 0.715575 0.455386 0.321026
C118  C     C_R   0.292041 0.620944 0.415031 0.280016
C119  C     C_R   0.336935 0.284298 0.455365 0.321084
C120  C     C_R   0.707902 0.378938 0.414945 0.279958
C121  C     C_R   0.111365 0.789716 0.093071 0.299376
C122  C     C_R   0.785811 0.836120 0.023791 0.321875
C123  C     C_R   0.888704 0.210518 0.093074 0.299060
C124  C     C_R   0.218170 0.163624 0.022225 0.321881
C125  C     C_R   0.120827 0.207689 0.914896 0.282787
C126  C     C_R   0.784030 0.161979 0.954091 0.318731
C127  C     C_R   0.878494 0.792074 0.915321 0.283384
C128  C     C_R   0.214618 0.836665 0.954645 0.318324
C129  C     C_R   0.605671 0.311801 0.522793 -0.271323
C130  C     C_R   0.316045 0.416628 0.556379 -0.241837
C131  C     C_R   0.394407 0.688263 0.522956 -0.271764
C132  C     C_R   0.684001 0.583403 0.556489 -0.241920
C133  C     C_R   0.611297 0.685556 0.473135 -0.244046
C134  C     C_R   0.317449 0.588775 0.450285 -0.232754
C135  C     C_R   0.388711 0.314380 0.473044 -0.244111
C136  C     C_R   0.682514 0.411163 0.450217 -0.232863
C137  C     C_R   0.083650 0.816080 0.056180 -0.243222
C138  C     C_R   0.812467 0.894691 0.023997 -0.272800
C139  C     C_R   0.916450 0.184047 0.056206 -0.241479
C140  C     C_R   0.189379 0.105798 0.022777 -0.268395
C141  C     C_R   0.088978 0.182425 0.950355 -0.230988
C142  C     C_R   0.814167 0.110722 0.972451 -0.245129
C143  C     C_R   0.910923 0.817507 0.950479 -0.234560
C144  C     C_R   0.184882 0.888440 0.972687 -0.246042
C145  C     C_R   0.553733 0.281649 0.504355 -0.021281
C146  C     C_R   0.282901 0.459883 0.529943 0.030696
C147  C     C_R   0.446314 0.718360 0.504495 -0.021513
C148  C     C_R   0.717125 0.540132 0.530005 0.030688
C149  C     C_R   0.555252 0.717634 0.481098 -0.021215
C150  C     C_R   0.283541 0.542899 0.473595 0.016486
C151  C     C_R   0.444757 0.282314 0.481004 -0.021069
C152  C     C_R   0.716440 0.457059 0.473575 0.016601
C153  C     C_R   0.040266 0.782918 0.029833 0.029522
C154  C     C_R   0.781931 0.946165 0.005203 -0.021257
C155  C     C_R   0.959839 0.217146 0.029891 0.028847
C156  C     C_R   0.218616 0.053125 0.004608 -0.022267
C157  C     C_R   0.043074 0.216381 0.973682 0.014412
C158  C     C_R   0.782292 0.054699 0.980811 -0.022341
C159  C     C_R   0.956915 0.783564 0.973682 0.015610
C160  C     C_R   0.217315 0.944128 0.981127 -0.021669
C161  C     C_R   0.559366 0.220217 0.489405 0.019092
C162  C     C_R   0.218174 0.462784 0.532981 0.010143
C163  C     C_R   0.440646 0.779731 0.489517 0.019047
C164  C     C_R   0.781858 0.537261 0.533019 0.010233
C165  C     C_R   0.551440 0.781166 0.470803 -0.016705
C166  C     C_R   0.218969 0.540102 0.469404 0.003513
C167  C     C_R   0.448532 0.218738 0.470748 -0.016596
C168  C     C_R   0.781008 0.459857 0.469384 0.003592
C169  C     C_R   0.037312 0.718199 0.032930 0.009781
C170  C     C_R   0.720391 0.940076 0.990559 0.018269
C171  C     C_R   0.962722 0.281881 0.032955 0.009205
C172  C     C_R   0.279739 0.057956 0.989466 0.014639
C173  C     C_R   0.040153 0.280934 0.969423 0.003220
C174  C     C_R   0.718801 0.050564 0.970597 -0.020882
C175  C     C_R   0.959659 0.718974 0.969495 0.003751
C176  C     C_R   0.281037 0.947406 0.971177 -0.018730
C177  C     C_R   0.497054 0.312820 0.498810 -0.032927
C178  C     C_R   0.314178 0.500191 0.500938 -0.012877
C179  C     C_R   0.502988 0.687178 0.498935 -0.033259
C180  C     C_R   0.685824 0.499788 0.500967 -0.012795
C181  C     C_R   0.999817 0.814190 0.000904 -0.010927
C182  C     C_R   0.812917 0.002791 0.998981 -0.032841
C183  C     C_R   0.000317 0.185808 0.000993 -0.015498
C184  C     C_R   0.187062 0.996681 0.998995 -0.033189
C185  C     C_R   0.503607 0.186312 0.481479 -0.154065
C186  C     C_R   0.186385 0.500578 0.500472 -0.143811
C187  C     C_R   0.496379 0.813617 0.481542 -0.153956
C188  C     C_R   0.813617 0.499426 0.500478 -0.143752
C189  C     C_R   0.999357 0.686391 0.000487 -0.143373
C190  C     C_R   0.686445 0.995759 0.981981 -0.153790
C191  C     C_R   0.000601 0.313605 0.000486 -0.144572
C192  C     C_R   0.313516 0.002449 0.981785 -0.153976
H33   H     H_    0.601362 0.357048 0.537668 0.201658
H34   H     H_    0.363718 0.405430 0.549891 0.185798
H35   H     H_    0.398748 0.643075 0.537853 0.201824
H36   H     H_    0.636310 0.594564 0.550031 0.185855
H37   H     H_    0.615404 0.637036 0.480947 0.156648
H38   H     H_    0.364900 0.598979 0.458516 0.188511
H39   H     H_    0.384641 0.362941 0.480802 0.156665
H40   H     H_    0.635062 0.400984 0.458426 0.188454
H41   H     H_    0.094811 0.863746 0.049647 0.186203
H42   H     H_    0.857807 0.899381 0.038594 0.202945
H43   H     H_    0.905272 0.136372 0.049644 0.186116
H44   H     H_    0.143944 0.102391 0.037461 0.199655
H45   H     H_    0.099190 0.134974 0.958586 0.188943
H46   H     H_    0.862619 0.115165 0.980420 0.157945
H47   H     H_    0.900846 0.865008 0.958708 0.189028
H48   H     H_    0.136252 0.884711 0.980225 0.158000
O33   O     O_R   0.408410 0.499950 0.462690 -0.606489
O34   O     O_R   0.499950 0.591590 0.462690 -0.589886
O35   O     O_R   0.591590 0.500050 0.462690 -0.606474
O36   O     O_R   0.500050 0.408410 0.462690 -0.590091
O37   O     O_R   0.408410 0.500050 0.537310 -0.605871
O38   O     O_R   0.499950 0.408410 0.537310 -0.601334
O39   O     O_R   0.591590 0.499950 0.537310 -0.605805
O40   O     O_R   0.500050 0.591590 0.537310 -0.601738
O41   O     O_R   0.908410 0.999950 0.962690 -0.590999
O42   O     O_R   0.999950 0.091590 0.962690 -0.606744
O43   O     O_R   0.091590 0.000050 0.962690 -0.591637
O44   O     O_R   0.000050 0.908410 0.962690 -0.606841
O45   O     O_R   0.908410 0.000050 0.037310 -0.602555
O46   O     O_R   0.999950 0.908410 0.037310 -0.605578
O47   O     O_R   0.091590 0.999950 0.037310 -0.601356
O48   O     O_R   0.000050 0.091590 0.037310 -0.606665
C193  C     C_R   0.380300 0.499107 0.500154 0.807795
C194  C     C_R   0.502321 0.620163 0.499991 0.820436
C195  C     C_R   0.619701 0.500885 0.500166 0.807640
C196  C     C_R   0.497692 0.379836 0.499950 0.820199
C197  C     C_R   0.879872 0.002337 0.999983 0.821529
C198  C     C_R   0.999201 0.119696 0.000176 0.808917
C199  C     C_R   0.120141 0.997859 0.999994 0.822012
C200  C     C_R   0.000893 0.880306 0.000141 0.808519
Zn9   Zn    Zn3+2 0.500000 0.500000 0.450200 1.082772
Zn10  Zn    Zn3+2 0.500000 0.500000 0.549800 1.104385
Zn11  Zn    Zn3+2 0.000000 0.000000 0.950200 1.076695
Zn12  Zn    Zn3+2 0.000000 0.000000 0.049800 1.100917
N1    N     N_R   0.396077 0.136054 0.796566 0.220208
O49   O     O_R   0.336601 0.141578 0.791376 -0.285983
O50   O     O_R   0.426150 0.177666 0.819118 -0.411261
N2    N     N_R   0.828518 0.496282 0.795591 0.231046
O51   O     O_R   0.789716 0.451175 0.789171 -0.283723
O52   O     O_R   0.811875 0.543441 0.819643 -0.384329
N3    N     N_R   0.611828 0.870078 0.796427 0.231542
O53   O     O_R   0.671759 0.871119 0.792786 -0.261131
O54   O     O_R   0.585308 0.824157 0.816755 -0.371924
N4    N     N_R   0.171470 0.503796 0.795679 0.230915
O55   O     O_R   0.210246 0.548936 0.789385 -0.284901
O56   O     O_R   0.188148 0.456593 0.819611 -0.389961
N5    N     N_R   0.597966 0.140864 0.203857 0.229002
O57   O     O_R   0.656982 0.148791 0.210047 -0.256698
O58   O     O_R   0.567354 0.180565 0.179978 -0.345872
N6    N     N_R   0.005921 0.328479 0.202079 0.223152
O59   O     O_R   0.962951 0.287371 0.208575 -0.294214
O60   O     O_R   0.053389 0.314505 0.177494 -0.326608
N7    N     N_R   0.401877 0.859299 0.203580 0.229033
O61   O     O_R   0.342856 0.851397 0.209727 -0.256515
O62   O     O_R   0.432474 0.819588 0.179655 -0.347388
N8    N     N_R   0.994125 0.671431 0.202342 0.223317
O63   O     O_R   0.037123 0.712516 0.208903 -0.293855
O64   O     O_R   0.946655 0.685424 0.177765 -0.325389
N9    N     N_R   0.004350 0.328452 0.295498 0.230816
O65   O     O_R   0.049549 0.289742 0.289081 -0.285542
O66   O     O_R   0.957272 0.311708 0.319526 -0.386525
N10   N     N_R   0.602111 0.137545 0.297145 0.234820
O67   O     O_R   0.586603 0.195454 0.293491 -0.271092
O68   O     O_R   0.652699 0.122899 0.317998 -0.350932
N11   N     N_R   0.995640 0.671442 0.295757 0.230736
O69   O     O_R   0.950433 0.710142 0.289374 -0.285684
O70   O     O_R   0.042719 0.688204 0.319823 -0.386691
N12   N     N_R   0.397759 0.862564 0.296870 0.234756
O71   O     O_R   0.413253 0.804652 0.293126 -0.271628
O72   O     O_R   0.347166 0.877214 0.317714 -0.350948
N13   N     N_R   0.828529 0.494738 0.702173 0.223099
O73   O     O_R   0.787516 0.537810 0.708774 -0.292195
O74   O     O_R   0.814441 0.447321 0.677534 -0.326255
N14   N     N_R   0.389277 0.130839 0.703244 0.233297
O75   O     O_R   0.399029 0.189846 0.708037 -0.255662
O76   O     O_R   0.341799 0.112080 0.680364 -0.337451
N15   N     N_R   0.171467 0.505422 0.702265 0.223187
O77   O     O_R   0.212492 0.462360 0.708818 -0.294126
O78   O     O_R   0.185544 0.552849 0.677710 -0.326393
N16   N     N_R   0.616018 0.873399 0.703129 0.230811
O79   O     O_R   0.610002 0.814141 0.709220 -0.252157
O80   O     O_R   0.661605 0.893939 0.679129 -0.340616
O81   O     O_3   0.626671 0.145995 0.452298 -0.610590
C201  C     C_3   0.687092 0.120771 0.450507 0.115042
H49   H     H_    0.705095 0.111122 0.484485 0.118967
H50   H     H_    0.718087 0.153278 0.432455 0.179720
C202  C     C_3   0.686231 0.059138 0.425683 -0.312199
H51   H     H_    0.662917 0.023903 0.446531 0.236368
H52   H     H_    0.660455 0.064093 0.394087 0.263727
C203  C     C_3   0.751574 0.036571 0.415502 -0.897447
H53   H     H_    0.775777 0.070032 0.393597 0.295582
H54   H     H_    0.749284 0.991241 0.398237 0.268558
H55   H     H_    0.778299 0.030819 0.446733 0.260500
O82   O     O_3   0.126308 0.419984 0.572699 -0.646138
C204  C     C_3   0.108567 0.356303 0.575667 0.106909
H56   H     H_    0.057440 0.354076 0.576214 0.195602
H57   H     H_    0.122704 0.335395 0.607724 0.137430
C205  C     C_3   0.130781 0.316199 0.536266 -0.359962
H58   H     H_    0.115449 0.336712 0.504389 0.265756
H59   H     H_    0.182060 0.313227 0.535932 0.238296
C206  C     C_3   0.105001 0.250664 0.539308 -0.881259
H60   H     H_    0.120241 0.228354 0.570667 0.278820
H61   H     H_    0.122209 0.222787 0.510891 0.290190
H62   H     H_    0.053659 0.251540 0.538093 0.252057
O83   O     O_3   0.373285 0.853763 0.452362 -0.610495
C207  C     C_3   0.312871 0.878998 0.450582 0.114889
H63   H     H_    0.294931 0.888802 0.484561 0.118799
H64   H     H_    0.281833 0.846424 0.432569 0.179657
C208  C     C_3   0.313723 0.940517 0.425705 -0.312361
H65   H     H_    0.337107 0.975830 0.446506 0.236292
H66   H     H_    0.339437 0.935396 0.394100 0.263917
C209  C     C_3   0.248373 0.963077 0.415543 -0.897378
H67   H     H_    0.224103 0.929527 0.393686 0.295620
H68   H     H_    0.250653 0.008321 0.398231 0.268555
H69   H     H_    0.221717 0.968996 0.446785 0.260328
O84   O     O_3   0.873774 0.580143 0.572727 -0.646169
C210  C     C_3   0.891522 0.643828 0.575718 0.107057
H70   H     H_    0.942651 0.646048 0.576236 0.195530
H71   H     H_    0.877446 0.664793 0.607795 0.137647
C211  C     C_3   0.869233 0.683861 0.536352 -0.360287
H72   H     H_    0.884492 0.663283 0.504455 0.265787
H73   H     H_    0.817954 0.686844 0.536052 0.238254
C212  C     C_3   0.895034 0.749396 0.539410 -0.880685
H74   H     H_    0.879866 0.771769 0.570790 0.279051
H75   H     H_    0.877772 0.777223 0.511018 0.290175
H76   H     H_    0.946374 0.748507 0.538161 0.251926
O85   O     O_3   0.594478 0.865788 0.426870 -0.632151
C213  C     C_3   0.594208 0.858481 0.380049 0.077976
H77   H     H_    0.546910 0.868510 0.367889 0.172802
H78   H     H_    0.605796 0.810936 0.368049 0.150588
C214  C     C_3   0.639736 0.904281 0.359445 -0.353242
H79   H     H_    0.627452 0.952047 0.369628 0.247297
H80   H     H_    0.687104 0.894198 0.371772 0.226938
C215  C     C_3   0.639454 0.900274 0.308866 -0.838122
H81   H     H_    0.655508 0.853913 0.297904 0.276669
H82   H     H_    0.670984 0.935868 0.294993 0.281527
H83   H     H_    0.592243 0.908528 0.295737 0.265053
O86   O     O_3   0.128184 0.581771 0.427688 -0.635426
C216  C     C_3   0.107236 0.644417 0.423633 0.126915
H84   H     H_    0.056185 0.644176 0.422224 0.196821
H85   H     H_    0.121058 0.665183 0.391503 0.171603
C217  C     C_3   0.125880 0.686641 0.462806 -0.381822
H86   H     H_    0.111855 0.665382 0.494748 0.267409
H87   H     H_    0.176737 0.693529 0.463262 0.241075
C218  C     C_3   0.095343 0.750053 0.459076 -0.878323
H88   H     H_    0.109049 0.772837 0.427534 0.284215
H89   H     H_    0.110336 0.779641 0.487250 0.279697
H90   H     H_    0.044198 0.745451 0.460189 0.259645
O87   O     O_3   0.405396 0.133979 0.426862 -0.632082
C219  C     C_3   0.405443 0.141141 0.380038 0.077992
H91   H     H_    0.452694 0.131137 0.367787 0.172839
H92   H     H_    0.393752 0.188634 0.368050 0.150576
C220  C     C_3   0.359873 0.095228 0.359524 -0.353519
H93   H     H_    0.372244 0.047509 0.369698 0.247402
H94   H     H_    0.312548 0.105311 0.371930 0.226882
C221  C     C_3   0.359941 0.099066 0.308943 -0.837282
H95   H     H_    0.343784 0.145371 0.297998 0.276774
H96   H     H_    0.328399 0.063387 0.295132 0.281714
H97   H     H_    0.407109 0.090829 0.295737 0.264999
O88   O     O_3   0.871771 0.418189 0.427627 -0.635528
C222  C     C_3   0.892761 0.355560 0.423474 0.126781
H98   H     H_    0.943810 0.355840 0.422061 0.196784
H99   H     H_    0.878927 0.334785 0.391312 0.171540
C223  C     C_3   0.874193 0.313321 0.462586 -0.381777
H100  H     H_    0.888224 0.334598 0.494558 0.267429
H101  H     H_    0.823343 0.306382 0.463033 0.241103
C224  C     C_3   0.904791 0.249939 0.458767 -0.878205
H102  H     H_    0.891083 0.227139 0.427192 0.284297
H103  H     H_    0.889849 0.220339 0.486898 0.279659
H104  H     H_    0.955932 0.254593 0.459888 0.259638
O89   O     O_3   0.080081 0.626351 0.072734 -0.645993
C225  C     C_3   0.143724 0.608466 0.075772 0.108943
H105  H     H_    0.145865 0.557331 0.076437 0.195683
H106  H     H_    0.164690 0.622710 0.107808 0.138241
C226  C     C_3   0.183828 0.630373 0.036340 -0.364157
H107  H     H_    0.163352 0.614767 0.004495 0.265382
H108  H     H_    0.186767 0.681657 0.035811 0.237624
C227  C     C_3   0.249367 0.604619 0.039560 -0.877195
H109  H     H_    0.271654 0.620140 0.070882 0.280414
H110  H     H_    0.277239 0.621580 0.011105 0.289244
H111  H     H_    0.248523 0.553259 0.038551 0.252552
O90   O     O_3   0.646120 0.871017 0.954817 -0.608642
C228  C     C_3   0.618827 0.811437 0.956549 0.104080
H112  H     H_    0.610992 0.796483 0.991518 0.122627
H113  H     H_    0.649030 0.777896 0.938729 0.177284
C229  C     C_3   0.555695 0.812295 0.933846 -0.307579
H114  H     H_    0.522701 0.838789 0.954630 0.239532
H115  H     H_    0.559565 0.834824 0.900990 0.263487
C230  C     C_3   0.530178 0.747094 0.927526 -0.887832
H116  H     H_    0.561236 0.719656 0.905709 0.295356
H117  H     H_    0.483845 0.749649 0.911722 0.270414
H118  H     H_    0.525578 0.723501 0.960107 0.258885
O91   O     O_3   0.919833 0.373827 0.072684 -0.646020
C231  C     C_3   0.856167 0.391653 0.075620 0.109493
H119  H     H_    0.853977 0.442790 0.076260 0.195436
H120  H     H_    0.835152 0.377496 0.107630 0.138086
C232  C     C_3   0.816168 0.369558 0.036137 -0.364623
H121  H     H_    0.836709 0.385035 0.004313 0.265022
H122  H     H_    0.813255 0.318269 0.035640 0.237917
C233  C     C_3   0.750611 0.395300 0.039230 -0.876092
H123  H     H_    0.728259 0.379909 0.070529 0.280395
H124  H     H_    0.722811 0.378203 0.010744 0.290056
H125  H     H_    0.751437 0.446656 0.038182 0.252048
O92   O     O_3   0.350314 0.121540 0.947860 -0.626483
C234  C     C_3   0.376533 0.180687 0.941088 0.078833
H126  H     H_    0.422780 0.173281 0.925906 0.183976
H127  H     H_    0.386112 0.205542 0.972686 0.120538
C235  C     C_3   0.337821 0.218673 0.908106 -0.297911
H128  H     H_    0.334499 0.193170 0.876216 0.311283
H129  H     H_    0.289965 0.225457 0.920388 0.225765
C236  C     C_3   0.366748 0.281936 0.899842 -0.827596
H130  H     H_    0.368816 0.308755 0.931290 0.244105
H131  H     H_    0.338220 0.307945 0.875526 0.293900
H132  H     H_    0.414190 0.276722 0.886211 0.290437
O93   O     O_3   0.081791 0.371603 0.927687 -0.635057
C237  C     C_3   0.144450 0.392385 0.923489 0.124024
H133  H     H_    0.144312 0.443468 0.922444 0.197675
H134  H     H_    0.164874 0.378807 0.891162 0.169674
C238  C     C_3   0.186977 0.373157 0.962323 -0.380191
H135  H     H_    0.165957 0.386813 0.994464 0.267990
H136  H     H_    0.193854 0.322275 0.962387 0.237424
C239  C     C_3   0.250379 0.403629 0.958478 -0.885247
H137  H     H_    0.272534 0.390850 0.926488 0.279032
H138  H     H_    0.280451 0.387696 0.986088 0.282446
H139  H     H_    0.245903 0.454746 0.960467 0.261698
O94   O     O_3   0.634216 0.092188 0.925974 -0.629567
C240  C     C_3   0.642018 0.089538 0.879241 0.061532
H140  H     H_    0.626873 0.043194 0.867819 0.174163
H141  H     H_    0.690768 0.095101 0.867533 0.149669
C241  C     C_3   0.601668 0.138978 0.857354 -0.329731
H142  H     H_    0.552728 0.132276 0.867332 0.254692
H143  H     H_    0.616394 0.185516 0.868873 0.229642
C242  C     C_3   0.606535 0.136348 0.806838 -0.831756
H144  H     H_    0.654252 0.148108 0.796155 0.272317
H145  H     H_    0.573906 0.170109 0.791915 0.290983
H146  H     H_    0.594803 0.089435 0.794505 0.261703
O95   O     O_3   0.917798 0.628177 0.927820 -0.635291
C243  C     C_3   0.855157 0.607175 0.923978 0.128174
H147  H     H_    0.855481 0.556110 0.922531 0.196298
H148  H     H_    0.834094 0.621004 0.891934 0.172298
C244  C     C_3   0.813245 0.625767 0.963317 -0.383776
H149  H     H_    0.834706 0.611588 0.995167 0.267410
H150  H     H_    0.806408 0.676644 0.963928 0.240977
C245  C     C_3   0.749788 0.595333 0.959697 -0.875791
H151  H     H_    0.726782 0.609197 0.928258 0.285498
H152  H     H_    0.720432 0.610263 0.987996 0.279365
H153  H     H_    0.754352 0.544169 0.960667 0.259593
O96   O     O_3   0.366151 0.903513 0.928048 -0.629707
C246  C     C_3   0.359530 0.907745 0.881306 0.067980
H154  H     H_    0.374195 0.954755 0.870985 0.169995
H155  H     H_    0.311240 0.901449 0.868806 0.148397
C247  C     C_3   0.401361 0.859754 0.859170 -0.339340
H156  H     H_    0.449914 0.867204 0.869839 0.248164
H157  H     H_    0.387275 0.812641 0.869827 0.227936
C248  C     C_3   0.397649 0.863695 0.808657 -0.835226
H158  H     H_    0.350448 0.851280 0.797165 0.272904
H159  H     H_    0.431322 0.831020 0.793646 0.289086
H160  H     H_    0.408727 0.911178 0.797230 0.262839
N17   N     N_R   0.716288 0.315443 0.542083 0.219130
O97   O     O_R   0.709769 0.369085 0.561177 -0.366607
O98   O     O_R   0.770092 0.288559 0.543671 -0.402072
N18   N     N_R   0.325924 0.351258 0.622889 0.243540
O99   O     O_R   0.384802 0.343111 0.616038 -0.340792
O100  O     O_R   0.300392 0.324400 0.656923 -0.284799
N19   N     N_R   0.283809 0.684660 0.542258 0.219064
O101  O     O_R   0.290339 0.631035 0.561300 -0.366855
O102  O     O_R   0.230024 0.711576 0.543904 -0.402156
N20   N     N_R   0.674210 0.648892 0.623037 0.243464
O103  O     O_R   0.615309 0.656971 0.616231 -0.342095
O104  O     O_R   0.699795 0.675849 0.657061 -0.283164
N21   N     N_R   0.719905 0.682613 0.447921 0.216434
O105  O     O_R   0.720729 0.622473 0.447200 -0.410824
O106  O     O_R   0.770914 0.712481 0.439830 -0.391078
N22   N     N_R   0.328700 0.663640 0.389379 0.231566
O107  O     O_R   0.386939 0.672203 0.398446 -0.360409
O108  O     O_R   0.303814 0.695570 0.357407 -0.304966
N23   N     N_R   0.280048 0.317250 0.447906 0.216418
O109  O     O_R   0.279255 0.377386 0.447104 -0.410687
O110  O     O_R   0.229007 0.287365 0.439886 -0.391257
N24   N     N_R   0.671225 0.336208 0.389256 0.231638
O111  O     O_R   0.612994 0.327651 0.398314 -0.360223
O112  O     O_R   0.696089 0.304240 0.357258 -0.304531
N25   N     N_R   0.149224 0.826064 0.122631 0.241015
O113  O     O_R   0.157370 0.884926 0.115725 -0.349915
O114  O     O_R   0.176176 0.800588 0.156667 -0.292062
N26   N     N_R   0.817265 0.784348 0.043841 0.219741
O115  O     O_R   0.870904 0.791557 0.062772 -0.365863
O116  O     O_R   0.791168 0.730165 0.045401 -0.400579
N27   N     N_R   0.850852 0.174246 0.122617 0.241034
O117  O     O_R   0.842771 0.115350 0.115732 -0.350273
O118  O     O_R   0.823856 0.199822 0.156621 -0.292060
N28   N     N_R   0.188758 0.216562 0.042314 0.219776
O119  O     O_R   0.134748 0.211498 0.061027 -0.366368
O120  O     O_R   0.216828 0.269761 0.043762 -0.399690
N29   N     N_R   0.163224 0.170894 0.889017 0.219066
O121  O     O_R   0.173849 0.113378 0.899246 -0.376443
O122  O     O_R   0.192581 0.194898 0.855477 -0.343348
N30   N     N_R   0.816740 0.218922 0.946339 0.217263
O123  O     O_R   0.876865 0.220321 0.946853 -0.411205
O124  O     O_R   0.786706 0.269492 0.937147 -0.387227
N31   N     N_R   0.835679 0.828761 0.889757 0.230001
O125  O     O_R   0.827113 0.886998 0.898899 -0.368791
O126  O     O_R   0.803667 0.803907 0.857779 -0.309215
N32   N     N_R   0.181213 0.780193 0.946594 0.216605
O127  O     O_R   0.121080 0.779915 0.945764 -0.410378
O128  O     O_R   0.210684 0.729002 0.938212 -0.389677

loop_
_geom_bond_atom_site_label_1
_geom_bond_atom_site_label_2
_geom_bond_distance
_ccdc_geom_bond_type
C210  C211  1.545567 S    
C220  H93   1.109259 S    
N31   O126  1.301655 A    
O81   C201  1.416774 S    
C125  N29   1.442146 S    
O25   C13   1.277073 A    
C228  H112  1.115027 S    
C125  C141  1.383871 A    
C107  C123  1.381512 A    
N25   O113  1.301828 A    
C20   C34   1.394516 A    
C53   C77   1.410544 A    
C12   C37   1.452935 S    
C46   C70   1.410548 A    
O18   Zn2   2.025824 S    
C3    C187  1.483219 S    
N20   O103  1.301827 A    
C242  H145  1.110389 S    
O46   Zn12  2.015375 S    
C87   C103  1.402170 A    
H29   C107  1.080474 S    
C205  H58   1.108580 S    
C82   C98   1.409250 A    
C201  C202  1.527460 S    
N30   O124  1.301593 A    
C226  H107  1.108570 S    
C83   O83   1.404733 S    
C225  C226  1.545590 S    
C156  C184  1.408413 A    
C86   C102  1.413386 A    
C55   C63   1.419480 A    
N6    O59   1.301060 A    
C226  H108  1.110827 S    
C96   O96   1.384004 S    
H18   C102  1.079397 S    
C28   C50   1.393674 A    
C17   C43   1.393948 A    
O3    C3    1.303992 A    
C19   C33   1.390609 A    
C89   C169  1.455209 A    
C108  C124  1.398231 A    
C52   C62   1.417967 A    
H22   C98   1.080474 S    
C204  C205  1.545561 S    
C32   C54   1.394708 A    
H27   C109  1.079438 S    
C206  H61   1.110523 S    
O47   Zn12  2.016185 S    
H23   C97   1.078860 S    
C54   C64   1.418548 A    
C216  H85   1.108372 S    
C169  C189  1.449091 A    
C23   C45   1.394738 A    
C146  C178  1.407982 A    
O5    Zn1   2.014624 S    
C129  H33   1.079619 S    
C56   C80   1.411211 A    
O82   C204  1.432350 S    
C157  C183  1.403724 A    
C133  H37   1.079020 S    
O37   Zn10  2.015962 S    
C132  H36   1.076832 S    
C202  C203  1.525925 S    
C49   C73   1.412359 A    
C18   H2    1.081109 S    
C25   C37   1.394575 A    
N8    O63   1.301061 A    
C230  H116  1.110868 S    
C218  H90   1.111041 S    
O34   Zn9   2.015373 S    
C145  C161  1.407322 A    
C22   H6    1.082308 S    
N12   O71   1.300908 A    
C224  H104  1.111041 S    
C55   C79   1.410554 A    
N9    O65   1.301018 A    
C22   C48   1.393494 A    
C239  H139  1.111004 S    
C149  C165  1.410934 A    
H32   C108  1.077888 S    
C209  H68   1.110117 S    
C138  H42   1.079181 S    
C92   O92   1.402523 S    
C202  H52   1.107955 S    
C156  C172  1.402374 A    
C7    C191  1.432776 S    
H20   C104  1.079379 S    
C243  H147  1.104966 S    
C82   C162  1.455166 A    
C52   C76   1.409971 A    
O40   Zn10  2.016135 S    
O84   C210  1.432320 S    
O39   C195  1.273509 A    
C86   C166  1.456534 A    
N26   O115  1.301707 A    
C104  C120  1.382170 A    
C229  H115  1.106567 S    
O26   Zn6   2.025824 S    
C235  H129  1.108772 S    
N17   O98   1.301392 A    
C228  C229  1.526840 S    
C65   C78   1.402219 A    
C209  H69   1.110877 S    
C237  H133  1.104998 S    
C89   C105  1.409330 A    
C208  H65   1.109140 S    
O27   C13   1.277058 A    
O8    Zn2   2.015142 S    
C67   C80   1.401880 A    
N23   O109  1.300618 A    
C141  C157  1.420204 A    
C241  H142  1.109861 S    
C221  H96   1.110354 S    
O31   C15   1.284125 A    
C25   C51   1.394052 A    
C140  C156  1.412345 A    
C225  H106  1.109297 S    
C49   C61   1.417300 A    
C167  C185  1.419243 A    
C159  C175  1.403336 A    
C15   C34   1.452900 S    
N10   O67   1.300909 A    
C29   C55   1.393523 A    
C73   N9    1.436015 S    
C161  C185  1.431200 A    
C206  H60   1.110835 S    
C245  H151  1.110919 S    
C31   C53   1.393519 A    
O41   Zn11  2.016188 S    
C235  C236  1.524989 S    
C205  C206  1.525715 S    
C127  N31   1.442099 S    
C217  H86   1.109006 S    
C119  N23   1.439158 S    
C118  C134  1.383464 A    
C151  C167  1.410954 A    
C214  H79   1.109267 S    
O9    C5    1.276187 A    
C233  H123  1.110841 S    
N22   O108  1.301659 A    
C6    C190  1.482799 S    
O11   C7    1.276374 A    
N14   O75   1.301081 A    
C84   C100  1.409226 A    
O22   C12   1.284160 A    
C50   C74   1.410000 A    
C70   N6    1.436709 S    
O89   C225  1.432413 S    
O33   Zn9   2.016188 S    
N29   O122  1.301718 A    
C211  H72   1.108581 S    
C124  C140  1.397033 A    
C67   N3    1.434200 S    
C153  C181  1.407773 A    
N5    O57   1.301091 A    
C30   H14   1.082819 S    
C91   O91   1.386704 S    
O6    Zn4   2.015140 S    
C207  H63   1.114648 S    
C176  C192  1.418222 A    
O7    C1    1.278445 A    
N32   O128  1.301590 A    
C126  C142  1.399796 A    
C135  C151  1.416644 A    
C218  H88   1.110926 S    
C94   C110  1.402032 A    
C244  C245  1.525882 S    
C109  C125  1.382318 A    
C53   C63   1.419471 A    
C245  H153  1.111044 S    
C86   O86   1.389885 S    
O85   C213  1.418791 S    
O21   Zn1   2.025573 S    
O48   C198  1.273500 A    
C220  H94   1.111064 S    
C114  C130  1.385449 A    
O23   C11   1.279841 A    
C127  C143  1.383456 A    
O86   C216  1.433473 S    
N18   O100  1.301712 A    
H17   C103  1.082866 S    
C232  H122  1.110839 S    
C246  C247  1.529023 S    
C154  C170  1.408032 A    
C243  C244  1.544749 S    
H21   C99   1.078871 S    
C203  H53   1.110868 S    
O13   C7    1.279827 A    
C76   N12   1.434743 S    
C17   C33   1.390414 A    
C50   C62   1.417931 A    
N4    O56   1.300925 A    
C21   C47   1.394650 A    
C65   N1    1.434351 S    
C135  H39   1.079007 S    
C51   C75   1.412371 A    
O90   C228  1.418172 S    
C136  H40   1.078417 S    
C229  C230  1.525787 S    
O28   C14   1.281241 A    
O26   C14   1.281358 A    
C75   N11   1.436012 S    
O29   C15   1.284227 A    
O30   C16   1.281755 A    
C241  C242  1.526046 S    
O40   C194  1.284057 A    
O29   Zn5   2.025573 S    
C212  H75   1.110525 S    
C79   N15   1.436739 S    
C10   C39   1.425652 S    
C240  H140  1.108649 S    
C138  C154  1.412724 A    
C145  C177  1.408590 A    
C51   C61   1.417222 A    
C14   C35   1.442799 S    
O19   Zn3   2.025565 S    
O16   Zn6   2.015142 S    
N1    O50   1.300987 A    
C24   C36   1.385710 A    
C41   C65   1.409968 A    
C164  C188  1.449087 A    
C179  C194  1.449438 S    
C42   C58   1.417271 A    
C94   C174  1.422417 A    
C217  C218  1.525892 S    
C147  C163  1.407286 A    
C214  C215  1.525685 S    
N7    O62   1.301125 A    
C26   C52   1.393678 A    
C116  C132  1.385463 A    
C160  C176  1.412113 A    
O15   Zn7   2.014622 S    
C144  C160  1.416355 A    
C30   C56   1.394607 A    
C93   O93   1.389683 S    
C236  H130  1.110955 S    
C45   C59   1.418125 A    
O35   C195  1.281928 A    
C122  C138  1.391595 A    
C152  C168  1.403366 A    
C124  N28   1.441932 S    
C239  H138  1.110500 S    
C248  H158  1.110633 S    
C170  C190  1.433605 A    
C119  C135  1.399842 A    
C215  H81   1.110647 S    
C201  H50   1.113617 S    
C130  H34   1.076826 S    
C175  C189  1.450871 A    
O44   Zn11  2.016136 S    
C69   C74   1.402006 A    
C207  C208  1.527429 S    
C150  C178  1.403840 A    
C219  H91   1.107696 S    
C157  C173  1.403160 A    
O32   Zn6   2.025068 S    
C91   C107  1.409304 A    
C247  H157  1.111051 S    
C29   C39   1.385674 A    
C90   C170  1.436049 A    
O39   Zn10  2.016185 S    
O45   C197  1.283278 A    
O95   C243  1.433436 S    
C173  C191  1.450724 A    
C18   C34   1.394575 A    
O47   C199  1.283193 A    
C213  H77   1.107770 S    
C203  H54   1.110135 S    
C206  H62   1.111049 S    
C5    C189  1.432705 S    
C210  H71   1.109332 S    
O22   Zn4   2.025826 S    
N28   O119  1.301695 A    
C115  N19   1.442391 S    
C101  C117  1.393891 A    
N11   O70   1.300929 A    
O23   Zn3   2.025344 S    
C227  H109  1.110840 S    
C158  C174  1.409802 A    
C246  H154  1.109600 S    
C136  C152  1.420059 A    
H25   C111  1.079407 S    
O1    C1    1.304011 A    
C203  H55   1.110878 S    
C137  H41   1.076914 S    
O14   C6    1.275778 A    
C240  H141  1.118297 S    
C208  C209  1.525930 S    
C32   C40   1.389056 A    
C212  H74   1.110838 S    
N20   O104  1.301712 A    
C54   C78   1.410896 A    
C66   N2    1.435996 S    
C23   C35   1.391035 A    
C84   C164  1.455117 A    
C60   C61   1.398096 A    
C128  C144  1.400199 A    
C114  N18   1.441958 S    
C42   C66   1.412339 A    
O92   C234  1.414073 S    
C90   C106  1.423202 A    
O96   C246  1.417996 S    
C152  C180  1.403883 A    
N31   O125  1.301875 A    
C177  C196  1.449445 S    
O30   Zn8   2.025826 S    
C231  H119  1.106838 S    
C89   O89   1.386798 S    
N16   O79   1.301093 A    
C240  C241  1.529458 S    
N19   O101  1.301696 A    
C123  N27   1.441873 S    
C222  H99   1.108374 S    
C238  H135  1.109250 S    
C1    C185  1.483297 S    
C244  H149  1.108958 S    
C204  H57   1.109327 S    
C216  H84   1.104819 S    
C31   H15   1.082254 S    
O48   Zn12  2.016135 S    
O41   C197  1.282686 A    
C234  H126  1.111298 S    
O43   C199  1.282731 A    
C9    C40   1.436890 S    
N5    O58   1.301122 A    
O88   C222  1.433458 S    
C234  C235  1.537172 S    
O83   C207  1.416719 S    
N23   O110  1.301585 A    
O10   C6    1.305616 A    
C11   C38   1.435998 S    
C106  C122  1.393191 A    
O18   C10   1.276965 A    
C123  C139  1.385418 A    
N8    O64   1.301169 A    
C132  C148  1.422346 A    
C13   C36   1.425599 S    
C218  H89   1.110507 S    
C74   N10   1.434768 S    
C236  H132  1.110829 S    
C45   C69   1.411650 A    
N12   O72   1.300492 A    
C224  H103  1.110508 S    
C47   C71   1.411641 A    
C153  C169  1.404019 A    
C58   C63   1.398087 A    
C115  C131  1.392648 A    
C248  H160  1.109426 S    
C113  C129  1.392622 A    
C28   H12   1.082221 S    
C223  H100  1.109005 S    
C44   C58   1.417251 A    
C122  N26   1.442595 S    
C219  C220  1.528809 S    
O31   Zn7   2.025344 S    
N15   O77   1.301066 A    
C117  C133  1.399872 A    
C243  H148  1.108375 S    
C144  H48   1.078983 S    
C230  H118  1.110873 S    
C88   C104  1.413403 A    
C71   C76   1.401965 A    
C172  C192  1.423560 A    
N13   O74   1.301171 A    
C46   C60   1.419443 A    
O46   C200  1.273324 A    
C174  C190  1.418736 A    
N26   O116  1.301417 A    
N3    O53   1.300902 A    
C147  C179  1.408582 A    
N17   O97   1.301694 A    
O21   C11   1.279885 A    
C28   C38   1.388824 A    
C228  H113  1.113409 S    
C68   C79   1.402258 A    
C22   C36   1.385620 A    
C180  C195  1.430321 S    
C237  H134  1.108482 S    
C227  H111  1.111046 S    
C24   C46   1.393565 A    
C241  H143  1.110702 S    
O13   Zn5   2.014624 S    
N9    O66   1.300935 A    
C19   H3    1.083305 S    
C26   C38   1.388797 A    
C141  H45   1.078528 S    
H26   C110  1.082230 S    
C30   C40   1.389370 A    
C80   N16   1.436323 S    
C210  H70   1.106852 S    
N10   O68   1.300494 A    
C212  H76   1.111047 S    
O33   C193  1.281965 A    
O45   Zn12  2.015962 S    
O3    Zn3   2.014834 S    
C242  H146  1.109290 S    
C245  H152  1.110516 S    
O36   C196  1.282598 A    
C21   C35   1.391052 A    
C31   C39   1.385670 A    
N27   O117  1.301829 A    
N30   O123  1.300686 A    
C237  C238  1.544869 S    
C217  H87   1.109971 S    
C232  H121  1.108560 S    
C77   N13   1.436731 S    
O28   Zn8   2.025064 S    
C27   C37   1.394503 A    
C233  H124  1.110519 S    
N11   O69   1.301017 A    
C231  C232  1.545597 S    
C226  C227  1.525725 S    
C68   N4    1.436001 S    
C98   C114  1.381450 A    
N14   O76   1.301066 A    
N2    O51   1.301017 A    
C81   C161  1.433849 A    
C168  C188  1.450686 A    
C221  H97   1.109220 S    
C48   C60   1.419483 A    
C211  H73   1.110825 S    
C102  C118  1.382153 A    
C85   C165  1.422945 A    
C216  C217  1.544552 S    
C66   C77   1.402266 A    
O43   Zn11  2.015960 S    
C117  N21   1.439161 S    
O9    Zn5   2.014831 S    
N24   O111  1.301873 A    
O17   C9    1.280157 A    
C92   C172  1.423414 A    
C90   O90   1.404358 S    
O11   Zn7   2.014834 S    
C233  H125  1.111053 S    
C207  H64   1.113615 S    
O12   C8    1.299239 A    
O37   C193  1.273456 A    
C16   C33   1.441604 S    
C19   C41   1.394596 A    
C116  N20   1.441947 S    
C158  C182  1.413642 A    
C211  C212  1.525714 S    
C25   H9    1.081074 S    
N15   O78   1.301169 A    
C112  C128  1.394384 A    
O5    C3    1.278407 A    
C131  C147  1.412167 A    
H24   C100  1.080475 S    
C209  H67   1.110866 S    
O7    Zn3   2.014622 S    
N7    O61   1.301091 A    
C137  C153  1.422226 A    
C131  H35   1.079611 S    
C155  C171  1.404035 A    
C246  H155  1.118273 S    
C130  C146  1.422359 A    
O15   C5    1.279987 A    
C95   C175  1.456534 A    
C44   C68   1.412345 A    
N2    O52   1.300926 A    
C85   O85   1.384617 S    
C159  C181  1.403640 A    
O17   Zn1   2.025345 S    
C2    C186  1.432797 S    
C57   C64   1.398331 A    
C95   O95   1.389811 S    
C97   C113  1.394419 A    
C48   C72   1.410484 A    
C47   C59   1.418089 A    
C82   O82   1.386681 S    
C59   C62   1.398132 A    
C229  H114  1.108328 S    
C163  C187  1.431152 A    
C235  H128  1.109321 S    
C43   C57   1.417146 A    
C238  C239  1.525844 S    
C81   C97   1.423347 A    
C87   C167  1.422933 A    
C181  C200  1.429949 S    
C223  C224  1.525892 S    
C85   C101  1.402125 A    
O14   Zn8   2.015140 S    
C225  H105  1.106785 S    
N19   O102  1.301389 A    
C160  C184  1.416808 A    
C213  H78   1.117740 S    
C244  H150  1.110041 S    
N29   O121  1.301852 A    
C242  H144  1.110650 S    
C238  H136  1.110132 S    
N1    O49   1.301074 A    
O94   C240  1.418703 S    
C88   O88   1.389932 S    
O42   Zn11  2.015373 S    
O8    C4    1.279791 A    
O4    Zn4   2.014932 S    
C139  H43   1.076948 S    
N22   O107  1.301872 A    
C134  C150  1.420066 A    
C214  H80   1.111070 S    
C103  C119  1.393860 A    
C32   H16   1.082814 S    
C27   C49   1.394234 A    
H31   C105  1.080460 S    
C92   C108  1.419998 A    
C133  C149  1.416638 A    
C20   H4    1.081094 S    
O32   C16   1.280611 A    
C221  H95   1.110645 S    
C184  C199  1.447721 S    
N21   O106  1.301588 A    
C20   C42   1.394147 A    
C95   C111  1.413325 A    
C149  C179  1.414628 A    
C205  H59   1.110824 S    
C96   C112  1.401164 A    
C113  N17   1.442406 S    
C165  C187  1.419155 A    
C166  C186  1.450762 A    
O42   C198  1.281679 A    
O2    Zn2   2.014930 S    
O93   C237  1.433356 S    
C72   N8    1.436702 S    
H30   C106  1.078893 S    
C222  C223  1.544544 S    
C151  C177  1.414571 A    
C219  H92   1.117731 S    
N32   O127  1.300653 A    
O38   Zn10  2.015375 S    
O16   C8    1.283144 A    
C178  C193  1.430300 S    
C143  H47   1.078491 S    
C78   N14   1.435880 S    
C120  C136  1.383473 A    
C247  C248  1.525867 S    
O38   C196  1.283996 A    
C171  C191  1.449117 A    
O10   Zn6   2.014930 S    
C87   O87   1.384612 S    
N25   O114  1.301710 A    
N27   O118  1.301708 A    
C140  H44   1.080187 S    
O25   Zn5   2.025345 S    
O6    C2    1.279817 A    
C220  C221  1.525683 S    
N28   O120  1.301430 A    
N3    O54   1.300519 A    
O27   Zn7   2.025565 S    
C93   C173  1.456200 A    
N18   O99   1.301830 A    
C146  C162  1.404134 A    
C227  H110  1.110526 S    
C232  C233  1.525723 S    
O87   C219  1.418833 S    
C155  C183  1.407740 A    
C24   H8    1.082284 S    
C150  C166  1.403359 A    
C111  C127  1.382196 A    
C81   O81   1.404791 S    
C208  H66   1.107968 S    
C69   N5    1.436331 S    
N4    O55   1.301016 A    
C18   C44   1.394108 A    
C213  C214  1.528829 S    
C94   O94   1.384432 S    
O36   Zn9   2.016136 S    
O19   C9    1.279608 A    
C121  C137  1.385388 A    
O91   C231  1.432370 S    
C215  H83   1.109213 S    
C83   C163  1.433772 A    
H28   C112  1.082666 S    
C8    C192  1.483295 S    
N21   O105  1.300613 A    
O24   C12   1.283960 A    
C148  C180  1.407967 A    
C91   C171  1.455166 A    
C70   C73   1.402316 A    
O24   Zn2   2.025068 S    
O12   Zn8   2.014932 S    
C182  C197  1.448254 S    
C4    C188  1.432784 S    
N6    O60   1.301168 A    
C96   C176  1.422648 A    
C231  H120  1.109310 S    
C105  C121  1.381482 A    
N16   O80   1.301112 A    
C142  H46   1.079136 S    
C128  N32   1.439219 S    
H19   C101  1.082865 S    
O34   C194  1.282539 A    
C204  H56   1.106822 S    
C134  H38   1.078421 S    
C29   H13   1.082257 S    
C88   C168  1.456506 A    
C121  N25   1.441886 S    
C148  C164  1.404158 A    
C118  N22   1.442163 S    
C215  H82   1.110354 S    
O2    C2    1.276140 A    
C234  H127  1.111852 S    
O4    C4    1.276153 A    
C126  N30   1.439437 S    
C202  H51   1.109144 S    
C99   C115  1.394433 A    
C93   C109  1.413391 A    
C183  C198  1.429872 S    
C56   C64   1.418462 A    
C129  C145  1.412164 A    
C236  H131  1.110628 S    
N24   O112  1.301660 A    
O20   Zn4   2.025064 S    
C224  H102  1.110927 S    
C41   C57   1.417233 A    
C100  C116  1.381461 A    
C84   O84   1.386662 S    
O20   C10   1.276931 A    
C239  H137  1.110744 S    
C248  H159  1.110407 S    
C43   C67   1.410068 A    
O44   C200  1.281882 A    
C120  N24   1.442170 S    
C201  H49   1.114644 S    
C27   H11   1.081082 S    
C223  H101  1.109971 S    
C139  C155  1.422218 A    
C17   H1    1.080836 S    
C222  H98   1.104803 S    
C83   C99   1.423317 A    
C154  C182  1.408615 A    
C230  H117  1.110543 S    
C162  C186  1.449120 A    
C247  H156  1.109691 S    
C143  C159  1.419994 A    
C21   H5    1.082522 S    
C110  C126  1.394156 A    
C71   N7    1.436331 S    
N13   O73   1.301062 A    
O1    Zn1   2.014831 S    
C72   C75   1.402221 A    
C23   H7    1.082519 S    
O35   Zn9   2.015960 S    
C26   H10   1.082229 S    
C142  C158  1.416703 A    
