data_mof_unit_23701.cif
_audit_creation_date              2012-12-10T22:11:14-0500
_audit_creation_method            fapswitch 2.2
_symmetry_space_group_name_H-M    P1
_symmetry_Int_Tables_number       1
_space_group_crystal_system       triclinic
_cell_length_a                    12.118842
_cell_length_b                    12.287158
_cell_length_c                    23.087416
_cell_angle_alpha                 88.994911
_cell_angle_beta                  90.671365
_cell_angle_gamma                 90.532054
_cell_volume                      3436.95100281

loop_
_atom_site_label
_atom_site_type_symbol
_atom_type_description
_atom_site_fract_x
_atom_site_fract_y
_atom_site_fract_z
_atom_type_partial_charge
Br1   Br    Br    0.337444 0.220056 0.335404 -0.327684
Br2   Br    Br    0.163022 0.805293 0.573811 -0.411532
Br3   Br    Br    0.662554 0.778202 0.663415 -0.310537
Br4   Br    Br    0.741375 0.114493 0.210489 -0.432717
Br5   Br    Br    0.254267 0.866698 0.780808 -0.413016
Br6   Br    Br    0.596403 0.825451 0.323470 -0.258002
Br7   Br    Br    0.417556 0.149537 0.684202 -0.192542
Br8   Br    Br    0.230656 0.211344 0.094164 -0.352732
Br9   Br    Br    0.783863 0.806577 0.918818 -0.367763
Br10  Br    Br    0.821954 0.209678 0.415393 -0.382157
C1    C     C_R   0.656191 0.996764 0.579633 0.888500
C2    C     C_R   0.103646 0.840547 0.804140 0.277214
C3    C     C_R   0.900688 0.235409 0.151603 -0.201602
C4    C     C_R   0.095049 0.753455 0.843089 -0.167690
C5    C     C_R   0.100730 0.913826 0.334831 -0.037264
C6    C     C_R   0.894565 0.088361 0.668147 -0.075968
C7    C     C_R   0.182302 0.918515 0.376665 -0.162261
C8    C     C_R   0.814396 0.083490 0.625586 -0.148311
C9    C     C_R   0.885004 0.078144 0.322737 -0.180436
C10   C     C_R   0.108346 0.924453 0.672973 -0.191808
C11   C     C_R   0.808585 0.085540 0.365957 0.268698
C12   C     C_R   0.343745 0.003269 0.420373 0.890556
C13   C     C_R   0.184252 0.918806 0.629377 0.268357
C14   C     C_3   0.994274 0.987594 0.247992 -0.023882
C15   C     C_3   0.003849 0.009316 0.751834 -0.013594
C16   C     C_R   0.651369 0.002717 0.419154 0.926082
C17   C     C_R   0.347951 0.997106 0.580462 0.933969
C18   C     C_R   0.091342 0.994923 0.291293 0.099782
C19   C     C_R   0.906395 0.003628 0.709397 0.093921
C20   C     C_R   0.255736 0.006334 0.377564 -0.102814
C21   C     C_R   0.743207 0.993797 0.622949 -0.104613
C22   C     C_R   0.895356 0.983334 0.289215 -0.095345
C23   C     C_R   0.896315 0.797834 0.131031 -0.146882
C24   C     C_R   0.103404 0.014715 0.710480 -0.108545
C25   C     C_R   0.728764 0.003245 0.371695 -0.242257
C26   C     C_R   0.270057 0.995257 0.627595 -0.243933
C27   C     C_R   0.989110 0.087267 0.205622 -0.066552
C28   C     C_R   0.009418 0.907784 0.793032 -0.062496
C29   C     C_R   0.999423 0.260622 0.123420 -0.176214
C30   C     C_R   0.000370 0.736709 0.876069 -0.125941
C31   C     C_R   0.000564 0.893136 0.205680 0.012123
C32   C     C_R   0.995264 0.104587 0.793530 -0.010989
C33   C     C_R   0.993946 0.760641 0.108531 -0.225197
C34   C     C_R   0.086767 0.186652 0.876567 -0.189481
C35   C     C_R   0.008357 0.267512 0.876160 -0.218819
C36   C     C_R   0.993104 0.667338 0.071020 0.929137
C37   C     C_R   0.007340 0.342686 0.923188 0.931898
C38   C     C_R   0.999533 0.349677 0.080544 0.894197
C39   C     C_R   0.000524 0.650048 0.919646 0.952808
C40   C     C_R   0.157393 0.089760 0.297387 -0.180424
C41   C     C_R   0.840708 0.908864 0.702926 -0.147487
C42   C     C_R   0.241987 0.094142 0.338294 0.311005
C43   C     C_R   0.756995 0.904952 0.661623 0.304465
C44   C     C_R   0.821985 0.893049 0.301309 0.258034
C45   C     C_R   0.101194 0.851974 0.181676 0.314529
C46   C     C_R   0.185331 0.099724 0.703205 0.380643
C47   C     C_R   0.728427 0.914266 0.334040 0.228470
C48   C     C_R   0.277470 0.076421 0.669534 0.219717
C49   C     C_R   0.085444 0.110015 0.173459 -0.240863
C50   C     C_R   0.917657 0.891478 0.829339 -0.236370
C51   C     C_R   0.092317 0.195244 0.133769 0.313345
C52   C     C_R   0.911714 0.808347 0.869991 0.290185
C53   C     C_R   0.900937 0.872221 0.174822 -0.100597
C54   C     C_R   0.084630 0.111402 0.833354 -0.060659
C55   C     C_R   0.905060 0.180458 0.799365 0.242087
C56   C     C_R   0.094813 0.806536 0.126662 0.360924
C57   C     C_R   0.926652 0.273135 0.832542 0.338300
C58   C     C_R   0.892377 0.147810 0.190297 0.301116
H1    H     H_    0.158368 0.061530 0.180159 0.237829
H2    H     H_    0.151926 0.183834 0.909109 0.211155
H3    H     H_    0.827173 0.282119 0.141812 0.219609
H4    H     H_    0.165926 0.701430 0.849983 0.214699
H5    H     H_    0.187785 0.852729 0.408445 0.198953
H6    H     H_    0.807632 0.150993 0.594933 0.198806
H7    H     H_    0.144286 0.162409 0.271541 0.179910
H8    H     H_    0.852906 0.836743 0.729426 0.184643
H9    H     H_    0.860343 0.709978 0.380315 0.349314
H10   H     H_    0.228167 0.340926 0.792381 0.401966
H11   H     H_    0.382442 0.746419 0.204966 0.412226
H12   H     H_    0.850457 0.947164 0.827860 0.230670
H13   H     H_    0.701907 0.177270 0.867479 0.352057
H14   H     H_    0.328521 0.958629 0.065439 0.409377
H15   H     H_    0.898612 0.428812 0.721789 0.392245
H16   H     H_    0.823978 0.908082 0.187005 0.209172
H17   H     H_    0.152595 0.055228 0.832242 0.204849
H18   H     H_    0.044587 0.845926 0.337028 0.191669
H19   H     H_    0.948176 0.158583 0.668445 0.201373
H20   H     H_    0.941367 0.146266 0.316828 0.195384
H21   H     H_    0.048605 0.858646 0.676115 0.196666
H22   H     H_    0.816855 0.771366 0.114218 0.218564
O1    O     O_R   0.621380 0.090460 0.561410 -0.596831
O2    O     O_R   0.912410 0.372520 0.941210 -0.589492
O3    O     O_R   0.905660 0.383870 0.059980 -0.627035
O4    O     O_R   0.094340 0.616130 0.940020 -0.616529
O5    O     O_R   0.092570 0.390420 0.063230 -0.573308
O6    O     O_R   0.907430 0.609580 0.936770 -0.554466
O7    O     O_R   0.900680 0.620930 0.055550 -0.617497
O8    O     O_R   0.099320 0.379070 0.944450 -0.611348
O9    O     O_2   0.768658 0.712740 0.241458 -0.206569
O10   O     O_2   0.960340 0.719597 0.274739 -0.287296
O11   O     O_3   0.810148 0.681240 0.349931 -0.442183
O12   O     O_R   0.378620 0.909540 0.438590 -0.595536
O13   O     O_2   0.229385 0.308386 0.674648 -0.206462
O14   O     O_2   0.058398 0.279423 0.724841 -0.367898
O15   O     O_3   0.242312 0.263600 0.783842 -0.494789
O16   O     O_2   0.286251 0.931023 0.235531 -0.274768
O17   O     O_2   0.205282 0.760403 0.274069 -0.255147
O18   O     O_3   0.314677 0.753358 0.180816 -0.442786
O19   O     O_2   0.734989 0.218795 0.723733 -0.163963
O20   O     O_2   0.722900 0.045816 0.775977 -0.300977
O21   O     O_3   0.683889 0.218371 0.831348 -0.418018
O22   O     O_2   0.273091 0.742902 0.066244 -0.200392
O23   O     O_R   0.617150 0.909540 0.438590 -0.597626
O24   O     O_2   0.143799 0.867140 0.017696 -0.317080
O25   O     O_3   0.274855 0.944930 0.096820 -0.483820
O26   O     O_2   0.768105 0.422918 0.849288 -0.169830
O27   O     O_2   0.951373 0.490569 0.823897 -0.352259
O28   O     O_3   0.830556 0.408284 0.742799 -0.418331
O29   O     O_R   0.382850 0.090460 0.561410 -0.596182
O30   O     O_R   0.619720 0.093230 0.440890 -0.568562
O31   O     O_R   0.380280 0.906770 0.559110 -0.568176
O32   O     O_R   0.618800 0.906770 0.559110 -0.593491
O33   O     O_R   0.381200 0.093230 0.440890 -0.591254
O34   O     O_R   0.087590 0.627480 0.058790 -0.561824
S1    S     S_3+6 0.844497 0.750447 0.289166 0.062451
S2    S     S_3+6 0.174672 0.240664 0.721189 0.051566
S3    S     S_3+6 0.227904 0.826916 0.220312 0.097946
S4    S     S_3+6 0.761159 0.161679 0.780155 0.095675
S5    S     S_3+6 0.198496 0.838285 0.074638 0.099410
S6    S     S_3+6 0.867723 0.401952 0.813144 0.141388
Zn1   Zn    Zn3+2 0.501730 0.123520 0.501540 1.158320
Zn2   Zn    Zn3+2 0.498270 0.876480 0.498460 1.154147
Zn3   Zn    Zn3+2 0.125690 0.504390 0.002180 1.157477
Zn4   Zn    Zn3+2 0.874310 0.495610 0.997820 1.140124

loop_
_geom_bond_atom_site_label_1
_geom_bond_atom_site_label_2
_ccdc_geom_bond_type
C24   C46   A    
C14   C31   S    
C38   O5    A    
O30   Zn1   S    
C37   O2    A    
H9    O11   S    
C17   O31   A    
C12   O33   A    
O9    S1    D    
C34   C54   A    
O8    Zn3   S    
C37   O8    A    
O34   Zn3   S    
H10   O15   S    
H15   O28   S    
O23   Zn2   S    
O12   Zn2   S    
H14   O25   S    
C26   C48   A    
O25   S5    S    
O1    Zn1   S    
C30   C39   S    
C27   C58   A    
O5    Zn3   S    
O4    Zn3   S    
C30   C52   A    
C50   C52   A    
O32   Zn2   S    
O13   S2    D    
C31   C45   A    
C18   C40   A    
O18   S3    S    
H13   O21   S    
C55   C57   A    
C35   C57   A    
C32   C55   A    
C40   C42   A    
C34   H2    S    
C46   S2    S    
C39   O4    A    
Br7   C48   S    
Br8   C51   S    
C56   S5    S    
C10   C24   A    
C1    C21   S    
C8    H6    S    
C7    H5    S    
C7    C20   A    
Br6   C47   S    
C36   O34   A    
O7    Zn4   S    
C9    C22   A    
C22   C44   A    
Br1   C42   S    
C35   C37   S    
Br10  C11   S    
C15   C19   S    
C29   C51   A    
C44   S1    S    
C49   C51   A    
C38   O3    A    
O10   S1    D    
C23   C33   A    
C55   S4    S    
C41   H8    S    
Br5   C2    S    
C9    H20   S    
Br4   C58   S    
O6    Zn4   S    
C3    H3    S    
C6    C19   A    
O16   S3    D    
Br9   C52   S    
C41   C43   A    
C14   C22   S    
O28   S6    S    
C15   C28   S    
C6    H19   S    
O19   S4    D    
O29   Zn1   S    
C10   C13   A    
C23   C53   A    
C14   C27   S    
O14   S2    D    
C21   C43   A    
O27   S6    D    
C27   C49   A    
C49   H1    S    
C5    H18   S    
C28   C50   A    
O15   S2    S    
C36   O7    A    
C45   S3    S    
O3    Zn4   S    
O22   S5    D    
O24   S5    D    
C1    O32   A    
C31   C53   A    
O31   Zn2   S    
C32   C54   A    
C54   H17   S    
Br2   C13   S    
C45   C56   A    
C34   C35   A    
C19   C41   A    
C5    C7    A    
C20   C42   A    
C50   H12   S    
C12   C20   S    
O33   Zn1   S    
C4    H4    S    
O2    Zn4   S    
C14   C18   S    
C16   O30   A    
C15   C32   S    
C11   C25   A    
C17   O29   A    
C17   C26   S    
C10   H21   S    
C15   C24   S    
C12   O12   A    
C53   H16   S    
C25   C47   A    
C2    C4    A    
C16   O23   A    
O17   S3    D    
C40   H7    S    
Br3   C43   S    
C5    C18   A    
C33   C56   A    
C46   C48   A    
H11   O18   S    
C39   O6    A    
C2    C28   A    
C33   C36   S    
C3    C29   A    
C4    C30   A    
C57   S6    S    
C1    O1    A    
C16   C25   S    
O26   S6    D    
C6    C8    A    
C13   C26   A    
O21   S4    S    
C8    C21   A    
C23   H22   S    
O11   S1    S    
C44   C47   A    
O20   S4    D    
C29   C38   S    
C9    C11   A    
C3    C58   A    
