data_mof_unit_58467.cif
_audit_creation_date              2013-03-05T15:54:05-0500
_audit_creation_method            fapswitch 2.2
_symmetry_space_group_name_H-M    P1
_symmetry_Int_Tables_number       1
_space_group_crystal_system       triclinic
_cell_length_a                    16.72332
_cell_length_b                    7.19421
_cell_length_c                    15.058771
_cell_angle_alpha                 90.000012
_cell_angle_beta                  94.813365
_cell_angle_gamma                 89.999985
_cell_volume                      1805.3475131

loop_
_atom_site_label
_atom_site_type_symbol
_atom_site_description
_atom_site_fract_x
_atom_site_fract_y
_atom_site_fract_z
_atom_type_partial_charge
O1    O     O_R   0.578230 0.505720 0.424270 -0.590678
O2    O     O_R   0.421770 0.005720 0.575730 -0.590677
O3    O     O_R   0.412470 0.173950 0.404530 -0.577185
O4    O     O_R   0.587530 0.673950 0.595470 -0.577186
C1    C     C_R   0.387317 0.344233 0.379683 0.929773
C2    C     C_R   0.612683 0.844233 0.620317 0.929775
O5    O     O_R   0.577030 0.175880 0.413670 -0.561499
O6    O     O_R   0.422970 0.675880 0.586330 -0.561499
O7    O     O_R   0.587510 0.007580 0.584940 -0.604660
O8    O     O_R   0.412490 0.507580 0.415060 -0.604661
C3    C     C_R   0.603195 0.344545 0.393452 0.975260
C4    C     C_R   0.396805 0.844545 0.606547 0.975259
O9    O     O_3   0.503240 0.339850 0.556180 -0.272926
O10   O     O_3   0.496760 0.839850 0.443820 -0.272926
V1    V     V_3+5 0.499400 0.064230 0.489580 1.201611
V2    V     V_3+5 0.500600 0.564230 0.510420 1.201611
C5    C     C_1   0.334122 0.854558 0.668797 -0.256603
C6    C     C_1   0.665878 0.354558 0.331203 -0.256602
C7    C     C_1   0.281385 0.865443 0.720196 0.071455
C8    C     C_1   0.718615 0.365443 0.279804 0.071455
C9    C     C_1   0.219104 0.879309 0.780469 0.068171
C10   C     C_1   0.780896 0.379309 0.219531 0.068172
C11   C     C_1   0.166322 0.890304 0.831795 -0.302326
C12   C     C_1   0.833678 0.390304 0.168205 -0.302326
C13   C     C_3   0.753308 0.740316 0.838033 -0.481039
C14   C     C_3   0.246693 0.240316 0.161967 -0.481038
H1    H     H_    0.785559 0.611675 0.854433 0.153252
H2    H     H_    0.214441 0.111675 0.145567 0.153252
H3    H     H_    0.732095 0.772619 0.903552 0.195465
H4    H     H_    0.267905 0.272618 0.096448 0.195467
C15   C     C_3   0.680496 0.705751 0.767010 0.218833
C16   C     C_3   0.319504 0.205751 0.232990 0.218831
H5    H     H_    0.688476 0.567653 0.736899 0.082210
H6    H     H_    0.311523 0.067653 0.263101 0.082212
H7    H     H_    0.762047 0.669517 0.624638 0.173662
H8    H     H_    0.237953 0.169517 0.375362 0.173664
C17   C     C_3   0.838484 0.850986 0.711762 0.119306
C18   C     C_3   0.161516 0.350987 0.288237 0.119305
C19   C     C_3   0.761500 0.086016 0.800281 0.364811
C20   C     C_3   0.238500 0.586016 0.199718 0.364813
C21   C     C_3   0.813038 0.895104 0.809157 -0.106669
C22   C     C_3   0.186962 0.395104 0.190843 -0.106670
C23   C     C_3   0.682668 0.853909 0.692176 -0.117575
C24   C     C_3   0.317332 0.353909 0.307824 -0.117578
C25   C     C_3   0.762099 0.815460 0.647348 -0.483884
C26   C     C_3   0.237901 0.315461 0.352652 -0.483884
C27   C     C_3   0.681680 0.044691 0.741345 -0.302938
C28   C     C_3   0.318320 0.544691 0.258655 -0.302930
H9    H     H_    0.629773 0.042025 0.782004 0.188870
H10   H     H_    0.370227 0.542025 0.217996 0.188868
H11   H     H_    0.664041 0.160857 0.696600 0.187622
H12   H     H_    0.335958 0.660857 0.303400 0.187623
H13   H     H_    0.861227 0.981596 0.687632 0.132581
H14   H     H_    0.138773 0.481597 0.312368 0.132582
H15   H     H_    0.763691 0.894314 0.584335 0.140378
H16   H     H_    0.236308 0.394314 0.415665 0.140378
O11   O     O_R   0.087480 0.241090 0.084980 -0.583615
O12   O     O_R   0.912520 0.741090 0.915020 -0.583616
O13   O     O_R   0.922960 0.569060 0.086330 -0.574340
O14   O     O_R   0.077040 0.069060 0.913670 -0.574340
C29   C     C_R   0.896450 0.400425 0.106105 0.945296
C30   C     C_R   0.103550 0.900425 0.893895 0.945296
O15   O     O_R   0.087520 0.570920 0.095480 -0.619148
O16   O     O_R   0.912480 0.070920 0.904520 -0.619148
O17   O     O_R   0.078240 0.739160 0.924260 -0.590002
O18   O     O_R   0.921760 0.239160 0.075740 -0.590001
C31   C     C_R   0.114468 0.402985 0.119826 0.899032
C32   C     C_R   0.885532 0.902985 0.880173 0.899031
O19   O     O_3   0.996740 0.404980 0.943840 -0.288075
O20   O     O_3   0.003260 0.904980 0.056160 -0.288075
V3    V     V_3+5 0.000600 0.680640 0.010420 1.116094
V4    V     V_3+5 0.999400 0.180640 0.989580 1.116094
N1    N     N_R   0.602501 0.701854 0.806200 0.218460
O21   O     O_R   0.591334 0.787925 0.880217 -0.403378
O22   O     O_R   0.544364 0.601017 0.769065 -0.400380
N2    N     N_R   0.397499 0.201854 0.193800 0.218460
O23   O     O_R   0.408667 0.287925 0.119784 -0.403377
O24   O     O_R   0.455635 0.101013 0.230934 -0.400379
C33   C     C_3   0.913821 0.735082 0.689288 -0.458541
C34   C     C_3   0.944724 0.579077 0.750757 -0.755667
H17   H     H_    0.998475 0.625619 0.792361 0.262473
H18   H     H_    0.899542 0.534040 0.794121 0.269112
H19   H     H_    0.963959 0.459102 0.711343 0.216650
H20   H     H_    0.902578 0.677759 0.620830 0.199481
H21   H     H_    0.966208 0.829651 0.683936 0.171611
C35   C     C_3   0.086178 0.235085 0.310711 -0.458541
C36   C     C_3   0.055276 0.079077 0.249244 -0.755667
H22   H     H_    0.001525 0.125615 0.207639 0.262473
H23   H     H_    0.100459 0.034041 0.205880 0.269113
H24   H     H_    0.036043 0.959103 0.288658 0.216650
H25   H     H_    0.097420 0.177765 0.379170 0.199481
H26   H     H_    0.033791 0.329655 0.316061 0.171611
C37   C     C_3   0.807198 0.248211 0.754376 -0.355616
C38   C     C_3   0.791677 0.293372 0.653443 -0.985561
H27   H     H_    0.791731 0.174589 0.608360 0.259489
H28   H     H_    0.734099 0.366759 0.637980 0.252163
H29   H     H_    0.839305 0.386423 0.633009 0.264409
H30   H     H_    0.790259 0.375790 0.785024 0.201660
H31   H     H_    0.872638 0.232978 0.769990 0.191081
C39   C     C_3   0.192803 0.748211 0.245623 -0.355617
C40   C     C_3   0.208323 0.793373 0.346555 -0.985563
H32   H     H_    0.208269 0.674591 0.391639 0.259489
H33   H     H_    0.265901 0.866760 0.362019 0.252163
H34   H     H_    0.160695 0.886424 0.366989 0.264410
H35   H     H_    0.209742 0.875790 0.214974 0.201659
H36   H     H_    0.127362 0.732979 0.230008 0.191082
C41   C     C_3   0.743734 0.159308 0.896742 -0.454896
C42   C     C_3   0.668441 0.278997 0.902154 -0.766818
H37   H     H_    0.677114 0.377370 0.959035 0.256480
H38   H     H_    0.655192 0.359129 0.840409 0.260613
H39   H     H_    0.615850 0.190361 0.913286 0.290813
H40   H     H_    0.740567 0.047284 0.946335 0.207719
H41   H     H_    0.794654 0.246402 0.924562 0.208121
C43   C     C_3   0.256266 0.659306 0.103257 -0.454897
C44   C     C_3   0.331560 0.778992 0.097843 -0.766834
H42   H     H_    0.322890 0.877347 0.040957 0.256483
H43   H     H_    0.344805 0.859140 0.159583 0.260617
H44   H     H_    0.384152 0.690355 0.086720 0.290815
H45   H     H_    0.259433 0.547281 0.053664 0.207721
H46   H     H_    0.205346 0.746400 0.075436 0.208122

loop_
_geom_bond_atom_site_label_1
_geom_bond_atom_site_label_2
_geom_bond_distance
_ccdc_geom_bond_type
C13   C15   1.571569 S    
C36   H22   1.103692 S    
C3    C6    1.465493 S    
C14   C16   1.571568 S    
C12   C29   1.465106 S    
C41   H40   1.103034 S    
O1    C3    1.329172 A    
O2    C4    1.329173 A    
C2    O7    1.343272 A    
C43   C44   1.533224 S    
C27   H9    1.103615 S    
O5    C3    1.333745 A    
C17   C33   1.571213 S    
C39   H35   1.075925 S    
C37   C38   1.554627 S    
C15   C23   1.553772 S    
C18   C35   1.571212 S    
O16   C32   1.330198 A    
C7    C9    1.441256 S    
N2    O24   1.301154 A    
C18   C22   1.592979 S    
C35   H25   1.111600 S    
C33   H20   1.111600 S    
O12   V3    2.016815 S    
C15   N1    1.476333 S    
O14   V4    1.971295 S    
C44   H42   1.111164 S    
C42   H37   1.111181 S    
O14   C30   1.333876 A    
N1    O21   1.302137 A    
O19   V3    2.220686 S    
C41   H41   1.110576 S    
C20   C43   1.596462 S    
C29   O18   1.329185 A    
C11   C30   1.465106 S    
O18   V4    1.956836 S    
C44   H43   1.100624 S    
C4    C5    1.465493 S    
C41   C42   1.533230 S    
C15   H5    1.104817 S    
H8    C26   1.104216 S    
O20   V3    1.753881 S    
C37   H31   1.105351 S    
C43   H45   1.103032 S    
C17   H13   1.087570 S    
C28   H10   1.103612 S    
C40   H33   1.105670 S    
N1    O22   1.301157 A    
O11   C31   1.340097 A    
C34   H19   1.110297 S    
C19   C37   1.584969 S    
C24   C26   1.564355 S    
C21   C32   1.548889 S    
C13   H3    1.100924 S    
O15   C31   1.330197 A    
O13   C29   1.333877 A    
C40   H32   1.091453 S    
N2    O23   1.302134 A    
C19   C21   1.621049 S    
C13   C21   1.581087 S    
C35   C36   1.517643 S    
C27   H11   1.098220 S    
C38   H29   1.103800 S    
O17   V3    1.956838 S    
C16   H6    1.104817 S    
O4    V2    2.016022 S    
O19   V4    1.753881 S    
C19   C41   1.596458 S    
C16   N2    1.476333 S    
C20   C22   1.621048 S    
C18   H14   1.087569 S    
O6    C4    1.333745 A    
C44   H44   1.110380 S    
C16   C24   1.553772 S    
O1    V2    1.956594 S    
C38   H28   1.105671 S    
O2    V1    1.956592 S    
C23   C25   1.564354 S    
O12   C32   1.340096 A    
C1    C24   1.527429 S    
C8    C10   1.441256 S    
C14   H4    1.100924 S    
C40   H34   1.103801 S    
C2    C23   1.527428 S    
C36   H23   1.088632 S    
C22   C31   1.548889 S    
C10   C12   1.223630 T    
C36   H24   1.110297 S    
O4    C2    1.338384 A    
C17   C25   1.558864 S    
H7    C25   1.104216 S    
C33   H21   1.117475 S    
O3    V1    2.016020 S    
C14   C22   1.581087 S    
C19   C27   1.568150 S    
C20   C28   1.568150 S    
C30   O17   1.329185 A    
C39   H36   1.105351 S    
O15   V3    2.015995 S    
C34   H17   1.103692 S    
O3    C1    1.338384 A    
C20   C39   1.584967 S    
O20   V4    2.220686 S    
C13   H1    1.089050 S    
C14   H2    1.089049 S    
C42   H39   1.110395 S    
C9    C11   1.223630 T    
O7    V1    2.011041 S    
C1    O8    1.343272 A    
O8    V2    2.011040 S    
O5    V1    1.971381 S    
C39   C40   1.554628 S    
C5    C7    1.223761 T    
C34   H18   1.088632 S    
C42   H38   1.100638 S    
C6    C8    1.223761 T    
O16   V4    2.015995 S    
O11   V4    2.016814 S    
C17   C21   1.592978 S    
C38   H27   1.091452 S    
C18   C26   1.558864 S    
C33   C34   1.517643 S    
C28   H12   1.098220 S    
C25   H15   1.107779 S    
O6    V2    1.971380 S    
O9    V2    1.754266 S    
C26   H16   1.107779 S    
O10   V1    1.754266 S    
C35   H26   1.117473 S    
C23   C27   1.560254 S    
C37   H30   1.075926 S    
C43   H46   1.110574 S    
C24   C28   1.560255 S    
O13   V3    1.971293 S    
