data_mof_unit_61382.cif
_audit_creation_date              2012-12-10T18:28:32-0500
_audit_creation_method            fapswitch 2.2
_symmetry_space_group_name_H-M    P1
_symmetry_Int_Tables_number       1
_space_group_crystal_system       triclinic
_cell_length_a                    21.751114
_cell_length_b                    21.733198
_cell_length_c                    21.250554
_cell_angle_alpha                 120.68774
_cell_angle_beta                  120.734553
_cell_angle_gamma                 90.120631
_cell_volume                      6939.80317552

loop_
_atom_site_label
_atom_site_type_symbol
_atom_type_description
_atom_site_fract_x
_atom_site_fract_y
_atom_site_fract_z
_atom_type_partial_charge
C1    C     C_R   0.084701 0.584638 0.669239 0.801427
C2    C     C_R   0.970864 0.252894 0.177502 -0.106057
C3    C     C_R   0.243127 0.444897 0.422602 -0.232519
C4    C     C_R   0.312934 0.505099 0.500207 -0.093217
C5    C     C_R   0.317463 0.564360 0.576645 0.041879
C6    C     C_R   0.252185 0.560443 0.574018 -0.230033
C7    C     C_R   0.183634 0.499164 0.497560 -0.065767
C8    C     C_R   0.178424 0.440960 0.420921 -0.007309
C9    C     C_R   0.420397 0.647958 0.744738 -0.189655
C10   C     C_R   0.485720 0.712863 0.823058 0.275999
C11   C     C_R   0.518611 0.762611 0.816438 -0.171280
C12   C     C_R   0.117666 0.499193 0.498286 0.798138
C13   C     C_R   0.486342 0.747489 0.731541 0.276910
C14   C     C_R   0.421355 0.682308 0.653069 -0.150317
C15   C     C_R   0.388005 0.631988 0.659092 0.023388
C16   C     C_1   0.136237 0.635974 0.771759 -0.165740
C17   C     C_1   0.178794 0.678481 0.856718 -0.000776
C18   C     C_1   0.229029 0.728796 0.957478 -0.001198
C19   C     C_1   0.271382 0.771233 0.042444 0.010407
C20   C     C_1   0.321666 0.821600 0.143230 0.009202
C21   C     C_1   0.364102 0.864085 0.228205 -0.179364
C22   C     C_R   0.992475 0.486063 0.733524 -0.140689
C23   C     C_R   0.915308 0.415367 0.330748 0.807050
C24   C     C_R   0.923989 0.468957 0.655372 -0.134296
C25   C     C_R   0.894750 0.526892 0.656887 0.083637
C26   C     C_R   0.934591 0.601860 0.737593 -0.118799
C27   C     C_R   0.002927 0.618678 0.815699 -0.141534
C28   C     C_R   0.031833 0.560824 0.813677 -0.113736
C29   C     C_R   0.755074 0.506778 0.573186 0.426626
C30   C     C_R   0.688095 0.501429 0.501682 -0.176014
C31   C     C_R   0.686478 0.497533 0.432372 -0.052449
C32   C     C_R   0.750599 0.495683 0.433039 -0.193766
C33   C     C_R   0.816813 0.501043 0.503279 -0.085785
C34   C     C_R   0.882136 0.500532 0.501294 0.832058
C35   C     C_R   0.820843 0.509037 0.575415 -0.090050
C36   C     C_R   0.581255 0.440265 0.269308 -0.135993
C37   C     C_R   0.518616 0.442970 0.203369 -0.141056
C38   C     C_R   0.495429 0.506065 0.229587 -0.126239
C39   C     C_R   0.535065 0.566778 0.321775 -0.085475
C40   C     C_R   0.597668 0.564293 0.387895 -0.073283
C41   C     C_R   0.620776 0.500629 0.362118 0.132797
C42   C     C_1   0.863788 0.364118 0.228208 -0.160159
C43   C     C_1   0.821234 0.321633 0.143237 -0.001726
C44   C     C_1   0.771013 0.271164 0.042461 -0.008312
C45   C     C_R   0.011460 0.254565 0.255168 -0.126237
C46   C     C_1   0.728671 0.228622 0.957492 -0.003923
C47   C     C_1   0.678392 0.178203 0.856720 -0.028375
C48   C     C_1   0.635938 0.135708 0.771754 -0.202109
C49   C     C_R   0.498329 0.619878 0.499813 0.814182
C50   C     C_R   0.379916 0.502986 0.500111 0.823595
C51   C     C_R   0.501104 0.379954 0.499730 0.818628
C52   C     C_R   0.620334 0.499952 0.500297 0.859539
C53   C     C_R   0.501039 0.119730 0.501951 0.781589
C54   C     C_R   0.415383 0.915376 0.330769 0.794794
C55   C     C_R   0.500698 0.882010 0.501482 0.788548
C56   C     C_R   0.079058 0.316144 0.334987 -0.109361
C57   C     C_R   0.584624 0.084492 0.669222 0.792486
C58   C     C_R   0.262426 0.503652 0.239215 -0.129629
C59   C     C_R   0.331586 0.563613 0.295352 -0.097714
C60   C     C_R   0.354326 0.628630 0.380001 0.100694
C61   C     C_R   0.306128 0.634038 0.406552 -0.168267
C62   C     C_R   0.237163 0.573799 0.350440 -0.131172
C63   C     C_R   0.215454 0.508555 0.266948 -0.106591
C64   C     C_R   0.431338 0.756088 0.444909 -0.210974
C65   C     C_R   0.501122 0.815912 0.502782 -0.060702
C66   C     C_R   0.569854 0.811102 0.559615 0.064935
C67   C     C_R   0.105994 0.376753 0.337613 0.081837
C68   C     C_R   0.567300 0.746145 0.557624 -0.142486
C69   C     C_R   0.497758 0.686080 0.499028 -0.083020
C70   C     C_R   0.429084 0.690425 0.441468 -0.006547
C71   C     C_R   0.701469 0.868600 0.611220 0.291465
C72   C     C_R   0.771818 0.929172 0.675402 -0.141979
C73   C     C_R   0.785765 0.995119 0.753376 -0.163164
C74   C     C_R   0.729387 0.001009 0.767534 -0.121256
C75   C     C_R   0.658774 0.941139 0.703576 -0.160428
C76   C     C_R   0.644314 0.874493 0.625177 0.047821
C77   C     C_R   0.492306 0.244543 0.251111 -0.184631
C78   C     C_R   0.064972 0.374834 0.259495 -0.165269
C79   C     C_R   0.475078 0.240140 0.304030 -0.087012
C80   C     C_R   0.533749 0.254791 0.387175 0.049681
C81   C     C_R   0.609325 0.270772 0.414837 -0.215032
C82   C     C_R   0.626348 0.274656 0.361420 0.308173
C83   C     C_R   0.567880 0.262107 0.279943 -0.122671
C84   C     C_R   0.517854 0.191060 0.449269 -0.214874
C85   C     C_R   0.502578 0.187652 0.504184 -0.080616
C86   C     C_R   0.487594 0.248061 0.558255 0.006389
C87   C     C_R   0.487512 0.310550 0.555281 -0.232688
C88   C     C_R   0.501113 0.313021 0.498992 -0.091959
C89   C     C_R   0.997583 0.313012 0.179684 -0.138967
C90   C     C_R   0.516212 0.252882 0.445043 0.007001
C91   C     C_R   0.405757 0.253621 0.609911 -0.136738
C92   C     C_R   0.393937 0.256483 0.669992 -0.133541
C93   C     C_R   0.450938 0.255782 0.741709 -0.103281
C94   C     C_R   0.519861 0.252266 0.753487 -0.111922
C95   C     C_R   0.531766 0.248889 0.693213 -0.122748
C96   C     C_R   0.474585 0.249262 0.620748 0.122540
Cu1   Cu    Cu3+1 0.000010 0.438210 0.500020 0.977588
Cu2   Cu    Cu3+1 0.999990 0.561790 0.499980 0.976323
Cu3   Cu    Cu3+1 0.457530 0.457560 0.415050 0.952747
Cu4   Cu    Cu3+1 0.542470 0.542480 0.584950 1.012312
Cu5   Cu    Cu3+1 0.561810 0.000000 0.500000 0.999043
Cu6   Cu    Cu3+1 0.438190 0.000000 0.500000 0.974842
H1    H     H_    0.918584 0.205171 0.115734 0.134315
H2    H     H_    0.568900 0.813060 0.877146 0.190841
H3    H     H_    0.396830 0.670939 0.587706 0.133379
H4    H     H_    0.084813 0.573987 0.874169 0.134471
H5    H     H_    0.014811 0.441280 0.732095 0.135629
H6    H     H_    0.893250 0.410554 0.594195 0.178289
H7    H     H_    0.912510 0.647034 0.739991 0.143034
H8    H     H_    0.033541 0.676572 0.877792 0.140207
H9    H     H_    0.749712 0.492051 0.379700 0.152117
H10   H     H_    0.990720 0.207995 0.253400 0.135829
H11   H     H_    0.598445 0.390927 0.248220 0.129224
H12   H     H_    0.487950 0.396072 0.131924 0.131873
H13   H     H_    0.446838 0.507968 0.178468 0.127092
H14   H     H_    0.517231 0.615712 0.342039 0.148525
H15   H     H_    0.627861 0.611661 0.459147 0.125678
H16   H     H_    0.162123 0.461935 0.223523 0.116738
H17   H     H_    0.245410 0.453240 0.174404 0.119047
H18   H     H_    0.367926 0.558969 0.273647 0.116585
H19   H     H_    0.322180 0.684588 0.470741 0.143899
H20   H     H_    0.200617 0.577635 0.371700 0.140032
H21   H     H_    0.110582 0.316448 0.394454 0.134841
H22   H     H_    0.378674 0.760023 0.401158 0.151809
H23   H     H_    0.619780 0.742342 0.601913 0.158963
H24   H     H_    0.815800 0.925159 0.664887 0.162723
H25   H     H_    0.840341 0.041666 0.802900 0.141405
H26   H     H_    0.740514 0.051942 0.828245 0.147744
H27   H     H_    0.615517 0.946423 0.715376 0.165282
H28   H     H_    0.580854 0.265251 0.238588 0.149772
H29   H     H_    0.447045 0.234252 0.187674 0.138143
H30   H     H_    0.416272 0.226313 0.280914 0.135555
H31   H     H_    0.085134 0.421190 0.260581 0.124061
H32   H     H_    0.654719 0.280276 0.477708 0.155289
H33   H     H_    0.529461 0.144568 0.407988 0.162672
H34   H     H_    0.476825 0.357692 0.597169 0.151065
H35   H     H_    0.361252 0.254479 0.554773 0.125331
H36   H     H_    0.340684 0.259504 0.661129 0.131610
H37   H     H_    0.441837 0.258296 0.788384 0.128290
H38   H     H_    0.564151 0.252523 0.809621 0.138068
H39   H     H_    0.585622 0.246664 0.703398 0.105058
H40   H     H_    0.965957 0.311773 0.119596 0.134539
H41   H     H_    0.239230 0.399704 0.363654 0.162820
H42   H     H_    0.254585 0.605642 0.631782 0.145255
H43   H     H_    0.395048 0.609897 0.750493 0.166617
O1    O     O_R   0.061970 0.509790 0.623960 -0.564755
O2    O     O_R   0.535870 0.626050 0.571740 -0.568896
O3    O     O_R   0.373960 0.464160 0.428260 -0.589472
O4    O     O_R   0.445680 0.535880 0.571730 -0.577241
O5    O     O_R   0.464130 0.373990 0.428260 -0.589975
O6    O     O_R   0.535860 0.445700 0.571730 -0.583771
O7    O     O_R   0.554320 0.464170 0.428270 -0.589017
O8    O     O_R   0.626040 0.535880 0.571740 -0.536246
O9    O     O_R   0.552180 0.090160 0.499970 -0.582793
O10   O     O_R   0.447790 0.090160 0.499970 -0.569212
O11   O     O_R   0.490230 0.938030 0.376060 -0.551093
O12   O     O_R   0.061960 0.614160 0.623930 -0.565029
O13   O     O_R   0.385840 0.938030 0.376050 -0.568201
O14   O     O_R   0.552210 0.909840 0.500030 -0.556492
O15   O     O_R   0.447820 0.909840 0.500030 -0.579985
O16   O     O_R   0.614160 0.061970 0.623950 -0.560119
O17   O     O_R   0.509770 0.061970 0.623940 -0.557414
O18   O     O_R   0.090190 0.447820 0.500020 -0.587638
O19   O     O_R   0.090170 0.552190 0.499990 -0.578069
O20   O     O_R   0.938040 0.385840 0.376070 -0.553054
O21   O     O_R   0.938030 0.490210 0.376040 -0.568340
O22   O     O_R   0.909830 0.447810 0.500010 -0.558818
O23   O     O_R   0.909810 0.552180 0.499980 -0.581998
O24   O     O_R   0.464140 0.554340 0.428270 -0.593336
Br1   Br    Br    0.530256 0.816610 0.723089 -0.556843
O25   O     O_3   0.756815 0.516234 0.644018 -0.568068
C97   C     C_3   0.769910 0.455006 0.650092 0.053877
H44   H     H_    0.829243 0.475665 0.710601 0.179637
H45   H     H_    0.761911 0.404105 0.588916 0.151095
C98   C     C_3   0.715770 0.429281 0.663918 -0.758608
H46   H     H_    0.656286 0.405071 0.602718 0.241726
H47   H     H_    0.728655 0.384398 0.674166 0.196862
H48   H     H_    0.721807 0.478458 0.724297 0.262243
Br2   Br    Br    0.685006 0.779992 0.504706 -0.561459
Br3   Br    Br    0.729096 0.296056 0.398838 -0.590804
Br4   Br    Br    0.529598 0.733853 0.939136 -0.490206

loop_
_geom_bond_atom_site_label_1
_geom_bond_atom_site_label_2
_ccdc_geom_bond_type
Cu4   O8    S    
C66   C68   A    
C87   C88   A    
C84   H33   S    
Cu5   Cu6   S    
C32   H9    S    
C94   H38   S    
Cu1   O1    S    
C95   C96   A    
Cu3   O3    S    
C92   H36   S    
Cu6   O13   S    
C51   O5    A    
Cu1   Cu2   S    
C1    O1    A    
C45   H10   S    
C7    C8    A    
C98   H47   S    
C85   C86   A    
C26   C27   A    
C93   C94   A    
C23   C42   S    
C2    H1    S    
C36   C37   A    
C37   C38   A    
C54   O11   A    
C21   C54   S    
C12   O19   A    
C77   C83   A    
Cu4   O2    S    
C89   H40   S    
C49   O2    A    
C61   H19   S    
C18   C19   T    
C73   C74   A    
C71   Br2   S    
C92   C93   A    
C91   C96   A    
C91   H35   S    
C14   H3    S    
C74   H26   S    
C57   O17   A    
C98   H46   S    
C27   H8    S    
C97   H45   S    
C16   C17   T    
Cu1   O18   S    
C17   C18   S    
C24   C25   A    
C11   H2    S    
C24   H6    S    
C64   C70   A    
O25   C97   S    
C9    C10   A    
C61   C62   A    
C97   C98   S    
Cu6   O17   S    
C72   C73   A    
C9    H43   S    
C55   O14   A    
C40   H15   S    
C51   O6    A    
C53   O9    A    
Cu4   O6    S    
C49   C69   S    
C13   C14   A    
C53   C85   S    
C36   C41   A    
C94   C95   A    
C67   C78   A    
C84   C90   A    
C34   O23   A    
C36   H11   S    
C55   C65   S    
C44   C46   T    
C81   C82   A    
C98   H48   S    
C77   C79   A    
C78   C89   A    
C38   C39   A    
Cu3   O5    S    
C13   Br1   S    
C74   C75   A    
C56   H21   S    
C48   C57   S    
C3    H41   S    
C84   C85   A    
C45   C56   A    
C83   H28   S    
C82   Br3   S    
C3    C8    A    
C10   C11   A    
Cu6   O15   S    
C91   C92   A    
C63   H16   S    
C86   C87   A    
C4    C5    A    
C37   H12   S    
Cu5   O11   S    
C25   C26   A    
C73   H25   S    
C22   H5    S    
C72   H24   S    
C60   C61   A    
C59   H18   S    
C2    C89   A    
C75   C76   A    
C29   C30   A    
C93   H37   S    
C28   H4    S    
C54   O13   A    
C23   O21   A    
C47   C48   T    
Cu2   O12   S    
C60   C70   S    
C30   C31   A    
C52   O7    A    
C66   C76   S    
C62   C63   A    
C33   C34   S    
C1    C16   S    
C29   O25   S    
C26   H7    S    
Cu2   O21   S    
C86   C96   S    
C25   C35   S    
C40   C41   A    
C88   C90   A    
C53   O10   A    
C43   C44   S    
C22   C24   A    
C7    C12   S    
C58   C59   A    
C42   C43   T    
C6    H42   S    
C3    C4    A    
C71   C76   A    
C62   H20   S    
C64   H22   S    
C97   H44   S    
C50   O3    A    
C58   C63   A    
C30   C52   S    
C46   C47   S    
C55   O15   A    
C31   C41   S    
C9    C15   A    
C87   H34   S    
C68   C69   A    
C31   C32   A    
C77   H29   S    
C80   C81   A    
C51   C88   S    
Cu2   O19   S    
C95   H39   S    
C6    C7    A    
Cu3   O24   S    
Cu4   O4    S    
C56   C67   A    
Cu3   O7    S    
C29   C35   A    
Cu3   Cu4   S    
C23   O20   A    
C64   C65   A    
C19   C20   S    
C1    O12   A    
C52   O8    A    
C71   C72   A    
Cu1   O22   S    
C32   C33   A    
C12   O18   A    
C49   O24   A    
C38   H13   S    
C11   C13   A    
C50   O4    A    
C5    C6    A    
Cu5   O9    S    
C39   H14   S    
Cu1   O20   S    
C79   H30   S    
Cu6   O10   S    
Cu5   O16   S    
C58   H17   S    
C33   C35   A    
C65   C66   A    
C80   C90   S    
C69   C70   A    
C78   H31   S    
C5    C15   S    
C2    C45   A    
C79   C80   A    
C39   C40   A    
C59   C60   A    
C57   O16   A    
C20   C21   T    
Cu5   O14   S    
C8    C67   S    
C82   C83   A    
C4    C50   S    
C27   C28   A    
C10   Br4   S    
C14   C15   A    
C34   O22   A    
C22   C28   A    
C68   H23   S    
Cu2   O23   S    
C75   H27   S    
C81   H32   S    
