data_mof_unit_62346.cif
_audit_creation_date              2012-12-10T21:33:26-0500
_audit_creation_method            fapswitch 2.2
_symmetry_space_group_name_H-M    P1
_symmetry_Int_Tables_number       1
_space_group_crystal_system       triclinic
_cell_length_a                    14.149964
_cell_length_b                    16.206039
_cell_length_c                    16.766818
_cell_angle_alpha                 87.117404
_cell_angle_beta                  91.387679
_cell_angle_gamma                 91.854843
_cell_volume                      3837.02075423

loop_
_atom_site_label
_atom_site_type_symbol
_atom_type_description
_atom_site_fract_x
_atom_site_fract_y
_atom_site_fract_z
_atom_type_partial_charge
C1    C     C_R   0.499742 0.488427 0.652754 0.944033
C2    C     C_R   0.501794 0.511396 0.347291 0.931669
C3    C     C_R   0.443601 0.441370 0.867829 0.192050
C4    C     C_R   0.490747 0.579048 0.130151 0.187517
C5    C     C_R   0.439719 0.436265 0.784498 0.099795
C6    C     C_R   0.466843 0.570870 0.210872 0.118248
C7    C     C_R   0.449134 0.764959 0.464341 0.351769
C8    C     C_R   0.547606 0.235218 0.538958 0.327143
C9    C     C_R   0.452737 0.851699 0.466773 -0.282172
C10   C     C_R   0.544195 0.148477 0.536621 -0.284866
C11   C     C_R   0.519686 0.891400 0.516273 0.239731
C12   C     C_R   0.480585 0.108896 0.484043 0.239527
C13   C     C_R   0.581109 0.841680 0.562197 -0.303370
C14   C     C_R   0.422032 0.158683 0.435234 -0.305745
C15   C     C_R   0.576084 0.755201 0.558476 0.362023
C16   C     C_R   0.426963 0.245150 0.438789 0.361464
C17   C     C_R   0.670839 0.499661 0.500099 0.895556
C18   C     C_R   0.329164 0.500344 0.499783 0.909703
C19   C     C_1   0.772256 0.499132 0.499961 -0.138138
C20   C     C_1   0.227749 0.500896 0.499595 -0.140928
C21   C     C_1   0.857494 0.499242 0.499816 0.023153
C22   C     C_1   0.142509 0.500810 0.499500 0.022601
C23   C     C_1   0.957372 0.499764 0.499635 0.035243
C24   C     C_1   0.042629 0.500304 0.499524 0.035908
C25   C     C_R   0.507725 0.480631 0.738777 -0.115976
C26   C     C_R   0.520395 0.519272 0.262947 -0.109722
C27   C     C_R   0.581681 0.524475 0.774966 -0.296896
C28   C     C_R   0.597454 0.477657 0.235857 -0.328515
C29   C     C_R   0.586267 0.530692 0.857057 0.171165
C30   C     C_R   0.620351 0.484176 0.155705 0.175645
C31   C     C_R   0.515703 0.489026 0.904451 0.210986
C32   C     C_R   0.565584 0.533298 0.102734 0.217896
H1    H     H_    0.639469 0.439441 0.277126 0.171853
H2    H     H_    0.634845 0.556709 0.738782 0.209780
H3    H     H_    0.591013 0.112830 0.575905 0.200198
H4    H     H_    0.403137 0.887267 0.430131 0.200417
H5    H     H_    0.633434 0.870299 0.601097 0.195486
H6    H     H_    0.372135 0.130138 0.394192 0.197498
N1    N     N_2   0.510835 0.494691 0.988123 -0.098436
N2    N     N_2   0.579920 0.529527 0.020755 -0.107015
N3    N     N_R   0.510540 0.716920 0.509720 -0.131148
N4    N     N_R   0.489460 0.283080 0.490280 -0.134081
N5    N     N_2   0.527968 0.979557 0.522281 -0.144722
N6    N     N_2   0.472398 0.020737 0.478099 -0.143837
O1    O     O_R   0.496230 0.422540 0.612660 -0.578221
O2    O     O_R   0.503770 0.577460 0.387340 -0.573623
O3    O     O_R   0.503000 0.561840 0.618900 -0.589192
O4    O     O_R   0.497000 0.438160 0.381100 -0.587204
O5    O     O_R   0.622900 0.430330 0.496880 -0.574379
O6    O     O_R   0.377100 0.569670 0.503120 -0.566435
O7    O     O_R   0.629670 0.569640 0.503120 -0.570612
O8    O     O_R   0.370330 0.430360 0.496880 -0.572575
Zn1   Zn    Zn3+2 0.495480 0.406980 0.495830 1.019710
Zn2   Zn    Zn3+2 0.504520 0.593020 0.504170 1.031543
N7    N     N_2   0.697155 0.439767 0.127960 -0.293355
H7    H     H_    0.753387 0.436338 0.168212 0.232796
C33   C     C_3   0.670376 0.359549 0.098945 -0.676724
H8    H     H_    0.733565 0.330645 0.075720 0.239219
H9    H     H_    0.616972 0.365419 0.049570 0.262407
H10   H     H_    0.641091 0.318651 0.148170 0.239974
N8    N     N_2   0.659913 0.581224 0.890112 -0.285796
H11   H     H_    0.724985 0.572993 0.865699 0.242297
C34   C     C_3   0.637911 0.667753 0.890797 -0.649647
H12   H     H_    0.630958 0.694678 0.828710 0.249240
H13   H     H_    0.695635 0.701783 0.922466 0.239478
H14   H     H_    0.571002 0.675534 0.922489 0.276993
Br1   Br    Br    0.348985 0.384765 0.933023 -0.461595
Br2   Br    Br    0.419438 0.649276 0.056194 -0.483801
N9    N     N_2   0.364565 0.391914 0.745995 -0.310200
H15   H     H_    0.298650 0.401740 0.767948 0.265194
C35   C     C_3   0.381439 0.305186 0.737865 -0.639373
H16   H     H_    0.323806 0.277517 0.700782 0.231726
H17   H     H_    0.383090 0.271885 0.797397 0.258530
H18   H     H_    0.449538 0.297096 0.708183 0.269614
N10   N     N_2   0.387566 0.611413 0.239534 -0.271041
H19   H     H_    0.376338 0.669297 0.213436 0.289887
C36   C     C_3   0.302000 0.560241 0.244558 -0.627963
H20   H     H_    0.245228 0.595316 0.270726 0.251185
H21   H     H_    0.313838 0.503898 0.283560 0.240036
H22   H     H_    0.278361 0.542026 0.184061 0.259538
Br3   Br    Br    0.636162 0.282880 0.612764 -0.484063
Br4   Br    Br    0.354789 0.718077 0.395594 -0.480450
Br5   Br    Br    0.664674 0.694863 0.624202 -0.517136
Br6   Br    Br    0.342687 0.306477 0.369328 -0.468467

loop_
_geom_bond_atom_site_label_1
_geom_bond_atom_site_label_2
_ccdc_geom_bond_type
N7    H7    S    
C34   H13   S    
C27   C29   A    
N10   H19   S    
C17   O7    A    
C18   O8    A    
C6    N10   S    
C36   H20   S    
C2    O2    A    
O6    Zn2   S    
C22   C24   S    
C19   C21   T    
C8    N4    A    
N4    Zn1   S    
C33   H9    S    
C16   Br6   S    
N9    C35   S    
N8    C34   S    
C5    N9    S    
C21   C23   S    
C9    H4    S    
C23   C24   T    
C11   N5    S    
C10   H3    S    
C13   H5    S    
C32   N2    S    
C34   H14   S    
O1    Zn1   S    
C1    C25   S    
N9    H15   S    
C36   H21   S    
C27   H2    S    
O4    Zn1   S    
C29   N8    S    
C8    Br3   S    
C15   N3    A    
C4    C6    A    
C17   O5    A    
N1    N2    D    
C35   H17   S    
C1    O3    A    
C33   H10   S    
C15   Br5   S    
C2    O4    A    
N5    N6    D    
C14   H6    S    
N10   C36   S    
O2    Zn2   S    
C2    C26   S    
C3    C31   A    
C9    C11   A    
C4    C32   A    
C10   C12   A    
O3    Zn2   S    
C5    C25   A    
C12   C14   A    
C28   H1    S    
C13   C15   A    
C14   C16   A    
C16   N4    A    
O8    Zn1   S    
C18   O6    A    
C4    Br2   S    
C36   H22   S    
C7    C9    A    
C3    Br1   S    
C20   C22   T    
C3    C5    A    
C35   H18   S    
C25   C27   A    
C30   N7    S    
C26   C28   A    
O7    Zn2   S    
N7    C33   S    
C35   H16   S    
C29   C31   A    
C30   C32   A    
C11   C13   A    
C1    O1    A    
C33   H8    S    
C6    C26   A    
O5    Zn1   S    
C28   C30   A    
C17   C19   S    
C31   N1    S    
C18   C20   S    
C7    N3    A    
N8    H11   S    
N3    Zn2   S    
C34   H12   S    
C7    Br4   S    
C8    C10   A    
C12   N6    S    
