data_mof_unit_62290.cif
_audit_creation_date              2012-12-11T17:27:27-0500
_audit_creation_method            fapswitch 2.2
_symmetry_space_group_name_H-M    P1
_symmetry_Int_Tables_number       1
_space_group_crystal_system       triclinic
_cell_length_a                    6.993932
_cell_length_b                    21.216997
_cell_length_c                    22.927888
_cell_angle_alpha                 92.948996
_cell_angle_beta                  88.686203
_cell_angle_gamma                 89.721667
_cell_volume                      3396.81381316

loop_
_atom_site_label
_atom_site_type_symbol
_atom_type_description
_atom_site_fract_x
_atom_site_fract_y
_atom_site_fract_z
_atom_type_partial_charge
O1    O     O_R   0.494570 0.443040 0.441850 -0.526821
O2    O     O_R   0.823720 0.437670 0.557760 -0.528477
O3    O     O_R   0.994070 0.556960 0.558150 -0.526378
C1    C     C_R   0.653848 0.422878 0.577004 0.704806
O4    O     O_R   0.824280 0.435690 0.442260 -0.537529
O5    O     O_R   0.994640 0.554970 0.441830 -0.529080
C2    C     C_R   0.657491 0.420453 0.423073 0.735161
O6    O     O_R   0.494000 0.445030 0.558170 -0.532019
O7    O     O_3   0.660820 0.539140 0.499990 -0.368282
V1    V     V_3+5 0.935650 0.492740 0.500000 1.518736
O8    O     O_R   0.324360 0.562330 0.442240 -0.530587
C3    C     C_R   0.157006 0.576950 0.422509 0.726305
O9    O     O_R   0.323800 0.564310 0.557740 -0.527092
C4    C     C_R   0.153052 0.582163 0.579928 0.700952
V2    V     V_3+5 0.435660 0.507260 0.500000 1.516168
O10   O     O_3   0.160620 0.460860 0.500010 -0.359283
C5    C     C_1   0.139438 0.633333 0.631252 -0.174013
C6    C     C_1   0.128631 0.675036 0.673582 0.037711
C7    C     C_1   0.115859 0.724831 0.724344 0.023383
C8    C     C_1   0.105214 0.766416 0.766778 0.021339
C9    C     C_1   0.092421 0.816211 0.817540 0.031763
C10   C     C_1   0.081559 0.857915 0.859869 -0.181080
C11   C     C_R   0.290794 0.715122 0.253524 0.109856
C12   C     C_R   0.132708 0.701949 0.289813 -0.022675
C13   C     C_R   0.959114 0.731507 0.278629 0.267385
C14   C     C_R   0.937770 0.759567 0.224621 0.358303
C15   C     C_R   0.097914 0.788789 0.200651 -0.108321
C16   C     C_R   0.278289 0.765491 0.214836 0.357658
C17   C     C_1   0.145598 0.658241 0.337105 0.188487
C18   C     C_1   0.078501 0.832752 0.153735 0.211127
C19   C     C_1   0.069599 0.869650 0.114811 -0.098941
C20   C     C_1   0.151539 0.621473 0.376201 -0.126402
C21   C     C_R   0.456415 0.247532 0.786670 0.307258
C22   C     C_R   0.598517 0.200434 0.788800 -0.083169
C23   C     C_R   0.751751 0.198784 0.747801 0.118168
C24   C     C_R   0.763245 0.244336 0.704967 0.354911
C25   C     C_R   0.620801 0.291316 0.702716 -0.145989
C26   C     C_R   0.467091 0.292654 0.743625 0.349291
C27   C     C_1   0.587650 0.153584 0.833066 0.177925
C28   C     C_1   0.632237 0.338055 0.658369 0.213722
C29   C     C_1   0.641937 0.376844 0.621353 -0.099842
C30   C     C_1   0.578295 0.114707 0.870007 -0.134231
C31   C     C_R   0.455470 0.249351 0.207430 0.115942
C32   C     C_R   0.593244 0.201292 0.199819 -0.077024
C33   C     C_R   0.747805 0.197284 0.237386 0.381850
C34   C     C_R   0.764922 0.241905 0.283575 0.104245
C35   C     C_R   0.627185 0.290274 0.291262 -0.094259
C36   C     C_R   0.473025 0.294488 0.253515 0.351261
C37   C     C_1   0.576915 0.155959 0.152909 0.166322
C38   C     C_1   0.642947 0.335596 0.338224 0.093311
C39   C     C_1   0.652099 0.374155 0.377364 -0.124777
C40   C     C_1   0.567603 0.117341 0.113820 -0.113545
O11   O     O_R   0.726340 0.046440 0.933120 -0.535421
O12   O     O_R   0.395690 0.055650 0.048950 -0.531017
O13   O     O_R   0.225700 0.936320 0.049330 -0.526737
C41   C     C_R   0.562389 0.070965 0.068168 0.738403
O14   O     O_R   0.396600 0.053690 0.933450 -0.532041
O15   O     O_R   0.226620 0.934340 0.933010 -0.528540
C42   C     C_R   0.566475 0.068575 0.914275 0.701883
O16   O     O_R   0.725420 0.048420 0.049440 -0.528448
O17   O     O_3   0.559650 0.952270 0.991250 -0.366177
V3    V     V_3+5 0.284670 0.998570 0.991180 1.520696
O18   O     O_R   0.896930 0.926880 0.933340 -0.528257
C43   C     C_R   0.067761 0.909083 0.911192 0.689579
O19   O     O_R   0.896010 0.928840 0.048840 -0.526884
C44   C     C_R   0.063401 0.914284 0.068612 0.728016
V4    V     V_3+5 0.784710 0.983880 0.991060 1.517032
O20   O     O_3   0.059600 0.030370 0.991120 -0.359788
Cl1   Cl    Cl    0.481719 0.799837 0.183658 -0.561321
N1    N     N_3   0.299208 0.251802 0.168078 -0.599809
H1    H     H_    0.303892 0.294996 0.148127 0.279707
H2    H     H_    0.171218 0.249813 0.192360 0.296234
Cl2   Cl    Cl    0.920902 0.136412 0.227093 -0.576044
N2    N     N_3   0.922018 0.237467 0.322379 -0.560676
H3    H     H_    0.866848 0.232982 0.364722 0.246238
H4    H     H_    0.999754 0.279376 0.321750 0.271282
N3    N     N_3   0.455531 0.675386 0.253889 -0.575221
H5    H     H_    0.572847 0.704378 0.258012 0.334507
H6    H     H_    0.467370 0.651482 0.212945 0.293003
Cl3   Cl    Cl    0.792172 0.746422 0.336502 -0.593148
Cl4   Cl    Cl    0.828450 0.710490 0.170978 -0.564208
Cl5   Cl    Cl    0.286833 0.351087 0.741075 -0.497150
Cl6   Cl    Cl    0.264412 0.250300 0.838262 -0.537991
N4    N     N_3   0.894871 0.150336 0.749871 -0.617890
H7    H     H_    0.027963 0.171800 0.755137 0.304929
H8    H     H_    0.897431 0.124255 0.709912 0.265456
Cl7   Cl    Cl    0.957205 0.242125 0.654056 -0.589141
Cl8   Cl    Cl    0.302220 0.356162 0.263565 -0.644587

loop_
_geom_bond_atom_site_label_1
_geom_bond_atom_site_label_2
_ccdc_geom_bond_type
C32   C37   S    
O15   V3    S    
C19   C44   S    
C13   Cl3   S    
C7    C8    T    
C1    O6    A    
O11   C42   A    
O14   V3    S    
N3    H5    S    
C14   C15   A    
N2    H4    S    
C24   C25   A    
N4    H8    S    
C22   C23   A    
C25   C28   S    
O5    C3    A    
C18   C19   T    
O14   C42   A    
C1    C29   S    
V2    O10   S    
O13   V3    S    
C33   Cl2   S    
C6    C7    S    
C12   C17   S    
O8    V2    S    
C16   Cl1   S    
O16   V4    S    
O19   V4    S    
C11   C12   A    
C36   Cl8   S    
N1    H1    S    
O1    V2    S    
C27   C30   T    
C31   C36   A    
O9    C4    A    
C3    C20   S    
C15   C18   S    
C4    C5    S    
C21   C22   A    
C35   C38   S    
O12   C41   A    
N3    H6    S    
C24   Cl7   S    
O15   C43   A    
O18   V4    S    
N2    H3    S    
V4    O20   S    
C12   C13   A    
O4    C2    A    
O6    V2    S    
O12   V3    S    
C38   C39   T    
C13   C14   A    
C33   C34   A    
C11   N3    S    
C22   C27   S    
C23   C24   A    
O2    C1    A    
C31   C32   A    
C25   C26   A    
O17   V4    S    
C35   C36   A    
O8    C3    A    
C37   C40   T    
C5    C6    T    
C11   C16   A    
N4    H7    S    
C21   Cl6   S    
O3    C4    A    
C28   C29   T    
C31   N1    S    
O9    V2    S    
C14   Cl4   S    
O2    V1    S    
C34   N2    S    
O13   C44   A    
C32   C33   A    
O7    V1    S    
C34   C35   A    
O1    C2    A    
C30   C42   S    
O5    V1    S    
C23   N4    S    
C17   C20   T    
C21   C26   A    
V3    O20   S    
O7    V2    S    
C2    C39   S    
O4    V1    S    
O3    V1    S    
V1    O10   S    
O17   V3    S    
O11   V4    S    
C10   C43   S    
O18   C43   A    
C41   O16   A    
C8    C9    S    
O19   C44   A    
C15   C16   A    
N1    H2    S    
C9    C10   T    
C26   Cl5   S    
C40   C41   S    
