data_mof_unit_28163.cif
_audit_creation_date              2012-12-10T17:32:13-0500
_audit_creation_method            fapswitch 2.2
_symmetry_space_group_name_H-M    P1
_symmetry_Int_Tables_number       1
_space_group_crystal_system       triclinic
_cell_length_a                    12.315499
_cell_length_b                    13.194276
_cell_length_c                    15.064713
_cell_angle_alpha                 77.490453
_cell_angle_beta                  101.370906
_cell_angle_gamma                 116.616789
_cell_volume                      2122.44484522

loop_
_atom_site_label
_atom_site_type_symbol
_atom_type_description
_atom_site_fract_x
_atom_site_fract_y
_atom_site_fract_z
_atom_type_partial_charge
C1    C     C_R   0.854861 0.286594 0.508006 0.776871
C2    C     C_R   0.904658 0.511931 0.075428 0.108674
C3    C     C_R   0.186982 0.471339 0.081625 -0.215218
C4    C     C_R   0.186663 0.471187 0.989077 -0.215347
C5    C     C_R   0.093040 0.484581 0.924868 0.107203
C6    C     C_R   0.998631 0.498090 0.953622 0.063092
C7    C     C_R   0.904024 0.511634 0.889406 0.108880
C8    C     C_R   0.810519 0.524831 0.918677 -0.214550
C9    C     C_R   0.810850 0.525006 0.011239 -0.216189
C10   C     C_R   0.092354 0.484939 0.832286 -0.247534
C11   C     C_R   0.998719 0.498849 0.768172 -0.073793
C12   C     C_R   0.999432 0.499550 0.671224 0.811773
C13   C     C_R   0.904713 0.511926 0.796970 -0.253109
C14   C     C_R   0.275276 0.021278 0.377354 -0.190390
C15   C     C_R   0.227943 0.834481 0.467404 -0.048981
C16   C     C_R   0.815626 0.085316 0.567915 -0.187663
C17   C     C_R   0.736918 0.970372 0.585770 -0.145346
C18   C     C_R   0.613502 0.932617 0.553414 -0.182346
C19   C     C_R   0.566619 0.009407 0.498923 0.079586
C20   C     C_R   0.650069 0.123864 0.471845 0.082220
C21   C     C_R   0.439887 0.976095 0.469550 0.073291
C22   C     C_R   0.400101 0.053287 0.406889 0.166862
C23   C     C_R   0.145104 0.713403 0.486464 0.802010
C24   C     C_R   0.485419 0.160456 0.372659 -0.240663
C25   C     C_R   0.608638 0.194671 0.403492 -0.197338
C26   C     C_R   0.351067 0.868482 0.501247 -0.252303
C27   C     C_R   0.189494 0.911914 0.406987 -0.194177
C28   C     C_R   0.773084 0.163636 0.513143 -0.102134
C29   C     C_R   0.347578 0.329284 0.646563 -0.302523
C30   C     C_R   0.759031 0.645056 0.375685 0.070262
C31   C     C_R   0.662226 0.676533 0.348818 -0.257001
C32   C     C_R   0.558991 0.621883 0.395547 -0.196009
C33   C     C_R   0.551301 0.534497 0.470308 -0.006500
C34   C     C_R   0.000230 0.499963 0.328809 0.807456
C35   C     C_R   0.653130 0.505316 0.495458 0.289506
C36   C     C_R   0.447103 0.475252 0.521094 -0.037774
C37   C     C_R   0.447367 0.388671 0.595527 0.177888
C38   C     C_R   0.547228 0.361766 0.618910 -0.287973
C39   C     C_R   0.647613 0.418770 0.570191 -0.191164
C40   C     C_R   0.341824 0.497657 0.501771 0.015635
C41   C     C_R   0.247352 0.355565 0.624114 0.066814
C42   C     C_R   0.905861 0.512404 0.167954 -0.252696
C43   C     C_R   0.999980 0.499262 0.231967 -0.072105
C44   C     C_R   0.093492 0.485405 0.203203 -0.246972
C45   C     C_R   0.093664 0.484860 0.110857 0.107940
C46   C     C_R   0.998949 0.498233 0.046675 0.062945
Cu1   Cu    Cu3+1 0.098270 0.475420 0.521130 0.933128
Cu2   Cu    Cu3+1 0.901730 0.524580 0.478870 0.921653
H1    H     H_    0.833221 0.522818 0.189960 0.154330
H2    H     H_    0.456833 0.218291 0.321737 0.143361
H3    H     H_    0.244457 0.079753 0.329348 0.133880
H4    H     H_    0.375033 0.808249 0.551868 0.147955
H5    H     H_    0.909634 0.113331 0.598950 0.152037
H6    H     H_    0.558089 0.842298 0.570575 0.129417
H7    H     H_    0.771058 0.910540 0.627423 0.142529
H8    H     H_    0.670775 0.276228 0.370899 0.175222
H9    H     H_    0.169992 0.310050 0.663201 0.120563
H10   H     H_    0.548067 0.295746 0.675891 0.154483
H11   H     H_    0.166433 0.475428 0.252483 0.154338
H12   H     H_    0.333592 0.561798 0.446424 0.122690
H13   H     H_    0.838786 0.688027 0.339055 0.123789
H14   H     H_    0.486897 0.649766 0.371807 0.135641
H15   H     H_    0.667237 0.743581 0.291561 0.144947
H16   H     H_    0.719124 0.391853 0.594098 0.208294
H17   H     H_    0.260158 0.461000 0.130292 0.141871
H18   H     H_    0.259618 0.460735 0.967692 0.141033
H19   H     H_    0.165185 0.474813 0.810295 0.155838
H20   H     H_    0.831971 0.522213 0.747639 0.159815
H21   H     H_    0.737343 0.535160 0.870002 0.144477
H22   H     H_    0.737911 0.535478 0.032624 0.141058
H23   H     H_    0.094235 0.886496 0.379895 0.148125
N1    N     N_R   0.246280 0.438190 0.553160 -0.179614
N2    N     N_R   0.754320 0.561190 0.447410 -0.206724
O1    O     O_R   0.972510 0.318130 0.526570 -0.579051
O2    O     O_R   0.806530 0.359650 0.490890 -0.604631
O3    O     O_R   0.082980 0.479210 0.647590 -0.587344
O4    O     O_R   0.917000 0.520730 0.611900 -0.602203
O5    O     O_R   0.193470 0.640350 0.509110 -0.587408
O6    O     O_R   0.027490 0.681870 0.473430 -0.585347
O7    O     O_R   0.083000 0.479270 0.388100 -0.586854
O8    O     O_R   0.917020 0.520790 0.352410 -0.599350
H24   H     H_    0.347187 0.262968 0.703537 0.136936

loop_
_geom_bond_atom_site_label_1
_geom_bond_atom_site_label_2
_ccdc_geom_bond_type
C16   C28   A    
C21   C26   A    
C40   H12   S    
C19   C20   A    
C25   H8    S    
C7    C8    A    
C10   H19   S    
C2    C46   A    
C39   H16   S    
C8    H21   S    
C1    O1    A    
Cu2   O6    S    
C36   C37   A    
C19   C21   A    
Cu1   O3    S    
C5    C6    A    
C20   C25   A    
C44   H11   S    
C33   C36   A    
Cu2   O8    S    
C18   C19   A    
C16   H5    S    
C34   O7    A    
C38   H10   S    
Cu1   Cu2   S    
C8    C9    A    
C1    C28   S    
C34   O8    A    
C14   C27   A    
C40   N1    A    
C17   H7    S    
C15   C23   S    
C21   C22   A    
Cu2   O2    S    
C3    H17   S    
Cu1   O7    S    
C24   H2    S    
C38   C39   A    
C1    O2    A    
C31   H15   S    
C36   C40   A    
C24   C25   A    
C30   N2    A    
C16   C17   A    
C15   C26   A    
C20   C28   A    
C45   C46   A    
C3    C45   A    
Cu2   O4    S    
C35   C39   A    
C43   C44   A    
C37   C38   A    
C26   H4    S    
C15   C27   A    
C14   H3    S    
C7    C13   A    
C12   O4    A    
C17   C18   A    
C9    H22   S    
C41   N1    A    
C12   O3    A    
C22   C24   A    
C42   C43   A    
C3    C4    A    
C27   H23   S    
C44   C45   A    
C35   N2    A    
C6    C46   A    
C29   C41   A    
Cu2   N2    S    
C31   C32   A    
C34   C43   S    
Cu1   O1    S    
C4    C5    A    
C11   C12   S    
C6    C7    A    
C32   C33   A    
C14   C22   A    
C41   H9    S    
C29   H24   S    
C4    H18   S    
C11   C13   A    
C30   C31   A    
C2    C42   A    
C33   C35   A    
C23   O5    A    
Cu1   N1    S    
C10   C11   A    
C18   H6    S    
C42   H1    S    
C32   H14   S    
C5    C10   A    
C30   H13   S    
C29   C37   A    
Cu1   O5    S    
C23   O6    A    
C2    C9    A    
C13   H20   S    
