data_mof_unit_59739.cif
_audit_creation_date              2012-12-10T20:49:26-0500
_audit_creation_method            fapswitch 2.2
_symmetry_space_group_name_H-M    P1
_symmetry_Int_Tables_number       1
_space_group_crystal_system       triclinic
_cell_length_a                    15.758771
_cell_length_b                    8.952649
_cell_length_c                    8.112327
_cell_angle_alpha                 89.960454
_cell_angle_beta                  89.856514
_cell_angle_gamma                 90.175196
_cell_volume                      1144.50014695

loop_
_atom_site_label
_atom_site_type_symbol
_atom_type_description
_atom_site_fract_x
_atom_site_fract_y
_atom_site_fract_z
_atom_type_partial_charge
C1    C     C_1   0.499993 0.065150 0.500051 -0.177066
C2    C     C_3   0.973099 0.598612 0.610674 0.501390
C3    C     C_1   0.248744 0.497397 0.500951 -0.156850
C4    C     C_1   0.751256 0.502575 0.499050 -0.156982
C5    C     C_3   0.026696 0.459789 0.655020 -0.512764
C6    C     C_3   0.973311 0.540104 0.344996 -0.512309
C7    C     C_3   0.082962 0.496618 0.503113 -0.083173
C8    C     C_3   0.917037 0.503289 0.496899 -0.083359
C9    C     C_1   0.173628 0.496178 0.502032 0.101187
C10   C     C_1   0.826373 0.503764 0.497972 0.101047
C11   C     C_3   0.000613 0.251102 0.165206 -0.313582
C12   C     C_1   0.500007 0.934850 0.499949 -0.177070
C13   C     C_3   0.999419 0.748662 0.834935 -0.313039
C14   C     C_3   0.988361 0.134749 0.658220 -0.284759
C15   C     C_3   0.010730 0.865958 0.344367 -0.282261
C16   C     C_R   0.499981 0.217967 0.500036 0.934917
C17   C     C_R   0.500019 0.782033 0.499964 0.934903
C18   C     C_R   0.337472 0.499363 0.500200 0.893485
C19   C     C_R   0.662528 0.500637 0.499800 0.893428
C20   C     C_3   0.970523 0.365160 0.538272 0.489637
C21   C     C_3   0.029469 0.634732 0.461743 0.489125
C22   C     C_3   0.026902 0.401280 0.389364 0.502264
H1    H     H_    0.948876 0.572177 0.221797 0.180265
H2    H     H_    0.051957 0.128510 0.598546 0.188274
H3    H     H_    0.961769 0.020280 0.662965 0.224237
H4    H     H_    0.947642 0.871662 0.406145 0.188780
H5    H     H_    0.003779 0.827139 0.215103 0.151071
H6    H     H_    0.037275 0.980488 0.340081 0.224879
H7    H     H_    0.051187 0.427763 0.778191 0.180158
H8    H     H_    0.986959 0.343319 0.077477 0.171510
H9    H     H_    0.941171 0.211903 0.226007 0.190252
H10   H     H_    0.026161 0.156424 0.092513 0.171165
H11   H     H_    0.058811 0.788074 0.774114 0.190272
H12   H     H_    0.013161 0.656344 0.922480 0.171876
H13   H     H_    0.973844 0.843156 0.907888 0.170910
H14   H     H_    0.994145 0.174815 0.787211 0.151613
N1    N     N_1   0.500010 0.500000 0.073640 -0.026337
N2    N     N_1   0.499990 0.500000 0.926360 -0.026338
O1    O     O_R   0.500000 0.285340 0.636850 -0.614837
O2    O     O_3   0.937755 0.704770 0.719176 -0.597253
O3    O     O_3   0.932063 0.225402 0.568843 -0.604129
O4    O     O_3   0.067838 0.774485 0.430756 -0.603973
O5    O     O_R   0.500000 0.714660 0.363150 -0.614832
O6    O     O_R   0.500000 0.285340 0.363150 -0.614499
O7    O     O_R   0.500000 0.714660 0.636850 -0.614505
O8    O     O_R   0.376770 0.500000 0.636850 -0.617015
O9    O     O_R   0.623230 0.500000 0.363150 -0.617036
O10   O     O_R   0.376780 0.500000 0.363100 -0.607291
O11   O     O_R   0.623220 0.500000 0.636900 -0.607336
O12   O     O_3   0.062264 0.295082 0.280944 -0.596577
Zn1   Zn    Zn3+2 0.499990 0.500000 0.682780 1.009257
Zn2   Zn    Zn3+2 0.500010 0.500000 0.317220 1.009271

loop_
_geom_bond_atom_site_label_1
_geom_bond_atom_site_label_2
_ccdc_geom_bond_type
C12   C17   S    
O1    Zn1   S    
C17   O5    A    
C13   H11   S    
O9    Zn2   S    
C3    C9    T    
C7    C22   S    
C5    C7    S    
C19   O11   A    
C15   H5    S    
C22   O12   S    
O6    Zn2   S    
C2    C21   S    
C20   O3    S    
C11   H9    S    
C13   H12   S    
C11   O12   S    
C4    C19   S    
C13   O2    S    
C15   H6    S    
C8    C20   S    
C1    C12   T    
C14   O3    S    
C6    H1    S    
C18   O8    A    
N1    N2    T    
C20   C22   S    
C11   H10   S    
C13   H13   S    
C5    H7    S    
C14   H3    S    
C14   H14   S    
C5    C20   S    
O5    Zn2   S    
C2    C5    S    
O7    Zn1   S    
C16   O1    A    
C4    C10   T    
C21   O4    S    
C6    C22   S    
C2    O2    S    
O10   Zn2   S    
C15   O4    S    
C3    C18   S    
C8    C10   S    
C1    C16   S    
C19   O9    A    
C14   H2    S    
C7    C9    S    
N1    Zn2   S    
C16   O6    A    
C15   H4    S    
C6    C8    S    
N2    Zn1   S    
C7    C21   S    
C6    C21   S    
O8    Zn1   S    
C2    C8    S    
C11   H8    S    
C17   O7    A    
O11   Zn1   S    
C18   O10   A    
