data_mof_unit_24501.cif
_audit_creation_date              2012-12-10T17:46:57-0500
_audit_creation_method            fapswitch 2.2
_symmetry_space_group_name_H-M    P1
_symmetry_Int_Tables_number       1
_space_group_crystal_system       triclinic
_cell_length_a                    10.037603
_cell_length_b                    10.624208
_cell_length_c                    13.535067
_cell_angle_alpha                 91.98298
_cell_angle_beta                  82.857446
_cell_angle_gamma                 91.183378
_cell_volume                      1431.14773473

loop_
_atom_site_label
_atom_site_type_symbol
_atom_type_description
_atom_site_fract_x
_atom_site_fract_y
_atom_site_fract_z
_atom_type_partial_charge
C1    C     C_R   0.504422 0.736730 0.483852 0.909618
C2    C     C_R   0.634467 0.934489 0.465242 0.168522
C3    C     C_R   0.618630 0.058032 0.500065 0.081920
C4    C     C_R   0.475795 0.501566 0.685323 0.926952
C5    C     C_R   0.505533 0.123684 0.475730 -0.203104
C6    C     C_R   0.854201 0.603975 0.670894 0.407987
C7    C     C_R   0.906848 0.594154 0.762780 0.109154
C8    C     C_R   0.017728 0.518002 0.766924 -0.238300
C9    C     C_R   0.086336 0.465718 0.679461 0.188191
C10   C     C_R   0.055117 0.508510 0.587431 -0.021088
C11   C     C_R   0.918884 0.540633 0.583786 -0.027043
C12   C     C_1   0.458147 0.507874 0.789489 -0.148621
C13   C     C_R   0.940600 0.457778 0.418629 0.107045
C14   C     C_R   0.083456 0.467742 0.416359 0.388349
C15   C     C_R   0.500058 0.258950 0.495628 0.859000
C16   C     C_R   0.524181 0.497810 0.314636 0.870492
C17   C     C_1   0.541537 0.484293 0.210683 -0.156782
C18   C     C_2   0.550118 0.459578 0.018998 0.412422
C19   C     C_2   0.451429 0.516008 0.981491 -0.254017
C20   C     C_1   0.449432 0.512956 0.877619 0.074374
C21   C     C_1   0.550789 0.471120 0.122807 -0.031807
C22   C     C_3   0.842641 0.657463 0.858349 -0.322836
C23   C     C_R   0.312436 0.860579 0.366974 -0.135659
C24   C     C_3   0.908880 0.785480 0.875906 -0.822448
C25   C     C_3   0.150201 0.338339 0.685966 -0.359303
C26   C     C_3   0.051616 0.242054 0.737377 -0.879520
C27   C     C_3   0.774609 0.884388 0.429320 -0.331246
C28   C     C_3   0.784966 0.835524 0.321159 -0.895289
C29   C     C_3   0.707045 0.105803 0.577947 -0.328894
C30   C     C_3   0.838543 0.168887 0.533176 -0.833090
C31   C     C_3   0.884080 0.387574 0.333020 -0.311542
C32   C     C_3   0.883932 0.468438 0.241241 -0.742532
C33   C     C_R   0.215621 0.924790 0.324273 -0.156991
C34   C     C_R   0.218948 0.055499 0.324866 -0.128964
C35   C     C_R   0.317066 0.122267 0.370326 -0.126317
C36   C     C_R   0.410209 0.059760 0.421017 0.052144
C37   C     C_R   0.410340 0.927124 0.415941 0.067032
C38   C     C_R   0.516333 0.865967 0.452559 -0.205086
Cl1   Cl    Cl    0.743402 0.728172 0.663687 -0.680737
Cl2   Cl    Cl    0.178697 0.412861 0.305688 -0.697043
Cl3   Cl    Cl    0.676059 0.370970 0.946674 -0.660929
H1    H     H_    0.374656 0.568576 0.028618 0.144594
H2    H     H_    0.733092 0.668793 0.857230 0.250750
H3    H     H_    0.853104 0.597847 0.922741 0.224631
H4    H     H_    0.953892 0.243048 0.707460 0.279417
H5    H     H_    0.093852 0.146139 0.725401 0.256583
H6    H     H_    0.034158 0.263115 0.818865 0.281626
H7    H     H_    0.183369 0.299388 0.610362 0.244690
H8    H     H_    0.236573 0.345913 0.729536 0.217324
H9    H     H_    0.714105 0.755397 0.313036 0.262555
H10   H     H_    0.762055 0.911946 0.272190 0.264010
H11   H     H_    0.888528 0.802797 0.296619 0.243416
H12   H     H_    0.046651 0.494233 0.838447 0.174479
H13   H     H_    0.852254 0.959180 0.431197 0.210733
H14   H     H_    0.805654 0.810835 0.476801 0.269562
H15   H     H_    0.843491 0.175872 0.451359 0.244996
H16   H     H_    0.847286 0.265070 0.566228 0.264385
H17   H     H_    0.926091 0.114307 0.549363 0.240558
H18   H     H_    0.650291 0.171102 0.632969 0.212256
H19   H     H_    0.731565 0.025645 0.622937 0.228048
H20   H     H_    0.844775 0.563615 0.262397 0.255430
H21   H     H_    0.986024 0.480103 0.200800 0.278554
H22   H     H_    0.820731 0.421542 0.188714 0.250632
H23   H     H_    0.314011 0.759478 0.355533 0.171383
H24   H     H_    0.942654 0.301402 0.310895 0.195565
H25   H     H_    0.784143 0.347339 0.356969 0.238173
H26   H     H_    0.141734 0.872937 0.286573 0.143292
H27   H     H_    0.147689 0.105331 0.287467 0.167399
H28   H     H_    0.322581 0.221914 0.360274 0.217920
H29   H     H_    0.017366 0.774132 0.881815 0.252338
H30   H     H_    0.897815 0.848788 0.813958 0.291895
H31   H     H_    0.860436 0.829757 0.946474 0.251175
N1    N     N_R   0.857120 0.501200 0.500900 -0.134988
N2    N     N_R   0.142720 0.501280 0.500940 -0.147243
O1    O     O_R   0.385310 0.683220 0.500000 -0.616022
O2    O     O_R   0.614640 0.683250 0.500010 -0.552373
O3    O     O_R   0.368830 0.499960 0.640340 -0.630668
O4    O     O_R   0.598160 0.499980 0.640350 -0.558300
O5    O     O_R   0.385360 0.316750 0.499990 -0.639000
O6    O     O_R   0.614690 0.316780 0.500000 -0.611575
O7    O     O_R   0.401840 0.500020 0.359650 -0.548649
O8    O     O_R   0.631170 0.500040 0.359660 -0.640551
Zn1   Zn    Zn3+2 0.346870 0.499980 0.499990 0.965688
Zn2   Zn    Zn3+2 0.653130 0.500020 0.500010 0.961296

loop_
_geom_bond_atom_site_label_1
_geom_bond_atom_site_label_2
_ccdc_geom_bond_type
C31   H25   S    
C30   H16   S    
C18   C21   S    
C10   N2    A    
C19   C20   S    
N2    Zn1   S    
O6    Zn2   S    
O2    Zn2   S    
C27   H13   S    
C24   H29   S    
C7    C8    A    
C24   H31   S    
C37   C38   A    
C14   N2    A    
C36   C37   A    
C32   H20   S    
C34   C35   A    
C28   H10   S    
C27   H14   S    
O3    Zn1   S    
C5    C36   A    
C18   C19   D    
C3    C29   S    
C26   H4    S    
C28   H9    S    
C22   H3    S    
C29   H18   S    
C8    C9    A    
C23   C33   A    
C2    C27   S    
C4    C12   S    
C9    C10   A    
N1    Zn2   S    
C19   H1    S    
C13   C14   A    
O7    Zn1   S    
C15   O5    A    
C9    C25   S    
C1    O1    A    
C11   N1    A    
C18   Cl3   S    
C34   H27   S    
C6    C11   A    
C16   C17   S    
C25   C26   S    
C23   C37   A    
C30   H15   S    
C17   C21   T    
C35   C36   A    
C4    O4    A    
C29   C30   S    
C2    C38   A    
C15   O6    A    
C29   H19   S    
C12   C20   T    
C16   O8    A    
C33   C34   A    
C25   H7    S    
C1    C38   S    
C26   H6    S    
C23   H23   S    
C13   N1    A    
O8    Zn2   S    
C22   C24   S    
C33   H26   S    
C31   H24   S    
C1    O2    A    
C13   C31   S    
C31   C32   S    
C32   H22   S    
C3    C5    A    
C8    H12   S    
C6    C7    A    
C7    C22   S    
C2    C3    A    
C32   H21   S    
C4    O3    A    
O5    Zn1   S    
C28   H11   S    
O1    Zn1   S    
C30   H17   S    
C16   O7    A    
C25   H8    S    
C5    C15   S    
C10   C11   A    
C26   H5    S    
C14   Cl2   S    
O4    Zn2   S    
C35   H28   S    
C27   C28   S    
C6    Cl1   S    
C22   H2    S    
C24   H30   S    
