data_mof_unit_63228.cif
_audit_creation_date              2012-12-10T20:11:51-0500
_audit_creation_method            fapswitch 2.2
_symmetry_space_group_name_H-M    P1
_symmetry_Int_Tables_number       1
_space_group_crystal_system       triclinic
_cell_length_a                    13.645146
_cell_length_b                    18.498608
_cell_length_c                    19.307719
_cell_angle_alpha                 89.823191
_cell_angle_beta                  91.195968
_cell_angle_gamma                 82.761425
_cell_volume                      4833.60571999

loop_
_atom_site_label
_atom_site_type_symbol
_atom_type_description
_atom_site_fract_x
_atom_site_fract_y
_atom_site_fract_z
_atom_type_partial_charge
C1    C     C_R   0.500352 0.499835 0.634373 0.953908
C2    C     C_R   0.410707 0.507432 0.034297 0.372637
C3    C     C_R   0.502211 0.498821 0.928404 -0.179221
C4    C     C_R   0.500834 0.500002 0.071618 -0.180122
C5    C     C_R   0.438378 0.278221 0.456326 0.466331
C6    C     C_R   0.561511 0.721785 0.543762 0.465569
C7    C     C_R   0.438545 0.202363 0.456345 -0.240185
C8    C     C_R   0.561430 0.797643 0.543709 -0.236479
C9    C     C_R   0.501643 0.157821 0.501204 0.036046
C10   C     C_R   0.498756 0.842172 0.498574 0.037677
C11   C     C_R   0.565560 0.191022 0.546304 -0.020755
C12   C     C_R   0.499782 0.500131 0.365625 0.955198
C13   C     C_R   0.435204 0.808929 0.453224 -0.027575
C14   C     C_R   0.563403 0.268197 0.544303 0.417940
C15   C     C_R   0.436811 0.731809 0.455565 0.419292
C16   C     C_R   0.685837 0.486856 0.500066 0.924798
C17   C     C_R   0.314163 0.513146 0.499931 0.925008
C18   C     C_R   0.448332 0.042973 0.549929 -0.278190
C19   C     C_R   0.552118 0.957060 0.450190 -0.288569
C20   C     C_R   0.448549 0.966887 0.550890 0.407482
C21   C     C_R   0.552246 0.033097 0.449430 0.417854
C22   C     C_R   0.500046 0.923085 0.500401 -0.026588
C23   C     C_R   0.500461 0.434468 0.254440 -0.181930
C24   C     C_R   0.500052 0.076953 0.499547 -0.032580
C25   C     C_1   0.210594 0.523446 0.500241 -0.066250
C26   C     C_1   0.789407 0.476569 0.499722 -0.062795
C27   C     C_2   0.019199 0.531551 0.500981 0.287738
C28   C     C_2   0.980799 0.468494 0.498913 0.289163
C29   C     C_1   0.877055 0.470176 0.499334 0.096418
C30   C     C_1   0.122945 0.529858 0.500594 0.093692
C31   C     C_R   0.498856 0.566033 0.254043 -0.189775
C32   C     C_R   0.503085 0.433492 0.745784 -0.195035
C33   C     C_R   0.499070 0.566266 0.182249 0.431909
C34   C     C_R   0.500627 0.565134 0.745738 -0.183303
C35   C     C_R   0.503877 0.432930 0.817579 0.431784
C36   C     C_R   0.500120 0.500177 0.146651 0.011007
C37   C     C_R   0.502814 0.498901 0.853370 0.014591
C38   C     C_R   0.500697 0.434161 0.182684 0.431728
C39   C     C_R   0.501386 0.565115 0.817516 0.430768
C40   C     C_3   0.636516 0.145048 0.595462 -0.348078
C41   C     C_3   0.596093 0.146121 0.669068 -0.357231
C42   C     C_3   0.666562 0.099281 0.718337 -0.684874
C43   C     C_3   0.364434 0.854929 0.403992 -0.364787
C44   C     C_3   0.262633 0.873042 0.436249 -0.320531
C45   C     C_R   0.499642 0.500251 0.290372 -0.182650
C46   C     C_3   0.190914 0.918722 0.386904 -0.725417
C47   C     C_R   0.501300 0.499483 0.709629 -0.178753
C48   C     C_R   0.591652 0.491928 0.037834 0.366703
C49   C     C_R   0.411398 0.506828 0.962193 0.366657
C50   C     C_R   0.592342 0.491342 0.965720 0.372788
Cl1   Cl    Cl    0.053661 0.382623 0.495436 -0.489540
Cl2   Cl    Cl    0.500193 0.648744 0.861166 -0.424634
Cl3   Cl    Cl    0.704318 0.482547 0.085951 -0.380800
Cl4   Cl    Cl    0.298713 0.516173 0.914089 -0.382124
Cl5   Cl    Cl    0.705855 0.481363 0.922015 -0.367145
Cl6   Cl    Cl    0.297173 0.517459 0.077987 -0.365747
Cl7   Cl    Cl    0.357343 0.329991 0.398126 -0.486193
Cl8   Cl    Cl    0.642321 0.670023 0.602105 -0.487611
Cl9   Cl    Cl    0.946346 0.617425 0.504452 -0.494882
Cl10  Cl    Cl    0.645124 0.310089 0.598302 -0.568254
Cl11  Cl    Cl    0.355326 0.689936 0.401356 -0.567348
Cl12  Cl    Cl    0.382970 0.928037 0.615902 -0.541679
Cl13  Cl    Cl    0.619810 0.071850 0.385507 -0.508357
Cl14  Cl    Cl    0.498147 0.649965 0.138255 -0.442622
Cl15  Cl    Cl    0.505904 0.348971 0.861302 -0.463297
Cl16  Cl    Cl    0.501885 0.350387 0.139287 -0.424075
H1    H     H_    0.407674 0.075781 0.588726 0.203396
H2    H     H_    0.676577 0.041753 0.700731 0.261527
H3    H     H_    0.739492 0.120016 0.720793 0.276208
H4    H     H_    0.585130 0.202749 0.689024 0.275536
H5    H     H_    0.523442 0.124982 0.668536 0.237134
H6    H     H_    0.650495 0.087741 0.577674 0.215361
H7    H     H_    0.709920 0.165085 0.595683 0.256539
H8    H     H_    0.219098 0.970955 0.374572 0.265287
H9    H     H_    0.180940 0.888451 0.338186 0.283450
H10   H     H_    0.118017 0.931010 0.411650 0.269227
H11   H     H_    0.231623 0.822023 0.449082 0.274665
H12   H     H_    0.592333 0.924238 0.411164 0.214376
H13   H     H_    0.269814 0.904049 0.484872 0.261861
H14   H     H_    0.393314 0.906353 0.390093 0.213648
H15   H     H_    0.357590 0.826186 0.354046 0.257013
H16   H     H_    0.498202 0.617238 0.281208 0.224358
H17   H     H_    0.503741 0.382361 0.718487 0.217872
H18   H     H_    0.501113 0.383246 0.281891 0.230008
H19   H     H_    0.499293 0.616491 0.718411 0.229428
H20   H     H_    0.389249 0.178066 0.421189 0.213783
H21   H     H_    0.610482 0.821949 0.579043 0.213773
H22   H     H_    0.635536 0.101217 0.771105 0.277635
N1    N     N_R   0.499990 0.310560 0.500020 -0.169850
N2    N     N_R   0.500010 0.689440 0.499980 -0.169787
O1    O     O_R   0.500000 0.439160 0.601820 -0.592491
O2    O     O_R   0.500000 0.560840 0.398180 -0.589947
O3    O     O_R   0.500040 0.560790 0.601820 -0.594219
O4    O     O_R   0.499960 0.439210 0.398180 -0.593880
O5    O     O_R   0.640320 0.430440 0.499980 -0.572619
O6    O     O_R   0.359680 0.569560 0.500020 -0.575963
O7    O     O_R   0.640370 0.552060 0.499990 -0.570544
O8    O     O_R   0.359630 0.447940 0.500010 -0.570575
Zn1   Zn    Zn3+2 0.499970 0.418790 0.500000 1.074781
Zn2   Zn    Zn3+2 0.500030 0.581210 0.500000 1.074303

loop_
_geom_bond_atom_site_label_1
_geom_bond_atom_site_label_2
_ccdc_geom_bond_type
C4    C36   S    
C23   C45   A    
C41   C42   S    
C6    Cl8   S    
C46   H8    S    
C46   H10   S    
C3    C49   A    
C10   C22   S    
C31   H16   S    
N1    Zn1   S    
C18   C24   A    
C44   H11   S    
C19   C21   A    
C28   Cl1   S    
O5    Zn1   S    
C16   O7    A    
C7    H20   S    
C35   Cl15  S    
C49   Cl4   S    
C33   C36   A    
C40   H7    S    
C38   Cl16  S    
C31   C33   A    
C17   O8    A    
C41   H5    S    
C48   C50   A    
C39   Cl2   S    
C1    O1    A    
C27   C30   S    
C42   H2    S    
C12   O4    A    
N2    Zn2   S    
C46   H9    S    
C3    C50   A    
C44   C46   S    
C16   C26   S    
C48   Cl3   S    
C23   H18   S    
C34   C39   A    
C32   C35   A    
C19   C22   A    
C5    C7    A    
C1    C47   S    
C6    C8    A    
C18   H1    S    
C6    N2    A    
C42   H3    S    
C34   H19   S    
C19   H12   S    
C2    C4    A    
C43   C44   S    
C14   N1    A    
C2    C49   A    
C15   Cl11  S    
C17   O6    A    
C9    C11   A    
O3    Zn2   S    
C8    C10   A    
C40   C41   S    
C20   C22   A    
C13   C15   A    
C43   H15   S    
C32   C47   A    
C42   H22   S    
C13   C43   S    
O7    Zn2   S    
O2    Zn2   S    
C4    C48   A    
C25   C30   T    
C7    C9    A    
C32   H17   S    
C28   C29   S    
C16   O5    A    
C40   H6    S    
C35   C37   A    
C12   O2    A    
C44   H13   S    
C12   C45   S    
C10   C13   A    
C9    C24   S    
C23   C38   A    
C14   Cl10  S    
C50   Cl5   S    
C5    Cl7   S    
C8    H21   S    
C17   C25   S    
C36   C38   A    
C43   H14   S    
C37   C39   A    
C27   Cl9   S    
C15   N2    A    
O4    Zn1   S    
C33   Cl14  S    
O6    Zn2   S    
C11   C14   A    
C18   C20   A    
C20   Cl12  S    
C11   C40   S    
C21   Cl13  S    
C3    C37   S    
C26   C29   T    
C1    O3    A    
O8    Zn1   S    
C31   C45   A    
C21   C24   A    
C27   C28   D    
C2    Cl6   S    
C34   C47   A    
O1    Zn1   S    
C5    N1    A    
C41   H4    S    
