data_mof_unit_21576.cif
_audit_creation_date              2012-12-10T18:31:57-0500
_audit_creation_method            fapswitch 2.2
_symmetry_space_group_name_H-M    P1
_symmetry_Int_Tables_number       1
_space_group_crystal_system       triclinic
_cell_length_a                    10.700709
_cell_length_b                    14.939723
_cell_length_c                    15.380044
_cell_angle_alpha                 82.250218
_cell_angle_beta                  89.713246
_cell_angle_gamma                 103.388463
_cell_volume                      2368.39669035

loop_
_atom_site_label
_atom_site_type_symbol
_atom_type_description
_atom_site_fract_x
_atom_site_fract_y
_atom_site_fract_z
_atom_type_partial_charge
C1    C     C_R   0.484180 0.441445 0.662796 0.930483
C2    C     C_R   0.572723 0.451220 0.896894 0.114485
C3    C     C_R   0.560324 0.356547 0.930072 0.141789
C4    C     C_R   0.741249 0.499388 0.502861 0.874292
C5    C     C_R   0.609769 0.520189 0.952596 0.055648
C6    C     C_R   0.605568 0.491900 0.043728 0.076692
C7    C     C_R   0.600848 0.397582 0.075118 -0.214188
C8    C     C_R   0.581555 0.331219 0.018333 -0.197875
C9    C     C_R   0.647496 0.616002 0.920525 -0.253619
C10   C     C_R   0.661573 0.683449 0.976895 -0.040394
C11   C     C_R   0.633934 0.654921 0.067788 0.073927
C12   C     C_3   0.122857 0.504209 0.497665 -0.128070
C13   C     C_R   0.603022 0.558386 0.100394 0.092036
C14   C     C_R   0.636481 0.719282 0.127494 -0.143432
C15   C     C_R   0.598470 0.688734 0.215390 -0.138925
C16   C     C_R   0.522750 0.558188 0.337638 0.914645
C17   C     C_R   0.560063 0.529748 0.187759 -0.273489
C18   C     C_R   0.681350 0.838716 0.643999 -0.273828
C19   C     C_R   0.644775 0.748947 0.623922 0.015476
C20   C     C_R   0.535870 0.799010 0.499279 0.034175
C21   C     C_R   0.564881 0.891077 0.518241 0.004197
C22   C     C_R   0.641723 0.910159 0.591248 0.100774
C23   C     C_3   0.067224 0.489112 0.404799 -0.199656
C24   C     C_R   0.518375 0.963502 0.469134 0.096916
C25   C     C_R   0.550397 0.054444 0.494272 -0.040836
C26   C     C_R   0.648210 0.073957 0.556322 -0.037447
C27   C     C_R   0.684572 0.000895 0.608262 -0.148415
C28   C     C_R   0.258660 0.501093 0.498696 0.889230
C29   C     C_R   0.439946 0.947820 0.396411 -0.182072
C30   C     C_R   0.386272 0.016684 0.353594 -0.201449
C31   C     C_R   0.403558 0.101972 0.384084 0.190403
C32   C     C_R   0.482808 0.121240 0.456147 -0.015835
C33   C     C_R   0.340324 0.167889 0.343906 -0.310637
C34   C     C_3   0.101296 0.597214 0.527714 -0.228331
C35   C     C_R   0.355013 0.252047 0.375859 0.024933
C36   C     C_R   0.484586 0.204862 0.489682 -0.044700
C37   C     C_3   0.902469 0.418627 0.566260 -0.406998
C38   C     C_3   0.046839 0.419545 0.564918 -0.230585
C39   C     C_3   0.922234 0.491480 0.407239 -0.255841
C40   C     C_3   0.957412 0.595096 0.531882 -0.208989
C41   C     C_3   0.878459 0.501981 0.502508 0.039433
C42   C     C_2   0.174560 0.690011 0.478193 0.952510
C43   C     C_2   0.881321 0.557177 0.334451 0.471413
C44   C     C_2   0.145555 0.544228 0.323804 0.998070
C45   C     C_R   0.497372 0.406303 0.755939 -0.127808
C46   C     C_2   0.698008 0.782244 0.936547 0.903871
C47   C     C_2   0.440495 0.233510 0.738320 0.926630
C48   C     C_2   0.098247 0.413945 0.657061 0.936354
C49   C     C_2   0.730516 0.168072 0.557625 0.382712
C50   C     C_2   0.920856 0.616771 0.621573 0.453796
C51   C     C_R   0.557350 0.593601 0.245217 -0.048883
C52   C     C_R   0.521704 0.288001 0.875683 -0.214268
C53   C     C_R   0.488101 0.311264 0.789079 -0.019353
C54   C     C_R   0.536959 0.473828 0.811223 -0.215777
H1    H     H_    0.848999 0.353643 0.544202 0.188135
H2    H     H_    0.667380 0.793334 0.107532 0.180702
H3    H     H_    0.753860 0.015296 0.658821 0.198361
H4    H     H_    0.531333 0.221515 0.549164 0.144255
H5    H     H_    0.311373 0.305295 0.343146 0.136510
H6    H     H_    0.326558 0.001688 0.298165 0.152200
H7    H     H_    0.740850 0.852330 0.699656 0.176939
H8    H     H_    0.675042 0.693042 0.663905 0.159272
H9    H     H_    0.483081 0.777875 0.443327 0.145191
H10   H     H_    0.417981 0.882880 0.370406 0.139672
H11   H     H_    0.281405 0.154856 0.287772 0.153164
H12   H     H_    0.575971 0.259257 0.044547 0.155139
H13   H     H_    0.055683 0.354258 0.540292 0.175343
H14   H     H_    0.868684 0.421393 0.394145 0.110254
H15   H     H_    0.069338 0.416504 0.396347 0.101775
H16   H     H_    0.937796 0.653201 0.485076 0.187751
H17   H     H_    0.137962 0.597433 0.595236 0.178756
H18   H     H_    0.197046 0.784728 0.369140 0.339693
H19   H     H_    0.817300 0.528389 0.285444 0.061137
H20   H     H_    0.162593 0.565864 0.191425 0.353713
H21   H     H_    0.816283 0.880119 0.851360 0.347763
H22   H     H_    0.464644 0.113021 0.703350 0.345785
H23   H     H_    0.523897 0.456924 0.211483 0.159852
H24   H     H_    0.113007 0.461222 0.774339 0.351225
H25   H     H_    0.738742 0.219842 0.499933 0.037483
H26   H     H_    0.968549 0.682816 0.641521 0.076436
H27   H     H_    0.601024 0.739540 0.259780 0.158474
H28   H     H_    0.512641 0.215548 0.901988 0.173204
H29   H     H_    0.535444 0.544792 0.787409 0.164265
H30   H     H_    0.863402 0.416825 0.633584 0.252614
H31   H     H_    0.613783 0.373885 0.143274 0.146783
H32   H     H_    0.667545 0.639811 0.851205 0.173966
N1    N     N_R   0.573860 0.731700 0.552730 -0.109849
N2    N     N_R   0.426060 0.268290 0.447230 -0.096448
O1    O     O_R   0.462770 0.383110 0.605620 -0.578728
O2    O     O_R   0.144630 0.720266 0.392658 -0.721074
O3    O     O_2   0.918415 0.641312 0.329139 -0.524524
O4    O     O_2   0.248968 0.598194 0.330016 -0.634169
O5    O     O_R   0.102109 0.527290 0.240614 -0.810535
O6    O     O_2   0.636130 0.837072 0.954414 -0.620443
O7    O     O_R   0.800365 0.811480 0.874609 -0.799496
O8    O     O_2   0.340045 0.228103 0.699657 -0.554062
O9    O     O_R   0.507217 0.163261 0.739075 -0.781486
O10   O     O_2   0.159273 0.355843 0.681082 -0.574693
O11   O     O_R   0.073587 0.472601 0.715265 -0.788750
O12   O     O_R   0.510160 0.531900 0.639510 -0.621020
O13   O     O_2   0.791718 0.187987 0.621983 -0.543904
O14   O     O_2   0.839510 0.563231 0.671400 -0.561550
O15   O     O_R   0.661510 0.425600 0.483070 -0.658112
O16   O     O_R   0.708900 0.574390 0.516960 -0.605281
O17   O     O_R   0.489840 0.468100 0.360490 -0.643425
O18   O     O_R   0.537230 0.616890 0.394380 -0.609640
O19   O     O_R   0.291100 0.425610 0.483040 -0.613597
O20   O     O_R   0.338490 0.574400 0.516930 -0.591234
O21   O     O_2   0.253032 0.742233 0.516835 -0.650310
Zn1   Zn    Zn3+2 0.468350 0.400660 0.477370 0.975533
Zn2   Zn    Zn3+2 0.531650 0.599340 0.522630 0.997796

loop_
_geom_bond_atom_site_label_1
_geom_bond_atom_site_label_2
_ccdc_geom_bond_type
C43   H19   S    
C14   H2    S    
O17   Zn1   S    
C20   N1    A    
C8    H12   S    
C39   H14   S    
C23   H15   S    
C34   C42   S    
C16   C51   S    
C17   C51   A    
H21   O7    S    
C7    C8    A    
C39   C41   S    
C7    H31   S    
C36   N2    A    
C12   C23   S    
C26   C27   A    
C37   C38   S    
C40   H16   S    
C12   C28   S    
O15   Zn1   S    
C34   C40   S    
C32   C36   A    
C42   O21   D    
C19   N1    A    
C49   O13   D    
C30   C31   A    
C11   C14   A    
C40   C50   S    
N1    Zn2   S    
C4    C41   S    
C19   H8    S    
C4    O15   A    
C35   H5    S    
C18   C19   A    
C24   C29   A    
C44   O5    S    
C46   O7    S    
C30   H6    S    
C10   C46   S    
C47   O8    D    
C31   C33   A    
C37   H30   S    
C15   C51   A    
C9    C10   A    
C38   C48   S    
C44   O4    D    
C16   O18   A    
C47   C53   S    
N2    Zn1   S    
C25   C32   A    
C29   H10   S    
C45   C53   A    
C21   C22   A    
C12   C38   S    
H20   O5    S    
C1    O12   A    
C54   H29   S    
O18   Zn2   S    
C33   H11   S    
C24   C25   A    
C15   H27   S    
C3    C8    A    
C27   H3    S    
C26   C49   S    
C39   C43   S    
H22   O9    S    
O1    Zn1   S    
C43   O3    D    
C23   C44   S    
C49   H25   S    
C42   O2    S    
C5    C9    A    
C29   C30   A    
C9    H32   S    
H18   O2    S    
C35   N2    A    
C31   C32   A    
C46   O6    D    
C17   H23   S    
C20   C21   A    
C52   H28   S    
C16   O17   A    
C40   C41   S    
C45   C54   A    
C50   O14   D    
C22   C27   A    
C2    C54   A    
O19   Zn1   S    
C2    C5    A    
C12   C34   S    
C52   C53   A    
C48   O11   S    
C1    O1    A    
C18   C22   A    
C50   H26   S    
O16   Zn2   S    
C3    C52   A    
C18   H7    S    
C6    C7    A    
C48   O10   D    
C36   H4    S    
C47   O9    S    
O20   Zn2   S    
C13   C17   A    
C20   H9    S    
C2    C3    A    
C25   C26   A    
C6    C13   A    
C11   C13   A    
C1    C45   S    
C5    C6    A    
C28   O20   A    
C23   C39   S    
C4    O16   A    
C33   C35   A    
C37   C41   S    
C10   C11   A    
C37   H1    S    
C38   H13   S    
O12   Zn2   S    
C21   C24   A    
H24   O11   S    
C14   C15   A    
C28   O19   A    
C34   H17   S    
