data_mof_unit_33079.cif
_audit_creation_date              2012-10-26T21:29:56-0400
_audit_creation_method            fapswitch 2.2
_symmetry_space_group_name_H-M    P1
_symmetry_Int_Tables_number       1
_space_group_crystal_system       triclinic
_cell_length_a                    26.768142
_cell_length_b                    26.757515
_cell_length_c                    26.791709
_cell_angle_alpha                 89.939205
_cell_angle_beta                  90.045515
_cell_angle_gamma                 89.947019
_cell_volume                      19189.5086607

loop_
_atom_site_label
_atom_site_type_symbol
_atom_type_description
_atom_site_fract_x
_atom_site_fract_y
_atom_site_fract_z
_atom_type_partial_charge
C1    C     C_R   0.930620 0.700918 0.299069 0.592224
C2    C     C_R   0.071539 0.702587 0.297204 0.565306
C3    C     C_R   0.827236 0.108232 0.827002 -0.007592
C4    C     C_R   0.172670 0.891869 0.827057 -0.009554
C5    C     C_R   0.827518 0.107784 0.172596 -0.012200
C6    C     C_R   0.821191 0.885436 0.821837 -0.021041
C7    C     C_R   0.172826 0.108050 0.172618 -0.009248
C8    C     C_R   0.112574 0.176336 0.176699 0.047820
C9    C     C_R   0.886754 0.822450 0.822942 0.020841
C10   C     C_R   0.107736 0.172497 0.827569 -0.009307
C11   C     C_R   0.892244 0.827484 0.172443 -0.010647
C12   C     C_R   0.115131 0.821581 0.820591 -0.023571
C13   C     C_R   0.297824 0.298058 0.929158 0.595059
C14   C     C_R   0.886322 0.177145 0.178090 0.017778
C15   C     C_R   0.110843 0.824747 0.175260 0.008276
C16   C     C_R   0.884818 0.178487 0.820564 -0.024749
C17   C     C_R   0.823146 0.176491 0.887226 0.048909
C18   C     C_R   0.175184 0.824824 0.110777 0.012835
C19   C     C_R   0.825881 0.825925 0.890546 0.025849
C20   C     C_R   0.179202 0.178282 0.114956 -0.022683
C21   C     C_R   0.176824 0.823548 0.887260 0.049061
C22   C     C_R   0.822182 0.177118 0.113715 0.009430
C23   C     C_R   0.177115 0.178022 0.886363 0.019695
C24   C     C_R   0.702801 0.702590 0.071568 0.565948
C25   C     C_R   0.822836 0.821924 0.113692 0.016600
C26   C     C_R   0.324718 0.388380 0.175948 -0.000016
C27   C     C_R   0.675103 0.610640 0.824919 0.009692
C28   C     C_R   0.172659 0.392045 0.672448 0.002401
C29   C     C_R   0.824823 0.610746 0.324820 0.010862
C30   C     C_R   0.677795 0.386325 0.822893 0.008876
C31   C     C_R   0.327377 0.607998 0.172574 0.002713
C32   C     C_R   0.824970 0.389422 0.324968 0.010705
C33   C     C_R   0.177109 0.613684 0.677803 0.007437
C34   C     C_R   0.324730 0.610849 0.824727 0.007616
C35   C     C_R   0.069423 0.299050 0.299047 0.585162
C36   C     C_R   0.675188 0.389238 0.175199 0.008887
C37   C     C_R   0.172695 0.608105 0.327124 -0.007341
C38   C     C_R   0.824834 0.389292 0.675146 0.008172
C39   C     C_R   0.672839 0.608063 0.172616 -0.007963
C40   C     C_R   0.327530 0.392308 0.827594 -0.008182
C41   C     C_R   0.828792 0.606407 0.671232 -0.052641
C42   C     C_R   0.175162 0.389270 0.324817 0.009733
C43   C     C_R   0.607207 0.172189 0.671817 0.000517
C44   C     C_R   0.389363 0.824909 0.324925 0.011381
C45   C     C_R   0.610615 0.675049 0.824944 0.010645
C46   C     C_R   0.929514 0.701584 0.701816 0.602892
C47   C     C_R   0.392844 0.327901 0.171776 -0.000275
C48   C     C_R   0.615173 0.820563 0.321542 -0.022119
C49   C     C_R   0.392786 0.172155 0.671874 -0.000535
C50   C     C_R   0.610708 0.324869 0.175143 0.011305
C51   C     C_R   0.389209 0.675210 0.824788 0.010192
C52   C     C_R   0.389392 0.824958 0.675054 0.010992
C53   C     C_R   0.612745 0.176839 0.323524 0.048355
C54   C     C_R   0.386343 0.322920 0.822237 0.011526
C55   C     C_R   0.612766 0.676489 0.176864 0.045466
C56   C     C_R   0.389274 0.175148 0.324845 0.011785
C57   C     C_R   0.701007 0.298996 0.069499 0.569513
C58   C     C_R   0.610670 0.824900 0.675109 0.011179
C59   C     C_R   0.393158 0.671547 0.171630 -0.041701
C60   C     C_R   0.613631 0.321976 0.822882 0.020411
C61   C     C_R   0.824782 0.675211 0.389183 0.009548
C62   C     C_R   0.172484 0.327305 0.608032 0.003086
C63   C     C_R   0.324792 0.824766 0.389188 0.011973
C64   C     C_R   0.676967 0.177955 0.613689 0.006551
C65   C     C_R   0.175006 0.324994 0.389422 0.010190
C66   C     C_R   0.821833 0.677045 0.613990 0.006774
C67   C     C_R   0.672999 0.172728 0.391771 -0.010331
C68   C     C_R   0.299062 0.700936 0.930587 0.575756
C69   C     C_R   0.324687 0.824714 0.610902 0.009892
C70   C     C_R   0.177157 0.678107 0.613699 0.017388
C71   C     C_R   0.824850 0.324830 0.389257 0.009212
C72   C     C_R   0.675366 0.824630 0.610986 0.007156
C73   C     C_R   0.324757 0.175241 0.389153 0.008448
C74   C     C_R   0.824678 0.324702 0.610911 0.009345
C75   C     C_R   0.176885 0.676466 0.387230 0.050419
C76   C     C_R   0.323055 0.177901 0.613665 0.009057
C77   C     C_R   0.672653 0.827114 0.391853 -0.008421
C78   C     C_R   0.324906 0.889369 0.675078 0.008998
C79   C     C_R   0.298853 0.069935 0.701375 0.571701
C80   C     C_R   0.679476 0.115188 0.321527 -0.024160
C81   C     C_R   0.675296 0.889117 0.675310 0.007069
C82   C     C_R   0.324826 0.110746 0.324820 0.010706
C83   C     C_R   0.676884 0.887212 0.323480 0.048280
C84   C     C_R   0.324613 0.111780 0.676123 0.002850
C85   C     C_R   0.324949 0.889393 0.324939 0.011259
C86   C     C_R   0.675392 0.111780 0.676081 0.003267
C87   C     C_R   0.107811 0.672605 0.672504 -0.011281
C88   C     C_R   0.889221 0.324782 0.324799 0.010526
C89   C     C_R   0.115121 0.678407 0.320618 -0.023216
C90   C     C_R   0.701604 0.929755 0.298533 0.606540
C91   C     C_R   0.889344 0.324912 0.675099 0.009162
C92   C     C_R   0.110800 0.324783 0.324763 0.011681
C93   C     C_R   0.887072 0.676267 0.677227 0.049818
C94   C     C_R   0.107974 0.327554 0.672674 0.002881
C95   C     C_R   0.889248 0.675170 0.324822 0.010040
C96   C     C_R   0.324780 0.675217 0.889182 0.010788
C97   C     C_R   0.675350 0.324654 0.110965 0.007260
C98   C     C_R   0.322003 0.322912 0.886391 0.019520
C99   C     C_R   0.679387 0.678419 0.115136 -0.024544
C100  C     C_R   0.672447 0.327488 0.892225 -0.008573
C101  C     C_R   0.299133 0.930694 0.299120 0.584758
C102  C     C_R   0.326612 0.673480 0.109036 0.042521
C103  C     C_R   0.675236 0.675208 0.889186 0.007769
C104  C     C_R   0.323133 0.322230 0.113542 0.005658
C105  C     C_R   0.797193 0.858378 0.141260 0.128897
C106  C     C_R   0.202739 0.141527 0.858834 0.133894
C107  C     C_R   0.132013 0.868002 0.196187 0.129766
C108  C     C_R   0.868023 0.131548 0.803706 0.148432
C109  C     C_R   0.190681 0.872304 0.872745 0.142544
C110  C     C_R   0.808280 0.128282 0.127897 0.151130
C111  C     C_R   0.859737 0.859404 0.797309 0.140450
C112  C     C_R   0.068361 0.299987 0.700092 0.582933
C113  C     C_R   0.701145 0.069928 0.701375 0.580484
C114  C     C_R   0.127166 0.127624 0.190662 0.142066
C115  C     C_R   0.809229 0.127770 0.872670 0.144082
C116  C     C_R   0.196058 0.868156 0.131873 0.136638
C117  C     C_R   0.128251 0.127812 0.808343 0.158061
C118  C     C_R   0.871733 0.872174 0.191657 0.154294
C119  C     C_R   0.196060 0.131294 0.131754 0.149825
C120  C     C_R   0.804124 0.868302 0.868544 0.137652
C121  C     C_R   0.869755 0.129891 0.194541 0.139143
C122  C     C_R   0.131843 0.868595 0.803759 0.148833
C123  C     C_R   0.129835 0.194421 0.869796 0.140749
C124  C     C_R   0.700971 0.930558 0.700988 0.568607
C125  C     C_R   0.870130 0.805544 0.130235 0.141288
C126  C     C_R   0.131953 0.803852 0.131970 0.137370
C127  C     C_R   0.858325 0.203057 0.858765 0.137329
C128  C     C_R   0.869687 0.805681 0.869849 0.133741
C129  C     C_R   0.140880 0.202823 0.141337 0.134490
C130  C     C_R   0.858754 0.202773 0.141589 0.132151
C131  C     C_R   0.141704 0.796964 0.858764 0.135466
C132  C     C_R   0.298213 0.359720 0.140830 0.140727
C133  C     C_R   0.696197 0.631908 0.868048 0.136231
C134  C     C_R   0.128309 0.372111 0.692408 0.139191
C135  C     C_R   0.299077 0.069380 0.299066 0.590032
C136  C     C_R   0.868140 0.631851 0.303960 0.136057
C137  C     C_R   0.691706 0.372169 0.871705 0.155635
C138  C     C_R   0.306488 0.629341 0.129122 0.125130
C139  C     C_R   0.868198 0.368231 0.304017 0.136623
C140  C     C_R   0.128283 0.627842 0.691685 0.149941
C141  C     C_R   0.303800 0.631993 0.867978 0.135798
C142  C     C_R   0.696333 0.367878 0.132168 0.131973
C143  C     C_R   0.131764 0.631340 0.303931 0.152197
C144  C     C_R   0.868343 0.368343 0.695850 0.130101
C145  C     C_R   0.696078 0.631305 0.131760 0.149565
C146  C     C_R   0.702813 0.071575 0.297372 0.563163
C147  C     C_R   0.305634 0.370219 0.869843 0.140362
C148  C     C_R   0.873135 0.627271 0.690998 0.148113
C149  C     C_R   0.132089 0.367928 0.303672 0.137964
C150  C     C_R   0.626840 0.127241 0.690678 0.145530
C151  C     C_R   0.368372 0.868392 0.304180 0.135892
C152  C     C_R   0.631871 0.696093 0.868085 0.133603
C153  C     C_R   0.371525 0.307428 0.128131 0.143205
C154  C     C_R   0.641836 0.858621 0.296887 0.132789
C155  C     C_R   0.373129 0.127277 0.690845 0.143752
C156  C     C_R   0.632003 0.303791 0.132042 0.134777
C157  C     C_R   0.299129 0.930676 0.700891 0.576711
C158  C     C_R   0.368117 0.696085 0.868096 0.134577
C159  C     C_R   0.368457 0.868457 0.695737 0.133176
C160  C     C_R   0.641292 0.141762 0.296954 0.134096
C161  C     C_R   0.358491 0.297273 0.858861 0.135627
C162  C     C_R   0.641323 0.703103 0.141777 0.131380
C163  C     C_R   0.368191 0.131804 0.304008 0.135493
C164  C     C_R   0.631764 0.868230 0.695956 0.132431
C165  C     C_R   0.371922 0.692334 0.127928 0.140321
C166  C     C_R   0.630182 0.305583 0.870142 0.141148
C167  C     C_R   0.868076 0.696124 0.368051 0.135737
C168  C     C_R   0.430633 0.200907 0.299080 0.584043
C169  C     C_R   0.127985 0.307486 0.628420 0.141128
C170  C     C_R   0.303896 0.868121 0.368067 0.137194
C171  C     C_R   0.701986 0.140660 0.641212 0.144457
C172  C     C_R   0.131767 0.304024 0.368239 0.134040
C173  C     C_R   0.857970 0.702676 0.642449 0.129534
C174  C     C_R   0.696373 0.131942 0.368462 0.148810
C175  C     C_R   0.303723 0.868011 0.632040 0.135294
C176  C     C_R   0.129944 0.694624 0.630314 0.138071
C177  C     C_R   0.867991 0.303715 0.367975 0.135602
C178  C     C_R   0.696508 0.867690 0.632347 0.130117
C179  C     C_R   0.569324 0.799126 0.700888 0.583433
C180  C     C_R   0.303823 0.131967 0.367997 0.135819
C181  C     C_R   0.868045 0.303820 0.632008 0.133951
C182  C     C_R   0.141738 0.703054 0.358681 0.137018
C183  C     C_R   0.298045 0.140637 0.641159 0.144024
C184  C     C_R   0.690689 0.872778 0.372248 0.145241
C185  C     C_R   0.803678 0.367962 0.632082 0.133978
C186  C     C_R   0.190825 0.627706 0.372735 0.145086
C187  C     C_R   0.631707 0.368296 0.195896 0.131736
C188  C     C_R   0.368000 0.631999 0.803820 0.131410
C189  C     C_R   0.195858 0.368348 0.368338 0.132174
C190  C     C_R   0.298061 0.202131 0.570859 0.583418
C191  C     C_R   0.808202 0.627949 0.627642 0.159876
C192  C     C_R   0.372197 0.371787 0.808351 0.158203
C193  C     C_R   0.627201 0.627676 0.190659 0.140607
C194  C     C_R   0.803867 0.631919 0.368046 0.136243
C195  C     C_R   0.192491 0.371641 0.627989 0.144494
C196  C     C_R   0.631628 0.631628 0.804182 0.134351
C197  C     C_R   0.373218 0.372812 0.190656 0.143482
C198  C     C_R   0.202760 0.641575 0.641243 0.130857
C199  C     C_R   0.804107 0.368335 0.368287 0.135933
C200  C     C_R   0.372701 0.626963 0.191503 0.152982
C201  C     C_R   0.699750 0.800303 0.432146 0.558907
C202  C     C_R   0.641192 0.358452 0.797272 0.135596
C203  C     C_R   0.627251 0.190702 0.372235 0.141606
C204  C     C_R   0.368045 0.803821 0.632009 0.136798
C205  C     C_R   0.631881 0.803906 0.631924 0.137114
C206  C     C_R   0.368073 0.196133 0.368042 0.134859
C207  C     C_R   0.368100 0.803812 0.368068 0.138989
C208  C     C_R   0.628526 0.192714 0.628170 0.146953
C209  C     C_R   0.371498 0.192581 0.628150 0.151939
C210  C     C_R   0.631805 0.803842 0.368605 0.151927
C211  C     C_R   0.567564 0.199524 0.699491 0.561282
C212  C     C_R   0.299605 0.700427 0.068849 0.597662
C213  C     C_R   0.430669 0.799130 0.299110 0.595677
C214  C     C_R   0.699732 0.199778 0.432099 0.555585
C215  C     C_R   0.299017 0.799016 0.569478 0.582962
C216  C     C_R   0.430698 0.799144 0.700876 0.583823
C217  C     C_R   0.570199 0.201565 0.298557 0.606223
C218  C     C_R   0.299049 0.799057 0.430569 0.586130
C219  C     C_R   0.701953 0.202141 0.570882 0.568556
C220  C     C_R   0.571577 0.797188 0.297389 0.568043
C221  C     C_R   0.432429 0.199530 0.699499 0.556378
C222  C     C_R   0.701010 0.798988 0.569505 0.571978
C223  C     C_R   0.699663 0.300383 0.932267 0.562164
C224  C     C_R   0.299044 0.200954 0.430565 0.578580
C225  C     C_R   0.799017 0.299014 0.569479 0.582254
C226  C     C_R   0.201584 0.701447 0.429762 0.604284
C227  C     C_R   0.800754 0.567250 0.699266 0.533058
C228  C     C_R   0.200928 0.430617 0.299075 0.582988
C229  C     C_R   0.799056 0.700940 0.430581 0.587166
C230  C     C_R   0.200031 0.299908 0.568392 0.573537
C231  C     C_R   0.799144 0.430713 0.299138 0.585170
C232  C     C_R   0.201838 0.570711 0.702007 0.566213
C233  C     C_R   0.201985 0.702197 0.570875 0.586222
C234  C     C_R   0.067754 0.699638 0.699695 0.548207
C235  C     C_R   0.799077 0.299089 0.430607 0.588757
C236  C     C_R   0.200074 0.431652 0.700022 0.580492
C237  C     C_R   0.799076 0.569381 0.299066 0.590486
C238  C     C_R   0.200845 0.299161 0.430712 0.570434
C239  C     C_R   0.797784 0.701978 0.570973 0.574019
C240  C     C_R   0.199749 0.567837 0.300290 0.566181
C241  C     C_R   0.799098 0.430637 0.700920 0.567498
C242  C     C_R   0.699686 0.567815 0.199744 0.558784
C243  C     C_R   0.300393 0.432307 0.800343 0.568201
C244  C     C_R   0.432157 0.699635 0.199675 0.540576
C245  C     C_R   0.930590 0.299068 0.299049 0.582904
C246  C     C_R   0.570846 0.297819 0.798038 0.598516
C247  C     C_R   0.298906 0.430122 0.201334 0.561720
C248  C     C_R   0.700879 0.569332 0.799104 0.592505
C249  C     C_R   0.569352 0.299107 0.200909 0.575427
C250  C     C_R   0.430603 0.700934 0.799057 0.583248
C251  C     C_R   0.299035 0.569432 0.799026 0.571640
C252  C     C_R   0.700924 0.430616 0.200940 0.575328
C253  C     C_R   0.569309 0.700863 0.799121 0.582980
C254  C     C_R   0.432455 0.300485 0.199484 0.566742
C255  C     C_R   0.702009 0.429273 0.798157 0.579521
C256  C     C_R   0.700948 0.700948 0.930567 0.585157
C257  C     C_R   0.299945 0.568365 0.200061 0.571805
C258  C     C_R   0.429269 0.298169 0.797988 0.581546
C259  C     C_R   0.570249 0.701452 0.201609 0.588834
C260  C     C_R   0.928426 0.202623 0.797176 0.555888
C261  C     C_R   0.069429 0.799044 0.200968 0.573212
C262  C     C_R   0.797988 0.201844 0.070733 0.571240
C263  C     C_R   0.201576 0.798566 0.929785 0.604614
C264  C     C_R   0.070158 0.201382 0.201542 0.603555
C265  C     C_R   0.929519 0.798145 0.798275 0.601019
C266  C     C_R   0.201955 0.202182 0.929146 0.598378
C267  C     C_R   0.298099 0.297903 0.070831 0.568345
C268  C     C_R   0.798019 0.797793 0.070883 0.590631
C269  C     C_R   0.932280 0.800383 0.199672 0.560285
C270  C     C_R   0.067710 0.199611 0.800334 0.570310
C271  C     C_R   0.799816 0.799812 0.931592 0.585927
C272  C     C_R   0.202728 0.202524 0.071489 0.558373
C273  C     C_R   0.071559 0.797400 0.797201 0.566476
C274  C     C_R   0.929135 0.201976 0.202201 0.586961
C275  C     C_R   0.200923 0.799082 0.069392 0.580724
C276  C     C_R   0.798414 0.201450 0.929767 0.611106
C277  C     C_R   0.800323 0.067737 0.199646 0.551052
C278  C     C_R   0.930679 0.299128 0.700890 0.569087
C279  C     C_R   0.199761 0.932146 0.800279 0.554751
C280  C     C_R   0.797541 0.928839 0.797681 0.559434
C281  C     C_R   0.199694 0.067825 0.199754 0.558897
C282  C     C_R   0.200936 0.930607 0.200942 0.575755
C283  C     C_R   0.800207 0.067898 0.800244 0.569846
C284  C     C_R   0.201838 0.070731 0.797984 0.578869
C285  C     C_R   0.798147 0.929251 0.202029 0.574110
C286  C     C_R   0.822863 0.886288 0.177815 0.010315
C287  C     C_R   0.177100 0.113668 0.822223 0.010460
C288  C     C_R   0.175207 0.889225 0.175204 0.009355
Cu1   Cu    Cu3+1 0.000000 0.784800 0.284800 1.066220
Cu2   Cu    Cu3+1 0.784800 0.715200 0.000000 1.053220
Cu3   Cu    Cu3+1 0.215200 0.000000 0.715200 1.117708
Cu4   Cu    Cu3+1 0.784800 0.000000 0.284800 1.094215
Cu5   Cu    Cu3+1 0.215200 0.715200 0.000000 1.108758
Cu6   Cu    Cu3+1 0.784800 0.284800 0.000000 1.082868
Cu7   Cu    Cu3+1 0.215200 0.000000 0.284800 1.063978
Cu8   Cu    Cu3+1 0.784800 0.000000 0.715200 1.097691
Cu9   Cu    Cu3+1 0.715200 0.000000 0.784800 1.045758
Cu10  Cu    Cu3+1 0.284800 0.000000 0.215200 1.076280
Cu11  Cu    Cu3+1 0.000000 0.715200 0.784800 1.069944
Cu12  Cu    Cu3+1 0.000000 0.215200 0.715200 1.085362
Cu13  Cu    Cu3+1 1.000000 0.284800 0.215200 1.116950
Cu14  Cu    Cu3+1 0.284800 0.000000 0.784800 1.054806
Cu15  Cu    Cu3+1 0.715200 0.000000 0.215200 1.086892
Cu16  Cu    Cu3+1 1.000000 0.284800 0.784800 1.061546
Cu17  Cu    Cu3+1 0.000000 0.715200 0.215200 1.067410
Cu18  Cu    Cu3+1 0.500000 0.284800 0.284800 1.097023
Cu19  Cu    Cu3+1 0.500000 0.715200 0.715200 1.076506
Cu20  Cu    Cu3+1 0.284800 0.284800 0.500000 1.109609
Cu21  Cu    Cu3+1 0.715200 0.715200 0.500000 1.093357
Cu22  Cu    Cu3+1 0.500000 0.284800 0.715200 1.103659
Cu23  Cu    Cu3+1 0.284800 0.784800 0.000000 1.099850
Cu24  Cu    Cu3+1 0.500000 0.715200 0.284800 1.078026
Cu25  Cu    Cu3+1 0.715200 0.284800 0.500000 1.079673
Cu26  Cu    Cu3+1 0.284800 0.715200 0.500000 1.112221
Cu27  Cu    Cu3+1 0.715200 0.500000 0.715200 1.066573
Cu28  Cu    Cu3+1 0.284800 0.500000 0.284800 1.069181
Cu29  Cu    Cu3+1 0.715200 0.500000 0.284800 1.059300
Cu30  Cu    Cu3+1 0.284800 0.500000 0.715200 1.061673
Cu31  Cu    Cu3+1 0.500000 0.784800 0.784800 1.065535
Cu32  Cu    Cu3+1 0.500000 0.215200 0.215200 1.084572
Cu33  Cu    Cu3+1 0.784800 0.784800 0.500000 1.067336
Cu34  Cu    Cu3+1 0.715200 0.215200 0.000000 1.107341
Cu35  Cu    Cu3+1 0.215200 0.215200 0.500000 1.070401
Cu36  Cu    Cu3+1 0.500000 0.784800 0.215200 1.089327
Cu37  Cu    Cu3+1 0.500000 0.215200 0.784800 1.105483
Cu38  Cu    Cu3+1 0.215200 0.784800 0.500000 1.081112
Cu39  Cu    Cu3+1 0.784800 0.215200 0.500000 1.069176
Cu40  Cu    Cu3+1 0.215200 0.500000 0.215200 1.092003
Cu41  Cu    Cu3+1 0.784800 0.500000 0.784800 1.079134
Cu42  Cu    Cu3+1 0.215200 0.500000 0.784800 1.103294
Cu43  Cu    Cu3+1 0.784800 0.500000 0.215200 1.074903
Cu44  Cu    Cu3+1 0.000000 0.784800 0.715200 1.103544
Cu45  Cu    Cu3+1 1.000000 0.215200 0.284800 1.073772
Cu46  Cu    Cu3+1 0.715200 0.784800 0.000000 1.089652
Cu47  Cu    Cu3+1 0.284800 0.215200 0.000000 1.128066
Cu48  Cu    Cu3+1 0.215200 0.284800 0.000000 1.055768
H1    H     H_    0.730058 0.864407 0.166003 0.331799
H2    H     H_    0.266462 0.873631 0.126423 0.329450
H3    H     H_    0.065915 0.099693 0.785206 0.348881
H4    H     H_    0.934089 0.900299 0.214740 0.350700
H5    H     H_    0.265844 0.127003 0.119254 0.332839
H6    H     H_    0.734707 0.881366 0.875386 0.328136
H7    H     H_    0.883559 0.122386 0.263723 0.330369
H8    H     H_    0.119254 0.872737 0.734015 0.327359
H9    H     H_    0.122226 0.263638 0.883664 0.339242
H10   H     H_    0.877726 0.736326 0.116359 0.330176
H11   H     H_    0.126589 0.733388 0.126868 0.329096
H12   H     H_    0.269909 0.135531 0.834225 0.333236
H13   H     H_    0.864930 0.270706 0.835083 0.321065
H14   H     H_    0.884026 0.736926 0.880080 0.335499
H15   H     H_    0.164135 0.270506 0.134842 0.313320
H16   H     H_    0.834010 0.269974 0.135453 0.313348
H17   H     H_    0.135204 0.729371 0.835012 0.324490
H18   H     H_    0.231002 0.334951 0.135671 0.312107
H19   H     H_    0.766676 0.627161 0.873431 0.327525
H20   H     H_    0.069254 0.400823 0.721149 0.345063
H21   H     H_    0.873545 0.626458 0.233605 0.322300
H22   H     H_    0.714873 0.400305 0.933970 0.350848
H23   H     H_    0.126765 0.872850 0.266592 0.325491
H24   H     H_    0.276683 0.571612 0.099131 0.343920
H25   H     H_    0.873937 0.373380 0.233655 0.328621
H26   H     H_    0.065926 0.599747 0.714772 0.347460
H27   H     H_    0.233347 0.626910 0.873148 0.335420
H28   H     H_    0.766838 0.372157 0.126969 0.323931
H29   H     H_    0.119045 0.626810 0.234251 0.334232
H30   H     H_    0.874255 0.374188 0.766142 0.333169
H31   H     H_    0.765807 0.626797 0.119000 0.327347
H32   H     H_    0.236457 0.377923 0.883747 0.339230
H33   H     H_    0.900675 0.564984 0.715300 0.346638
H34   H     H_    0.880430 0.127630 0.733947 0.336326
H35   H     H_    0.127329 0.372440 0.233194 0.337018
H36   H     H_    0.600797 0.064246 0.713399 0.347644
H37   H     H_    0.374247 0.874223 0.233880 0.329759
H38   H     H_    0.626961 0.766573 0.873592 0.320901
H39   H     H_    0.432924 0.282699 0.099510 0.348988
H40   H     H_    0.635305 0.834532 0.229463 0.331851
H41   H     H_    0.399250 0.064352 0.713823 0.349046
H42   H     H_    0.627239 0.233309 0.126613 0.336345
H43   H     H_    0.373536 0.766518 0.873561 0.327645
H44   H     H_    0.374555 0.874560 0.765993 0.329544
H45   H     H_    0.213274 0.935261 0.899939 0.349498
H46   H     H_    0.665131 0.135312 0.229454 0.324832
H47   H     H_    0.364500 0.230075 0.834274 0.331990
H48   H     H_    0.665342 0.770627 0.135172 0.331513
H49   H     H_    0.373667 0.126229 0.233673 0.329251
H50   H     H_    0.626261 0.874260 0.766254 0.322445
H51   H     H_    0.431046 0.721139 0.099262 0.345717
H52   H     H_    0.616321 0.236374 0.877851 0.342626
H53   H     H_    0.873217 0.766584 0.373415 0.334113
H54   H     H_    0.099200 0.278575 0.569551 0.348463
H55   H     H_    0.233432 0.872914 0.373553 0.329401
H56   H     H_    0.785159 0.065923 0.099840 0.347851
H57   H     H_    0.769086 0.166022 0.635952 0.315634
H58   H     H_    0.125953 0.233596 0.373554 0.329069
H59   H     H_    0.831326 0.769350 0.636340 0.317009
H60   H     H_    0.766208 0.119425 0.372361 0.327644
H61   H     H_    0.233222 0.872440 0.626685 0.321284
H62   H     H_    0.122657 0.763925 0.616547 0.330816
H63   H     H_    0.872915 0.233180 0.372789 0.320871
H64   H     H_    0.767067 0.871773 0.627816 0.324854
H65   H     H_    0.233368 0.127072 0.373323 0.327357
H66   H     H_    0.872660 0.233325 0.626446 0.323849
H67   H     H_    0.838054 0.865617 0.729255 0.318503
H68   H     H_    0.135171 0.770632 0.334715 0.314337
H69   H     H_    0.230919 0.166012 0.635863 0.335451
H70   H     H_    0.713254 0.900082 0.435128 0.351872
H71   H     H_    0.733170 0.372597 0.627035 0.330874
H72   H     H_    0.213635 0.564764 0.400001 0.348922
H73   H     H_    0.625941 0.374242 0.266178 0.329916
H74   H     H_    0.372924 0.626727 0.733422 0.324350
H75   H     H_    0.266219 0.374317 0.374022 0.330829
H76   H     H_    0.783941 0.566087 0.599390 0.350794
H77   H     H_    0.400283 0.434151 0.785173 0.348932
H78   H     H_    0.099935 0.064706 0.213398 0.351893
H79   H     H_    0.599931 0.564711 0.213254 0.348200
H80   H     H_    0.733429 0.626846 0.373431 0.327761
H81   H     H_    0.221371 0.430630 0.599263 0.342106
H82   H     H_    0.625789 0.625789 0.733883 0.328674
H83   H     H_    0.399223 0.435722 0.213583 0.343167
H84   H     H_    0.269941 0.635563 0.665946 0.314596
H85   H     H_    0.733731 0.373872 0.374227 0.327061
H86   H     H_    0.432606 0.599214 0.219946 0.343102
H87   H     H_    0.665882 0.364453 0.730175 0.320010
H88   H     H_    0.600007 0.213259 0.435128 0.348744
H89   H     H_    0.786640 0.064811 0.899939 0.350408
H90   H     H_    0.372571 0.733315 0.626504 0.328125
H91   H     H_    0.626823 0.733481 0.626017 0.326665
H92   H     H_    0.373066 0.266597 0.373515 0.327986
H93   H     H_    0.372929 0.733312 0.373469 0.334413
H94   H     H_    0.567074 0.217480 0.599514 0.335210
H95   H     H_    0.432978 0.217142 0.599559 0.336456
H96   H     H_    0.619093 0.734073 0.373039 0.332421
O1    O     O_R   0.947350 0.816370 0.242430 -0.507593
O2    O     O_R   0.052650 0.816370 0.242430 -0.495119
O3    O     O_R   0.257570 0.183630 0.447350 -0.486536
O4    O     O_R   0.552650 0.816370 0.257570 -0.479845
O5    O     O_R   0.447350 0.183630 0.742430 -0.455976
O6    O     O_R   0.257570 0.816370 0.447350 -0.479224
O7    O     O_R   0.742430 0.183630 0.552650 -0.500106
O8    O     O_R   0.447350 0.183630 0.257570 -0.484425
O9    O     O_R   0.552650 0.816370 0.742430 -0.486560
O10   O     O_R   0.742430 0.183630 0.447350 -0.474289
O11   O     O_R   0.257570 0.816370 0.552650 -0.490716
O12   O     O_R   0.552650 0.183630 0.742430 -0.455322
O13   O     O_R   0.242430 0.183630 0.947350 -0.441389
O14   O     O_R   0.447350 0.816370 0.257570 -0.479321
O15   O     O_R   0.257570 0.183630 0.552650 -0.492178
O16   O     O_R   0.742430 0.816370 0.447350 -0.510297
O17   O     O_R   0.183630 0.742430 0.552650 -0.515649
O18   O     O_R   0.816370 0.257570 0.447350 -0.482152
O19   O     O_R   0.183630 0.552650 0.257570 -0.464504
O20   O     O_R   0.816370 0.447350 0.742430 -0.492362
O21   O     O_R   0.183630 0.257570 0.447350 -0.495000
O22   O     O_R   0.816370 0.742430 0.552650 -0.497430
O23   O     O_R   0.183630 0.447350 0.742430 -0.449194
O24   O     O_R   0.757570 0.816370 0.052650 -0.449928
O25   O     O_R   0.816370 0.552650 0.257570 -0.482807
O26   O     O_R   0.816370 0.257570 0.552650 -0.486907
O27   O     O_R   0.183630 0.742430 0.447350 -0.459247
O28   O     O_R   0.816370 0.447350 0.257570 -0.483272
O29   O     O_R   0.183630 0.552650 0.742430 -0.458571
O30   O     O_R   0.816370 0.742430 0.447350 -0.478403
O31   O     O_R   0.183630 0.257570 0.552650 -0.509730
O32   O     O_R   0.816370 0.552650 0.742430 -0.500750
O33   O     O_R   0.183630 0.447350 0.257570 -0.473040
O34   O     O_R   0.257570 0.552650 0.816370 -0.483427
O35   O     O_R   0.052650 0.183630 0.242430 -0.467564
O36   O     O_R   0.742430 0.447350 0.183630 -0.482446
O37   O     O_R   0.447350 0.257570 0.816370 -0.497268
O38   O     O_R   0.552650 0.742430 0.183630 -0.469268
O39   O     O_R   0.742430 0.447350 0.816370 -0.451079
O40   O     O_R   0.257570 0.552650 0.183630 -0.510279
O41   O     O_R   0.552650 0.742430 0.816370 -0.485182
O42   O     O_R   0.447350 0.257570 0.183630 -0.516357
O43   O     O_R   0.742430 0.552650 0.183630 -0.473219
O44   O     O_R   0.257570 0.447350 0.816370 -0.474292
O45   O     O_R   0.552650 0.257570 0.183630 -0.486520
O46   O     O_R   0.947350 0.816370 0.757570 -0.439861
O47   O     O_R   0.447350 0.742430 0.816370 -0.485374
O48   O     O_R   0.257570 0.447350 0.183630 -0.455337
O49   O     O_R   0.742430 0.552650 0.816370 -0.475440
O50   O     O_R   0.447350 0.742430 0.183630 -0.501851
O51   O     O_R   0.552650 0.257570 0.816370 -0.506516
O52   O     O_R   0.947350 0.316370 0.742430 -0.497539
O53   O     O_R   0.052650 0.683630 0.257570 -0.490603
O54   O     O_R   0.742430 0.316370 0.052650 -0.497842
O55   O     O_R   0.257570 0.683630 0.947350 -0.484464
O56   O     O_R   0.052650 0.316370 0.257570 -0.478197
O57   O     O_R   0.757570 0.183630 0.052650 -0.457242
O58   O     O_R   0.947350 0.683630 0.742430 -0.477521
O59   O     O_R   0.257570 0.316370 0.947350 -0.511659
O60   O     O_R   0.742430 0.683630 0.052650 -0.494737
O61   O     O_R   0.947350 0.683630 0.257570 -0.481045
O62   O     O_R   0.052650 0.316370 0.742430 -0.507029
O63   O     O_R   0.742430 0.683630 0.947350 -0.481779
O64   O     O_R   0.257570 0.316370 0.052650 -0.500034
O65   O     O_R   0.052650 0.683630 0.742430 -0.513804
O66   O     O_R   0.947350 0.316370 0.257570 -0.480483
O67   O     O_R   0.257570 0.683630 0.052650 -0.466539
O68   O     O_R   0.242430 0.816370 0.947350 -0.470105
O69   O     O_R   0.742430 0.316370 0.947350 -0.501331
O70   O     O_R   0.683630 0.742430 0.052650 -0.480980
O71   O     O_R   0.316370 0.257570 0.947350 -0.443024
O72   O     O_R   0.683630 0.052650 0.257570 -0.486389
O73   O     O_R   0.316370 0.947350 0.742430 -0.487821
O74   O     O_R   0.683630 0.257570 0.947350 -0.477874
O75   O     O_R   0.316370 0.742430 0.052650 -0.466660
O76   O     O_R   0.683630 0.947350 0.742430 -0.496582
O77   O     O_R   0.316370 0.052650 0.257570 -0.482914
O78   O     O_R   0.316370 0.257570 0.052650 -0.462013
O79   O     O_R   0.183630 0.242430 0.052650 -0.488125
O80   O     O_R   0.683630 0.742430 0.947350 -0.488218
O81   O     O_R   0.316370 0.947350 0.257570 -0.485204
O82   O     O_R   0.683630 0.052650 0.742430 -0.503389
O83   O     O_R   0.316370 0.742430 0.947350 -0.491215
O84   O     O_R   0.683630 0.257570 0.052650 -0.485031
O85   O     O_R   0.316370 0.052650 0.742430 -0.513885
O86   O     O_R   0.683630 0.947350 0.257570 -0.459054
O87   O     O_R   0.257570 0.052650 0.316370 -0.475644
O88   O     O_R   0.742430 0.947350 0.683630 -0.488677
O89   O     O_R   0.947350 0.257570 0.316370 -0.490054
O90   O     O_R   0.816370 0.757570 0.947350 -0.490424
O91   O     O_R   0.052650 0.742430 0.683630 -0.489204
O92   O     O_R   0.742430 0.947350 0.316370 -0.462028
O93   O     O_R   0.257570 0.052650 0.683630 -0.441160
O94   O     O_R   0.052650 0.742430 0.316370 -0.485926
O95   O     O_R   0.947350 0.257570 0.683630 -0.487586
O96   O     O_R   0.742430 0.052650 0.683630 -0.443096
O97   O     O_R   0.257570 0.947350 0.316370 -0.482265
O98   O     O_R   0.052650 0.257570 0.683630 -0.437374
O99   O     O_R   0.947350 0.742430 0.316370 -0.475696
O100  O     O_R   0.257570 0.947350 0.683630 -0.489143
O101  O     O_R   0.183630 0.052650 0.757570 -0.441859
O102  O     O_R   0.742430 0.052650 0.316370 -0.495459
O103  O     O_R   0.947350 0.742430 0.683630 -0.452551
O104  O     O_R   0.052650 0.257570 0.316370 -0.486579
O105  O     O_3   0.746749 0.865022 0.132961 -0.648993
O106  O     O_3   0.253150 0.134782 0.867228 -0.636130
O107  O     O_3   0.110608 0.889431 0.237590 -0.632397
O108  O     O_3   0.890787 0.108399 0.763936 -0.628201
O109  O     O_3   0.222292 0.899458 0.903079 -0.642759
O110  O     O_3   0.775711 0.101714 0.098057 -0.639781
O111  O     O_3   0.870144 0.868126 0.747649 -0.632315
O112  O     O_R   0.052650 0.183630 0.757570 -0.497261
O113  O     O_R   0.816370 0.947350 0.242430 -0.452264
O114  O     O_3   0.096923 0.100505 0.222396 -0.642267
O115  O     O_3   0.777588 0.100607 0.902967 -0.641743
O116  O     O_3   0.237245 0.889820 0.110232 -0.620359
O117  O     O_3   0.101685 0.097956 0.775794 -0.632763
O118  O     O_3   0.898322 0.902063 0.224159 -0.636871
O119  O     O_3   0.235736 0.108010 0.108887 -0.622033
O120  O     O_3   0.765649 0.892318 0.892640 -0.630693
O121  O     O_3   0.894123 0.105356 0.232564 -0.624403
O122  O     O_3   0.108962 0.891860 0.764037 -0.623336
O123  O     O_3   0.105262 0.232375 0.894159 -0.628513
O124  O     O_R   0.183630 0.757570 0.947350 -0.459627
O125  O     O_3   0.894702 0.767586 0.105874 -0.619784
O126  O     O_3   0.110438 0.762515 0.110461 -0.620079
O127  O     O_3   0.865129 0.253358 0.867824 -0.642380
O128  O     O_3   0.895096 0.768900 0.895227 -0.622299
O129  O     O_3   0.131500 0.253029 0.134169 -0.646223
O130  O     O_3   0.867072 0.253206 0.134851 -0.652607
O131  O     O_3   0.135031 0.746616 0.867769 -0.646782
O132  O     O_3   0.247701 0.367994 0.134693 -0.645401
O133  O     O_3   0.737702 0.610457 0.889434 -0.619527
O134  O     O_3   0.104891 0.397256 0.730697 -0.642634
O135  O     O_R   0.816370 0.242430 0.052650 -0.504556
O136  O     O_3   0.889761 0.610227 0.262770 -0.617879
O137  O     O_3   0.724304 0.402015 0.898233 -0.633945
O138  O     O_3   0.266922 0.606886 0.105073 -0.644559
O139  O     O_3   0.889788 0.389902 0.262807 -0.616125
O140  O     O_3   0.101706 0.597924 0.724191 -0.643710
O141  O     O_3   0.262408 0.610523 0.889422 -0.622900
O142  O     O_3   0.737962 0.389142 0.110978 -0.625545
O143  O     O_3   0.108692 0.607968 0.264457 -0.616540
O144  O     O_3   0.890243 0.390213 0.736779 -0.636434
O145  O     O_3   0.735601 0.607895 0.108754 -0.619576
O146  O     O_R   0.183630 0.947350 0.242430 -0.492866
O147  O     O_3   0.267736 0.394831 0.894247 -0.628460
O148  O     O_3   0.902855 0.600929 0.723955 -0.652276
O149  O     O_3   0.110927 0.389117 0.261942 -0.616397
O150  O     O_3   0.598254 0.099776 0.723523 -0.638544
O151  O     O_3   0.390215 0.890287 0.263222 -0.620664
O152  O     O_3   0.610341 0.737487 0.889519 -0.623161
O153  O     O_3   0.397154 0.273099 0.099473 -0.642613
O154  O     O_3   0.635333 0.867418 0.246525 -0.646882
O155  O     O_3   0.401664 0.099901 0.723895 -0.638157
O156  O     O_3   0.610541 0.262370 0.110640 -0.625964
O157  O     O_R   0.816370 0.052650 0.757570 -0.462286
O158  O     O_3   0.389764 0.737294 0.889719 -0.622737
O159  O     O_3   0.390485 0.890453 0.736530 -0.626531
O160  O     O_3   0.632329 0.135134 0.246656 -0.647030
O161  O     O_3   0.365239 0.246844 0.867271 -0.634686
O162  O     O_3   0.632484 0.753512 0.135215 -0.648958
O163  O     O_3   0.389888 0.110109 0.262896 -0.621225
O164  O     O_3   0.609915 0.890052 0.736922 -0.627066
O165  O     O_3   0.395351 0.730545 0.102567 -0.642375
O166  O     O_3   0.605760 0.267660 0.894714 -0.626908
O167  O     O_3   0.889616 0.737448 0.389558 -0.622259
O168  O     O_R   0.816370 0.757570 0.052650 -0.508536
O169  O     O_3   0.102971 0.269010 0.605136 -0.634281
O170  O     O_3   0.262470 0.889615 0.389459 -0.617177
O171  O     O_3   0.752640 0.132816 0.635604 -0.647808
O172  O     O_3   0.110105 0.262842 0.389957 -0.626179
O173  O     O_3   0.864846 0.753571 0.637594 -0.645500
O174  O     O_3   0.736240 0.109156 0.391607 -0.623508
O175  O     O_3   0.262112 0.889368 0.610765 -0.622422
O176  O     O_3   0.105484 0.732790 0.606050 -0.628610
O177  O     O_3   0.889294 0.262072 0.389270 -0.620196
O178  O     O_3   0.738391 0.888688 0.611394 -0.627274
O179  O     O_R   0.183630 0.242430 0.947350 -0.509792
O180  O     O_3   0.262421 0.110497 0.389420 -0.619798
O181  O     O_3   0.889513 0.262352 0.610654 -0.621661
O182  O     O_3   0.135084 0.753427 0.367532 -0.650829
O183  O     O_3   0.247414 0.132803 0.635425 -0.634214
O184  O     O_3   0.722271 0.903164 0.399382 -0.639738
O185  O     O_3   0.762040 0.389278 0.610820 -0.624305
O186  O     O_3   0.222592 0.600569 0.403028 -0.644620
O187  O     O_3   0.609816 0.390180 0.236805 -0.631052
O188  O     O_3   0.389455 0.610560 0.762447 -0.625141
O189  O     O_3   0.236857 0.390179 0.390195 -0.632051
O190  O     O_R   0.816370 0.947350 0.757570 -0.488251
O191  O     O_3   0.774750 0.601975 0.598250 -0.636226
O192  O     O_3   0.402034 0.398364 0.775780 -0.634590
O193  O     O_3   0.596843 0.600505 0.222243 -0.655106
O194  O     O_3   0.762537 0.610383 0.389542 -0.619421
O195  O     O_3   0.230918 0.394989 0.602958 -0.633738
O196  O     O_3   0.609750 0.609784 0.763227 -0.621575
O197  O     O_3   0.401770 0.400148 0.223629 -0.642848
O198  O     O_3   0.253170 0.634829 0.632922 -0.653723
O199  O     O_3   0.763047 0.390172 0.390035 -0.618275
O200  O     O_3   0.396719 0.600948 0.228952 -0.643923
O201  O     O_R   0.183630 0.052650 0.242430 -0.512065
O202  O     O_3   0.632834 0.365171 0.746892 -0.640341
O203  O     O_3   0.596846 0.222278 0.399371 -0.645103
O204  O     O_3   0.389471 0.762308 0.610700 -0.616042
O205  O     O_3   0.610190 0.762719 0.610303 -0.616546
O206  O     O_3   0.389608 0.237471 0.389530 -0.624012
O207  O     O_3   0.389566 0.762317 0.389486 -0.616469
O208  O     O_3   0.602859 0.227027 0.599410 -0.645360
O209  O     O_3   0.397191 0.226744 0.599329 -0.635419
O210  O     O_3   0.608819 0.764261 0.391955 -0.616526
O211  O     O_R   0.816370 0.242430 0.947350 -0.454121
O212  O     O_R   0.242430 0.816370 0.052650 -0.484940
O213  O     O_R   0.183630 0.757570 0.052650 -0.487530
O214  O     O_R   0.816370 0.052650 0.242430 -0.484241
O215  O     O_R   0.183630 0.947350 0.757570 -0.475508
O216  O     O_R   0.757570 0.052650 0.816370 -0.500461
O217  O     O_R   0.242430 0.947350 0.183630 -0.485091
O218  O     O_R   0.947350 0.757570 0.816370 -0.504955
O219  O     O_R   0.052650 0.242430 0.183630 -0.464412
O220  O     O_R   0.242430 0.947350 0.816370 -0.513540
O221  O     O_R   0.757570 0.052650 0.183630 -0.515122
O222  O     O_R   0.052650 0.242430 0.816370 -0.470385
O223  O     O_R   0.757570 0.183630 0.947350 -0.464662
O224  O     O_R   0.947350 0.757570 0.183630 -0.478469
O225  O     O_R   0.242430 0.052650 0.183630 -0.471507
O226  O     O_R   0.757570 0.947350 0.816370 -0.501720
O227  O     O_R   0.052650 0.757570 0.183630 -0.484842
O228  O     O_R   0.947350 0.242430 0.816370 -0.487890
O229  O     O_R   0.757570 0.947350 0.183630 -0.500602
O230  O     O_R   0.242430 0.052650 0.816370 -0.503167
O231  O     O_R   0.947350 0.242430 0.183630 -0.457186
O232  O     O_R   0.052650 0.757570 0.816370 -0.480303
O233  O     O_R   0.447350 0.316370 0.242430 -0.454790
O234  O     O_R   0.052650 0.816370 0.757570 -0.498798
O235  O     O_R   0.552650 0.683630 0.757570 -0.485839
O236  O     O_R   0.242430 0.316370 0.552650 -0.445236
O237  O     O_R   0.757570 0.683630 0.447350 -0.484020
O238  O     O_R   0.552650 0.316370 0.757570 -0.443346
O239  O     O_R   0.447350 0.683630 0.242430 -0.497462
O240  O     O_R   0.757570 0.316370 0.447350 -0.479424
O241  O     O_R   0.242430 0.683630 0.552650 -0.454202
O242  O     O_R   0.447350 0.683630 0.757570 -0.483867
O243  O     O_R   0.552650 0.316370 0.242430 -0.489245
O244  O     O_R   0.242430 0.683630 0.447350 -0.472342
O245  O     O_R   0.947350 0.183630 0.242430 -0.511295
O246  O     O_R   0.757570 0.316370 0.552650 -0.479219
O247  O     O_R   0.552650 0.683630 0.242430 -0.478407
O248  O     O_R   0.447350 0.316370 0.757570 -0.448045
O249  O     O_R   0.757570 0.683630 0.552650 -0.453800
O250  O     O_R   0.242430 0.316370 0.447350 -0.492429
O251  O     O_R   0.683630 0.242430 0.552650 -0.459857
O252  O     O_R   0.316370 0.757570 0.447350 -0.484804
O253  O     O_R   0.683630 0.552650 0.757570 -0.478875
O254  O     O_R   0.316370 0.447350 0.242430 -0.517345
O255  O     O_R   0.683630 0.757570 0.447350 -0.472486
O256  O     O_R   0.757570 0.816370 0.947350 -0.491532
O257  O     O_R   0.316370 0.242430 0.552650 -0.444558
O258  O     O_R   0.683630 0.447350 0.242430 -0.495834
O259  O     O_R   0.316370 0.552650 0.757570 -0.495382
O260  O     O_R   0.316370 0.757570 0.552650 -0.479749
O261  O     O_R   0.683630 0.242430 0.447350 -0.513881
O262  O     O_R   0.316370 0.447350 0.757570 -0.496017
O263  O     O_R   0.683630 0.552650 0.242430 -0.511347
O264  O     O_R   0.316370 0.242430 0.447350 -0.489321
O265  O     O_R   0.683630 0.757570 0.552650 -0.483720
O266  O     O_R   0.316370 0.552650 0.242430 -0.450185
O267  O     O_R   0.242430 0.183630 0.052650 -0.498219
O268  O     O_R   0.683630 0.447350 0.757570 -0.495826
O269  O     O_R   0.757570 0.552650 0.316370 -0.475712
O270  O     O_R   0.242430 0.447350 0.683630 -0.499404
O271  O     O_R   0.447350 0.757570 0.316370 -0.472453
O272  O     O_R   0.552650 0.242430 0.683630 -0.515523
O273  O     O_R   0.242430 0.447350 0.316370 -0.491196
O274  O     O_R   0.757570 0.552650 0.683630 -0.498555
O275  O     O_R   0.552650 0.242430 0.316370 -0.469560
O276  O     O_R   0.447350 0.757570 0.683630 -0.482387
O277  O     O_R   0.242430 0.552650 0.683630 -0.508525
O278  O     O_R   0.947350 0.183630 0.757570 -0.501986
O279  O     O_R   0.757570 0.447350 0.316370 -0.483553
O280  O     O_R   0.552650 0.757570 0.683630 -0.483342
O281  O     O_R   0.447350 0.242430 0.316370 -0.483241
O282  O     O_R   0.757570 0.447350 0.683630 -0.492379
O283  O     O_R   0.242430 0.552650 0.316370 -0.504121
O284  O     O_R   0.447350 0.242430 0.683630 -0.518893
O285  O     O_R   0.552650 0.757570 0.316370 -0.490807
O286  O     O_R   0.447350 0.816370 0.742430 -0.486822
O287  O     O_R   0.552650 0.183630 0.257570 -0.456907
O288  O     O_R   0.742430 0.816370 0.552650 -0.493598

loop_
_geom_bond_atom_site_label_1
_geom_bond_atom_site_label_2
_ccdc_geom_bond_type
C73   C206  A    
C45   C253  S    
Cu48  O79   S    
C213  O271  A    
H24   O138  S    
Cu28  O283  S    
C110  O110  S    
C6    C280  S    
C245  O66   A    
C98   C161  A    
Cu40  O19   S    
Cu43  O25   S    
Cu16  O222  S    
C88   C177  A    
Cu6   O54   S    
C83   C154  A    
C263  O124  A    
Cu14  O85   S    
C87   C176  A    
H41   O155  S    
C223  O74   A    
Cu42  O34   S    
C81   C124  S    
Cu14  O230  S    
C196  O196  S    
C81   C178  A    
C74   C225  S    
Cu5   O213  S    
Cu16  O62   S    
C178  O178  S    
H22   O137  S    
C179  O280  A    
Cu1   Cu17  S    
H69   O183  S    
C258  O248  A    
C226  O27   A    
Cu11  Cu44  S    
C28   C195  A    
H75   O189  S    
H94   O208  S    
C26   C197  A    
C36   C142  A    
H39   O153  S    
Cu28  O266  S    
H80   O194  S    
C213  O14   A    
C21   C263  S    
C187  O187  S    
C84   C155  A    
Cu6   Cu34  S    
Cu22  O248  S    
C186  O186  S    
Cu4   O214  S    
C68   O83   A    
C24   O60   A    
Cu13  O56   S    
C8    C264  S    
C33   C232  S    
Cu36  O38   S    
C216  O276  A    
C57   O84   A    
Cu21  O237  S    
C8    C114  A    
C39   C242  S    
H38   O152  S    
Cu4   O102  S    
C200  O200  S    
C190  O257  A    
C80   C146  S    
C58   C164  A    
C124  O76   A    
C14   C121  A    
C22   C130  A    
C103  C256  S    
Cu48  O59   S    
C234  O91   A    
C161  O161  S    
H31   O145  S    
C239  O22   A    
Cu16  O228  S    
Cu24  O247  S    
C31   C200  A    
H13   O127  S    
C214  O10   A    
C284  C287  S    
H44   O159  S    
C90   O86   A    
C243  O44   A    
C9    C128  A    
Cu6   O135  S    
H18   O132  S    
C106  C287  A    
C266  O13   A    
C7    C119  A    
C113  O82   A    
Cu37  O37   S    
H93   O207  S    
C32   C139  A    
C25   C105  A    
C74   C181  A    
C111  O111  S    
C17   C127  A    
C19   C271  S    
Cu33  O30   S    
C234  O65   A    
C58   C205  A    
Cu35  O21   S    
C215  O260  A    
C146  O102  A    
C285  O229  A    
Cu9   O216  S    
C192  O192  S    
Cu25  O251  S    
C249  O243  A    
C91   C278  S    
C85   C151  A    
C159  O159  S    
H58   O172  S    
Cu39  O7    S    
C246  O51   A    
C210  O210  S    
C99   C162  A    
H84   O198  S    
C24   O70   A    
C40   C192  A    
Cu33  O16   S    
Cu36  O14   S    
C262  O135  A    
C57   C97   S    
C39   C145  A    
C236  O23   A    
C181  O181  S    
C4    C122  A    
Cu30  O270  S    
C214  O261  A    
Cu2   O63   S    
C236  O270  A    
H2    O116  S    
C271  O256  A    
C198  O198  S    
C197  O197  S    
Cu8   Cu9   S    
C154  O154  S    
C262  O57   A    
C65   C189  A    
C19   C120  A    
Cu24  O239  S    
C219  O7    A    
H76   O191  S    
C127  O127  S    
C54   C258  S    
Cu23  O75   S    
H81   O195  S    
C201  O16   A    
Cu39  O10   S    
C158  O158  S    
C146  O72   A    
Cu11  O218  S    
C14   C130  A    
Cu38  O27   S    
C175  O175  S    
C162  O162  S    
C40   C147  A    
C43   C208  A    
C129  O129  S    
Cu2   O90   S    
C235  O18   A    
Cu39  O18   S    
C253  O41   A    
C12   C273  S    
C23   C123  A    
C220  O285  A    
C42   C228  S    
C194  O194  S    
H51   O165  S    
C209  O209  S    
C101  O81   A    
C225  O26   A    
C13   O59   A    
C109  O109  S    
C136  O136  S    
C64   C171  A    
Cu46  O80   S    
Cu29  O258  S    
Cu35  O3    S    
Cu10  O217  S    
Cu41  O49   S    
C41   C148  A    
Cu6   O69   S    
H10   O125  S    
Cu48  O64   S    
C22   C262  S    
C238  O250  A    
C93   C173  A    
C36   C252  S    
C274  O245  A    
Cu36  O4    S    
Cu32  O45   S    
C49   C155  A    
H33   O148  S    
C97   C142  A    
C246  O238  A    
C67   C203  A    
C100  C137  A    
Cu47  Cu48  S    
C251  O34   A    
C119  O119  S    
C243  O262  A    
C280  O190  A    
H73   O187  S    
C258  O37   A    
C237  O269  A    
C8    C129  A    
C231  O279  A    
Cu34  O223  S    
C69   C175  A    
C241  O282  A    
Cu3   Cu14  S    
C70   C176  A    
C84   C183  A    
C204  O204  S    
C278  O95   A    
C226  O244  A    
C4    C109  A    
C34   C141  A    
Cu1   O94   S    
H49   O163  S    
Cu18  Cu32  S    
C6    C111  A    
C244  O50   A    
C276  O223  A    
C72   C178  A    
C87   C140  A    
C271  O90   A    
H56   O110  S    
H25   O139  S    
C46   O103  A    
C284  O101  A    
C88   C139  A    
Cu2   O168  S    
Cu11  O65   S    
C259  O38   A    
Cu12  O278  S    
C39   C193  A    
H64   O178  S    
C53   C203  A    
C54   C192  A    
C134  O134  S    
C139  O139  S    
H30   O144  S    
C13   O71   A    
C92   C172  A    
C32   C199  A    
C86   C150  A    
C115  O115  S    
C79   C84   S    
C79   O85   A    
Cu35  O15   S    
C5    C110  A    
C276  O211  A    
C218  O252  A    
C274  O231  A    
H5    O119  S    
C254  O233  A    
C151  O151  S    
C248  O253  A    
C82   C135  S    
Cu18  O281  S    
C51   C250  S    
C51   C188  A    
C252  O36   A    
C240  O283  A    
H16   O130  S    
Cu18  O243  S    
C206  O206  S    
C245  O89   A    
Cu45  O245  S    
C62   C230  S    
C272  O267  A    
H12   O106  S    
C240  O19   A    
C179  O9    A    
C71   C235  S    
C104  C153  A    
C227  O32   A    
H77   O192  S    
C59   C165  A    
C74   C185  A    
H91   O205  S    
Cu5   O124  S    
C99   C145  A    
H90   O204  S    
C70   C198  A    
C232  O29   A    
Cu4   O92   S    
Cu29  O279  S    
H87   O202  S    
H61   O175  S    
Cu22  O284  S    
C3    C115  A    
Cu37  O51   S    
H79   O193  S    
Cu8   O96   S    
C53   C217  S    
C266  O179  A    
H45   O109  S    
H68   O182  S    
Cu23  O68   S    
C41   C191  A    
C65   C172  A    
C259  O247  A    
C225  O246  A    
H71   O185  S    
C253  O235  A    
H70   O184  S    
H43   O158  S    
C47   C254  S    
Cu17  O61   S    
Cu23  O212  S    
C35   O104  A    
H42   O156  S    
C63   C170  A    
Cu26  O260  S    
Cu1   O99   S    
C100  C223  S    
C283  O157  A    
Cu10  O225  S    
C193  O193  S    
C182  O182  S    
C44   C207  A    
C59   C244  S    
Cu25  O246  S    
C70   C233  S    
Cu5   Cu23  S    
C270  O222  A    
C135  O87   A    
C15   C261  S    
H20   O134  S    
C14   C274  S    
H37   O151  S    
C76   C190  S    
C199  O199  S    
C59   C200  A    
C1    C95   S    
C282  O217  A    
C143  O143  S    
C79   O93   A    
Cu25  Cu39  S    
Cu20  Cu35  S    
Cu37  O12   S    
Cu19  O235  S    
C43   C150  A    
Cu47  O267  S    
Cu38  O11   S    
C28   C236  S    
Cu12  O95   S    
C77   C210  A    
H34   O108  S    
Cu41  O32   S    
C224  O264  A    
Cu3   O100  S    
C10   C270  S    
C78   C175  A    
C81   C164  A    
C65   C238  S    
C75   C186  A    
H8    O122  S    
H78   O114  S    
C157  O100  A    
C177  O177  S    
C76   C183  A    
C46   O58   A    
C92   C149  A    
Cu35  O31   S    
C17   C115  A    
C244  O239  A    
C38   C241  S    
C48   C154  A    
C229  O237  A    
C2    O53   A    
C49   C221  S    
Cu1   O2    S    
H55   O170  S    
H50   O164  S    
C248  O49   A    
C1    O61   A    
Cu9   O226  S    
Cu15  O229  S    
C48   C210  A    
C168  O8    A    
C95   C167  A    
C201  O255  A    
C185  O185  S    
Cu43  O28   S    
H32   O147  S    
C27   C196  A    
C3    C108  A    
H85   O199  S    
C68   O55   A    
C265  O218  A    
C189  O189  S    
Cu31  O41   S    
C144  O144  S    
C268  O168  A    
C10   C117  A    
Cu7   O87   S    
C18   C126  A    
C105  O105  S    
Cu7   O97   S    
H21   O136  S    
C33   C198  A    
H95   O209  S    
C203  O203  S    
C94   C112  S    
C95   C136  A    
C138  O138  S    
Cu28  O273  S    
C55   C259  S    
Cu27  O274  S    
Cu9   O82   S    
C16   C127  A    
Cu29  O263  S    
Cu45  O35   S    
C282  O146  A    
C279  O220  A    
C56   C206  A    
C69   C204  A    
Cu47  O13   S    
Cu41  O20   S    
Cu3   O215  S    
Cu30  O259  S    
H88   O203  S    
C47   C197  A    
C67   C214  S    
C220  O4    A    
H48   O162  S    
C75   C182  A    
C221  O5    A    
H15   O129  S    
C218  O6    A    
C122  O122  S    
Cu8   O88   S    
Cu34  O74   S    
Cu22  O238  S    
H54   O169  S    
Cu28  O254  S    
Cu26  O252  S    
C222  O288  A    
C250  O242  A    
C104  C267  S    
C219  O251  A    
C20   C129  A    
C126  O126  S    
C85   C101  S    
Cu27  O268  S    
C29   C237  S    
C135  O77   A    
C238  O21   A    
C147  O147  S    
Cu17  O227  S    
C68   C96   S    
Cu19  O242  S    
C86   C113  S    
C28   C134  A    
C7    C114  A    
C11   C125  A    
C18   C275  S    
H89   O115  S    
Cu48  O179  S    
Cu16  O52   S    
Cu36  O50   S    
C80   C160  A    
C278  O52   A    
Cu12  O98   S    
Cu28  Cu40  S    
H74   O188  S    
H53   O167  S    
C19   C128  A    
C52   C216  S    
C168  O281  A    
Cu21  O255  S    
C93   C148  A    
C230  O31   A    
C15   C107  A    
C275  O212  A    
Cu45  O89   S    
C42   C149  A    
C25   C125  A    
C21   C131  A    
C215  O11   A    
C208  O208  S    
C22   C110  A    
C96   C141  A    
C73   C180  A    
C171  O171  S    
Cu30  O277  S    
C149  O149  S    
Cu27  O253  S    
C45   C152  A    
C157  O73   A    
C61   C229  S    
C34   C251  S    
C117  C287  A    
C264  O35   A    
H36   O150  S    
Cu27  Cu41  S    
C174  O174  S    
H67   O111  S    
C35   C92   S    
H27   O141  S    
C45   C196  A    
Cu44  O46   S    
C202  O202  S    
Cu2   O60   S    
C247  O254  A    
C30   C137  A    
C63   C207  A    
C228  O273  A    
C11   C269  S    
C227  O274  A    
Cu27  O282  S    
Cu20  O236  S    
C156  O156  S    
Cu46  O24   S    
C62   C195  A    
H11   O126  S    
C30   C202  A    
C249  O45   A    
Cu44  O234  S    
C180  O180  S    
Cu44  O103  S    
Cu15  O86   S    
Cu4   O113  S    
C211  O12   A    
C241  O20   A    
Cu43  O36   S    
H17   O131  S    
Cu19  O280  S    
C44   C213  S    
H7    O121  S    
Cu31  O47   S    
C152  O152  S    
C10   C123  A    
C18   C116  A    
Cu26  Cu38  S    
C37   C240  S    
C281  O225  A    
Cu24  Cu36  S    
Cu31  O286  S    
C60   C166  A    
C242  O263  A    
C77   C201  S    
C52   C204  A    
Cu47  O71   S    
C2    C89   S    
C72   C222  S    
C190  O15   A    
C261  O227  A    
C98   C147  A    
C23   C106  A    
C47   C153  A    
Cu40  O33   S    
C113  O96   A    
Cu43  O43   S    
H96   O210  S    
H59   O173  S    
C268  O24   A    
H1    O105  S    
Cu33  O288  S    
C31   C138  A    
H60   O174  S    
C90   O92   A    
C164  O164  S    
C283  O216  A    
H62   O176  S    
C112  O98   A    
C137  O137  S    
C91   C181  A    
C128  O128  S    
C124  O88   A    
C260  O228  A    
C285  O113  A    
Cu13  O219  S    
C25   C268  S    
C141  O141  S    
C26   C247  S    
H9    O123  S    
C251  O259  A    
C35   O56   A    
C48   C220  S    
Cu5   O55   S    
C62   C169  A    
C53   C160  A    
Cu3   O101  S    
C38   C144  A    
C150  O150  S    
Cu24  O285  S    
C254  O42   A    
H14   O128  S    
Cu11  O58   S    
C121  O121  S    
C43   C211  S    
C71   C199  A    
C72   C205  A    
C233  O17   A    
H40   O154  S    
C51   C158  A    
C112  O62   A    
C85   C170  A    
C108  O108  S    
C167  O167  S    
C36   C187  A    
C125  O125  S    
C89   C182  A    
Cu24  O271  S    
C80   C174  A    
C89   C143  A    
C27   C248  S    
C256  O63   A    
Cu29  O269  S    
C42   C189  A    
C101  O97   A    
C9    C265  S    
Cu38  O17   S    
C16   C260  S    
C273  O234  A    
C272  O79   A    
C83   C184  A    
C107  C288  A    
C261  O2    A    
C118  C286  A    
C40   C243  S    
H23   O107  S    
Cu33  O22   S    
Cu32  O8    S    
C230  O236  A    
C78   C159  A    
C29   C136  A    
C12   C122  A    
C120  O120  S    
C104  C132  A    
Cu44  O91   S    
Cu20  O250  S    
Cu21  O249  S    
Cu40  O40   S    
C4    C279  S    
Cu8   O190  S    
C67   C174  A    
C61   C167  A    
Cu6   O211  S    
C20   C119  A    
Cu2   Cu46  S    
Cu12  Cu16  S    
Cu37  O5    S    
C21   C109  A    
Cu13  O231  S    
Cu42  O29   S    
Cu40  O48   S    
C76   C209  A    
C9    C111  A    
Cu39  O26   S    
C96   C158  A    
C41   C227  S    
C282  C288  S    
Cu5   O67   S    
C12   C131  A    
C66   C239  S    
Cu30  O262  S    
C24   C99   S    
C170  O170  S    
Cu18  O275  S    
C69   C215  S    
C60   C246  S    
C267  O78   A    
H26   O140  S    
C212  O75   A    
C188  O188  S    
C64   C208  A    
C56   C163  A    
H28   O142  S    
C217  O287  A    
C87   C234  S    
H29   O143  S    
Cu19  Cu31  S    
C155  O155  S    
Cu45  O104  S    
C100  C166  A    
Cu25  O240  S    
C132  O132  S    
Cu10  O81   S    
Cu34  O84   S    
C94   C169  A    
H35   O149  S    
Cu7   O146  S    
C97   C156  A    
C273  O232  A    
C49   C209  A    
C82   C163  A    
C33   C140  A    
C29   C194  A    
C5    C121  A    
C277  O214  A    
C77   C184  A    
H6    O120  S    
C184  O184  S    
Cu14  O220  S    
C102  C138  A    
C165  O165  S    
C13   C98   S    
C131  O131  S    
C163  O163  S    
Cu46  O70   S    
C88   C245  S    
C252  O258  A    
C265  O46   A    
C118  O118  S    
C107  O107  S    
Cu20  O264  S    
C270  O112  A    
Cu31  O9    S    
C15   C126  A    
C263  O68   A    
C228  O33   A    
C66   C173  A    
C58   C179  S    
C160  O160  S    
Cu21  Cu33  S    
C232  O277  A    
Cu15  O221  S    
Cu21  O265  S    
Cu7   O201  S    
C222  O265  A    
C279  O215  A    
H57   O171  S    
C52   C159  A    
C3    C283  S    
C235  O240  A    
C32   C231  S    
H86   O200  S    
C54   C161  A    
C280  O226  A    
C57   O54   A    
H92   O206  S    
Cu3   O93   S    
C50   C187  A    
C6    C120  A    
Cu15  O72   S    
Cu32  O287  S    
Cu7   Cu10  S    
C250  O47   A    
C145  O145  S    
C123  O123  S    
C172  O172  S    
C1    O99   A    
C44   C151  A    
H52   O166  S    
Cu34  O57   S    
H82   O196  S    
C86   C171  A    
C217  O275  A    
C205  O205  S    
Cu10  O77   S    
C50   C156  A    
C55   C193  A    
C221  O284  A    
C207  O207  S    
Cu8   O157  S    
Cu4   Cu15  S    
C176  O176  S    
C267  O64   A    
Cu26  O241  S    
C281  O201  A    
C102  C212  S    
Cu1   O1    S    
Cu11  O232  S    
H46   O160  S    
C64   C219  S    
Cu14  O73   S    
C284  O230  A    
C78   C157  S    
C148  O148  S    
H47   O161  S    
C66   C191  A    
C56   C168  S    
C257  O40   A    
Cu25  O261  S    
C31   C257  S    
C257  O266  A    
C223  O69   A    
C34   C188  A    
C255  O39   A    
C50   C249  S    
Cu22  O272  S    
C264  O219  A    
C37   C143  A    
C103  C152  A    
Cu12  O112  S    
C256  O80   A    
H63   O177  S    
C102  C165  A    
Cu19  O276  S    
C224  O3    A    
C191  O191  S    
H19   O133  S    
C275  O213  A    
C229  O30   A    
Cu42  O44   S    
Cu38  O6    S    
Cu17  O224  S    
C211  O272  A    
C17   C276  S    
C26   C132  A    
C91   C144  A    
C269  O224  A    
C60   C202  A    
H65   O180  S    
C83   C90   S    
C20   C272  S    
Cu20  O257  S    
C247  O48   A    
H4    O118  S    
C73   C224  S    
C117  O117  S    
C231  O28   A    
C75   C226  S    
Cu30  Cu42  S    
C37   C186  A    
C55   C162  A    
C239  O249  A    
H66   O181  S    
C7    C281  S    
C285  C286  S    
C169  O169  S    
Cu29  Cu43  S    
H3    O117  S    
C212  O67   A    
C38   C185  A    
C130  O130  S    
C23   C266  S    
C153  O153  S    
C105  C286  A    
Cu32  O42   S    
C242  O43   A    
C173  O173  S    
C71   C177  A    
Cu23  O83   S    
C260  O278  A    
C255  O268  A    
C103  C133  A    
C114  O114  S    
Cu46  O256  S    
C11   C118  A    
C237  O25   A    
Cu22  Cu37  S    
C166  O166  S    
C269  O1    A    
Cu26  O244  S    
C61   C194  A    
Cu9   O76   S    
C133  O133  S    
C94   C134  A    
Cu47  O78   S    
C116  O116  S    
C116  C288  A    
C63   C218  S    
C46   C93   S    
Cu17  O53   S    
C2    O94   A    
C233  O241  A    
H83   O197  S    
H72   O186  S    
C16   C108  A    
C277  O221  A    
C142  O142  S    
C183  O183  S    
Cu42  O23   S    
C27   C133  A    
C82   C180  A    
C5    C277  S    
C195  O195  S    
C30   C255  S    
Cu41  O39   S    
Cu13  Cu45  S    
Cu18  O233  S    
Cu13  O66   S    
C216  O286  A    
C106  O106  S    
C140  O140  S    
