data_mof_unit_28466.cif
_audit_creation_date              2013-03-05T16:36:14-0500
_audit_creation_method            fapswitch 2.2
_symmetry_space_group_name_H-M    P1
_symmetry_Int_Tables_number       1
_space_group_crystal_system       triclinic
_cell_length_a                    27.800909
_cell_length_b                    9.085242
_cell_length_c                    7.77552
_cell_angle_alpha                 90.086827
_cell_angle_beta                  90.000068
_cell_angle_gamma                 89.999938
_cell_volume                      1963.9229273

loop_
_atom_site_label
_atom_site_type_symbol
_atom_site_description
_atom_site_fract_x
_atom_site_fract_y
_atom_site_fract_z
_atom_type_partial_charge
O1    O     O_R   0.500000 0.288390 0.642760 -0.560552
O2    O     O_R   0.500000 0.711610 0.357240 -0.560552
O3    O     O_R   0.500000 0.711610 0.642760 -0.583736
O4    O     O_R   0.500000 0.288390 0.357240 -0.583736
C1    C     C_R   0.500000 0.219992 0.499924 0.875876
C2    C     C_R   0.500000 0.780008 0.500076 0.875875
O5    O     O_R   0.430260 0.500000 0.642770 -0.558435
O6    O     O_R   0.569740 0.500000 0.357230 -0.558109
O7    O     O_R   0.569740 0.500000 0.642770 -0.558109
O8    O     O_R   0.430260 0.500000 0.357230 -0.558435
C3    C     C_R   0.407392 0.500000 0.500000 0.952369
C4    C     C_R   0.592612 0.500000 0.500000 0.951837
Cu1   Cu    Cu3+1 0.500000 0.500000 0.669080 1.120759
Cu2   Cu    Cu3+1 0.500000 0.500000 0.330920 1.120759
C5    C     C_R   0.178218 0.452982 0.356775 0.656101
C6    C     C_R   0.821809 0.547389 0.643055 0.656049
C7    C     C_R   0.178218 0.547022 0.643222 0.656101
C8    C     C_R   0.821809 0.452598 0.356948 0.656050
O9    O     O_2   0.203139 0.406833 0.217805 -0.450826
O10   O     O_2   0.796889 0.594000 0.781826 -0.450466
O11   O     O_2   0.203139 0.593173 0.782192 -0.450826
O12   O     O_2   0.796889 0.405987 0.218178 -0.450466
N1    N     N_R   0.202271 0.500002 0.499999 -0.427621
N2    N     N_R   0.797753 0.499994 0.500001 -0.427668
C9    C     C_R   0.279013 0.616921 0.423379 0.374265
C10   C     C_R   0.721006 0.383771 0.578043 0.374195
C11   C     C_R   0.279013 0.383082 0.576619 0.374263
C12   C     C_R   0.721006 0.616221 0.421958 0.374194
C13   C     C_R   0.329440 0.616875 0.422513 0.269326
C14   C     C_R   0.670579 0.383823 0.578912 0.269509
C15   C     C_R   0.329440 0.383127 0.577486 0.269327
C16   C     C_R   0.670580 0.616172 0.421089 0.269510
C17   C     C_R   0.253885 0.500002 0.499999 0.035376
C18   C     C_R   0.746136 0.499995 0.500001 0.035496
C19   C     C_R   0.102052 0.500000 0.499999 -0.036155
C20   C     C_R   0.897975 0.499994 0.500001 -0.036245
C21   C     C_R   0.127734 0.452536 0.353927 -0.046258
C22   C     C_R   0.872293 0.547752 0.645947 -0.046404
C23   C     C_R   0.127734 0.547466 0.646071 -0.046258
C24   C     C_R   0.872293 0.452236 0.354056 -0.046403
C25   C     C_R   0.102665 0.405638 0.208513 -0.129007
C26   C     C_R   0.897362 0.594865 0.791269 -0.128799
C27   C     C_R   0.102665 0.594363 0.791485 -0.129007
C28   C     C_R   0.897362 0.405121 0.208735 -0.128800
C29   C     C_R   0.354700 0.500001 0.500000 -0.329773
C30   C     C_R   0.645312 0.499998 0.500000 -0.329690
H1    H     H_    0.121584 0.368780 0.094455 0.202161
H2    H     H_    0.878443 0.631963 0.905232 0.202296
H3    H     H_    0.121584 0.631221 0.905543 0.202161
H4    H     H_    0.878443 0.368021 0.094772 0.202296
C31   C     C_R   0.974422 0.451859 0.351063 0.040611
C32   C     C_R   0.025604 0.548036 0.648978 0.040688
C33   C     C_R   0.974422 0.548132 0.648938 0.040611
C34   C     C_R   0.025604 0.451959 0.351022 0.040687
C35   C     C_R   0.949172 0.499995 0.500001 0.084230
C36   C     C_R   0.050854 0.499998 0.500000 0.084266
C37   C     C_R   0.947277 0.404893 0.206802 -0.210278
C38   C     C_R   0.052749 0.594685 0.793375 -0.210348
C39   C     C_R   0.947277 0.595094 0.793201 -0.210277
C40   C     C_R   0.052749 0.405313 0.206625 -0.210348
H5    H     H_    0.963224 0.366728 0.088921 0.148631
H6    H     H_    0.036802 0.632559 0.911373 0.148562
H7    H     H_    0.963224 0.633256 0.911084 0.148630
H8    H     H_    0.036802 0.367438 0.088626 0.148562
C41   C     C_1   0.499999 0.065379 0.499896 -0.060238
C42   C     C_1   0.499999 0.934621 0.500104 -0.060239
N3    N     N_1   0.500000 0.500000 0.076820 -0.010686
N4    N     N_1   0.500000 0.500000 0.923180 -0.010686
Cl1   Cl    Cl    0.360803 0.233577 0.670236 -0.439126
Cl2   Cl    Cl    0.639232 0.764953 0.326579 -0.439234
Cl3   Cl    Cl    0.360803 0.766424 0.329763 -0.439126
Cl4   Cl    Cl    0.639231 0.235044 0.673422 -0.439237
Cl5   Cl    Cl    0.246796 0.235714 0.669388 -0.387156
Cl6   Cl    Cl    0.753223 0.762793 0.327450 -0.387580
Cl7   Cl    Cl    0.246796 0.764289 0.330610 -0.387155
Cl8   Cl    Cl    0.753221 0.237197 0.672552 -0.387578

loop_
_geom_bond_atom_site_label_1
_geom_bond_atom_site_label_2
_geom_bond_distance
_ccdc_geom_bond_type
C38   H6    1.075082 S    
O5    Cu1   1.949598 S    
C19   C23   1.408634 A    
O3    C2    1.272439 A    
C12   Cl6   1.765910 S    
C33   C39   1.417152 A    
C34   C40   1.417134 A    
C11   C17   1.404715 A    
O5    C3    1.279265 A    
C7    N1    1.366887 A    
O1    C1    1.271829 A    
C19   C21   1.408634 A    
C22   C26   1.394381 A    
C9    C13   1.401924 A    
C7    C23   1.403687 A    
C8    C24   1.403682 A    
C5    C21   1.403687 A    
C20   C24   1.408654 A    
O7    Cu1   1.949596 S    
C27   C38   1.387783 A    
C10   C18   1.404731 A    
N1    C17   1.434916 S    
C10   Cl8   1.765910 S    
Cu2   N3    1.975759 S    
C31   C37   1.417152 A    
O3    Cu1   1.933698 S    
C6    O10   1.349883 S    
C5    N1    1.366888 A    
C12   C18   1.404731 A    
C6    N2    1.366913 A    
Cu1   Cu2   2.629371 S    
O4    Cu2   1.933699 S    
O2    C2    1.271829 A    
C33   C35   1.422534 A    
C23   C27   1.394359 A    
C34   C36   1.422511 A    
C11   C15   1.401924 A    
N3    N4    1.194632 T    
C12   C16   1.401916 A    
C4    C30   1.465108 S    
O8    Cu2   1.949598 S    
C27   H3    1.083695 S    
C16   Cl2   1.769082 S    
C7    O11   1.349830 S    
C13   C29   1.409113 A    
C9    Cl7   1.765793 S    
C5    O9    1.349829 S    
C15   Cl1   1.769002 S    
C2    C42   1.404697 S    
C28   C37   1.387762 A    
O6    C4    1.279329 A    
C25   H1    1.083695 S    
C26   H2    1.083769 S    
C32   C38   1.417133 A    
C1    C41   1.404697 S    
C10   C14   1.401916 A    
C8    N2    1.366912 A    
C3    C29   1.464877 S    
O1    Cu1   1.933082 S    
C32   C33   1.422923 A    
C28   H4    1.083768 S    
O6    Cu2   1.949595 S    
C19   C36   1.423362 A    
C8    O12   1.349883 S    
C16   C30   1.409222 A    
C14   C30   1.409223 A    
C25   C40   1.387780 A    
O4    C1    1.272439 A    
C26   C39   1.387762 A    
C14   Cl4   1.769083 S    
C37   H5    1.075146 S    
C39   H7    1.075146 S    
C40   H8    1.075083 S    
C31   C34   1.422926 A    
C20   C22   1.408652 A    
C20   C35   1.423337 A    
C31   C35   1.422533 A    
C21   C25   1.394359 A    
O2    Cu2   1.933082 S    
O7    C4    1.279329 A    
N2    C18   1.434997 S    
O8    C3    1.279266 A    
C24   C28   1.394382 A    
C41   C42   1.187969 T    
C15   C29   1.409113 A    
C9    C17   1.404715 A    
C11   Cl5   1.765794 S    
C32   C36   1.422511 A    
C6    C22   1.403682 A    
C13   Cl3   1.769004 S    
Cu1   N4    1.975759 S    
