data_mof_unit_59551.cif
_audit_creation_date              2012-12-11T15:41:32-0500
_audit_creation_method            fapswitch 2.2
_symmetry_space_group_name_H-M    P1
_symmetry_Int_Tables_number       1
_space_group_crystal_system       triclinic
_cell_length_a                    15.027766
_cell_length_b                    14.907481
_cell_length_c                    15.066893
_cell_angle_alpha                 108.469523
_cell_angle_beta                  110.613131
_cell_angle_gamma                 108.937198
_cell_volume                      2610.15678836

loop_
_atom_site_label
_atom_site_type_symbol
_atom_type_description
_atom_site_fract_x
_atom_site_fract_y
_atom_site_fract_z
_atom_type_partial_charge
C1    C     C_R   0.254052 0.067495 0.972975 -0.133139
C2    C     C_R   0.797405 0.990545 0.083230 -0.160217
C3    C     C_R   0.787571 0.324874 0.322838 0.029213
C4    C     C_R   0.138370 0.699365 0.696216 -0.044633
C5    C     C_R   0.498307 0.937781 0.300733 0.165160
C6    C     C_R   0.498982 0.960009 0.676678 0.075825
C7    C     C_R   0.494758 0.294866 0.922395 0.057322
C8    C     C_R   0.505151 0.676160 0.958797 0.059379
C9    C     C_R   0.155272 0.111839 0.592387 -0.124780
C10   C     C_R   0.874972 0.769045 0.205290 -0.240368
C11   C     C_R   0.259561 0.202894 0.658756 -0.017847
C12   C     C_R   0.765318 0.689948 0.134697 -0.114887
C13   C     C_R   0.287574 0.282759 0.758822 0.044713
C14   C     C_R   0.716423 0.656982 0.023346 0.070418
C15   C     C_R   0.209071 0.272754 0.790546 -0.228338
C16   C     C_R   0.778555 0.703795 0.983208 -0.170552
C17   C     C_R   0.104974 0.181394 0.724621 -0.054938
C18   C     C_R   0.888895 0.782308 0.053880 -0.085851
C19   C     C_R   0.077472 0.099885 0.625151 -0.033392
C20   C     C_R   0.938067 0.814545 0.165346 -0.006869
C21   C     C_R   0.406900 0.478007 0.841827 -0.210486
C22   C     C_R   0.594524 0.464022 0.926631 -0.210310
C23   C     C_R   0.764080 0.223195 0.314676 -0.046068
C24   C     C_R   0.197246 0.794542 0.701427 -0.043949
C25   C     C_R   0.507548 0.573921 0.914047 0.064147
C26   C     C_R   0.493621 0.374537 0.884027 0.074045
C27   C     C_R   0.604048 0.565396 0.948951 0.033663
C28   C     C_R   0.397932 0.378263 0.828595 0.035030
C29   C     C_R   0.863827 0.456929 0.512562 -0.042492
C30   C     C_R   0.042000 0.582804 0.504376 -0.181311
C31   C     C_R   0.952334 0.548940 0.606590 -0.150490
C32   C     C_R   0.955747 0.491120 0.412238 -0.178850
C33   C     C_R   0.041104 0.610138 0.601416 0.125700
C34   C     C_R   0.868327 0.426925 0.417072 0.140906
C35   C     C_R   0.554960 0.903467 0.545040 -0.256387
C36   C     C_R   0.432722 0.971653 0.422816 -0.275084
C37   C     C_R   0.555712 0.896301 0.451337 0.513014
C38   C     C_R   0.432881 0.980351 0.515682 0.493120
C39   C     C_R   0.494624 0.931627 0.391557 -0.120385
C40   C     C_R   0.493872 0.945442 0.576710 -0.112172
C41   C     C_R   0.138931 0.105778 0.148023 0.581309
C42   C     C_R   0.945086 0.997712 0.946235 0.496860
C43   C     C_R   0.043429 0.097917 0.144859 -0.329223
C44   C     C_R   0.039439 0.005538 0.949649 -0.329447
C45   C     C_R   0.408161 0.906997 0.207949 -0.137063
C46   C     C_R   0.591263 0.033916 0.777306 -0.076926
C47   C     C_R   0.947855 0.044259 0.044247 -0.110062
C48   C     C_R   0.135538 0.058795 0.049678 -0.105263
C49   C     C_R   0.587457 0.295803 0.989186 -0.124494
C50   C     C_R   0.411341 0.686191 0.940295 -0.110524
C51   C     C_R   0.589768 0.996749 0.300599 -0.084267
C52   C     C_R   0.408442 0.935242 0.687703 0.020095
C53   C     C_R   0.406550 0.205189 0.899896 -0.082011
C54   C     C_R   0.594025 0.779305 0.032225 -0.093488
C55   C     C_R   0.751002 0.313311 0.219965 -0.155800
C56   C     C_R   0.198730 0.698549 0.788553 -0.121022
C57   C     C_R   0.250728 0.973526 0.063309 -0.088681
C58   C     C_R   0.795137 0.080901 0.989710 -0.060713
C59   C     C_R   0.225307 0.049850 0.045637 0.168082
C60   C     C_R   0.850870 0.038840 0.040093 0.157737
H1    H     H_    0.237456 0.115693 0.935633 0.119472
H2    H     H_    0.828131 0.963148 0.139670 0.108097
H3    H     H_    0.135403 0.050559 0.515596 0.133151
H4    H     H_    0.911330 0.792642 0.290771 0.121269
H5    H     H_    0.318448 0.212068 0.632127 0.186048
H6    H     H_    0.718565 0.653280 0.166427 0.144580
H7    H     H_    0.229277 0.334665 0.867181 0.140262
H8    H     H_    0.742207 0.678011 0.897275 0.156029
H9    H     H_    0.046236 0.174435 0.751494 0.162742
H10   H     H_    0.936008 0.816690 0.021313 0.155621
H11   H     H_    0.332794 0.480219 0.801797 0.134888
H12   H     H_    0.668999 0.460006 0.957480 0.128937
H13   H     H_    0.794684 0.406999 0.514832 0.145369
H14   H     H_    0.111857 0.629675 0.501026 0.118768
H15   H     H_    0.952700 0.571339 0.682546 0.126154
H16   H     H_    0.959968 0.467505 0.338613 0.125732
H17   H     H_    0.602175 0.877608 0.593441 0.222295
H18   H     H_    0.388173 0.001581 0.377480 0.217090
H19   H     H_    0.043461 0.133658 0.219731 0.174068
H20   H     H_    0.036883 0.966155 0.873947 0.195437
H21   H     H_    0.324176 0.851999 0.179120 0.116899
H22   H     H_    0.674390 0.074279 0.795338 0.131852
H23   H     H_    0.670821 0.345612 0.012696 0.090007
H24   H     H_    0.327189 0.623008 0.889414 0.096258
H25   H     H_    0.672043 0.021602 0.357496 0.135609
H26   H     H_    0.324540 0.882390 0.623236 0.130458
H27   H     H_    0.322300 0.169157 0.840254 0.150789
H28   H     H_    0.678907 0.805271 0.066655 0.123212
H29   H     H_    0.762785 0.376748 0.197851 0.112915
H30   H     H_    0.171365 0.640400 0.814483 0.108899
H31   H     H_    0.231473 0.935777 0.109330 0.166073
H32   H     H_    0.822765 0.135212 0.960052 0.102833
N1    N     N_R   0.293810 0.002730 0.945950 -0.040312
N2    N     N_R   0.706190 0.997270 0.054050 -0.049626
N3    N     N_R   0.706160 0.152130 0.208910 -0.079891
N4    N     N_R   0.293840 0.847870 0.791090 -0.045912
N5    N     N_R   0.443140 0.945920 0.152090 -0.045601
N6    N     N_R   0.556860 0.054080 0.847910 -0.061283
N7    N     N_R   0.556830 0.208940 0.002760 -0.044021
N8    N     N_R   0.443170 0.791060 0.997240 -0.043786
N9    N     N_R   0.556790 0.002750 0.208910 -0.059845
N10   N     N_R   0.443210 0.997250 0.791090 -0.031185
N11   N     N_R   0.443180 0.152110 0.945950 -0.039685
N12   N     N_R   0.556820 0.847890 0.054050 -0.045948
N13   N     N_R   0.706170 0.208950 0.152090 -0.048874
N14   N     N_R   0.293830 0.791050 0.847910 -0.052652
N15   N     N_R   0.293800 0.945910 0.002760 -0.064304
N16   N     N_R   0.706200 0.054090 0.997240 -0.052611
Ni1   Ni    Ni4+2 0.369690 0.999990 0.869700 0.295177
Ni2   Ni    Ni4+2 0.630310 0.000010 0.130300 0.211860
Ni3   Ni    Ni4+2 0.369670 0.869670 0.000000 0.218882
Ni4   Ni    Ni4+2 0.630330 0.130330 0.000000 0.214003
Cl1   Cl    Cl    0.630775 0.841379 0.410079 -0.612909
Cl2   Cl    Cl    0.363701 0.045282 0.555868 -0.698090
Cl3   Cl    Cl    0.260015 0.173313 0.274230 -0.613453
Cl4   Cl    Cl    0.824256 0.923472 0.818117 -0.652889
C61   C     C_2   0.822542 0.199308 0.397705 0.492800
H33   H     H_    0.828402 0.125776 0.372108 -0.001885
O1    O     O_2   0.866141 0.260964 0.494451 -0.578532
C62   C     C_2   0.149833 0.845542 0.643423 0.443260
H34   H     H_    0.068395 0.797318 0.572579 0.027888
O2    O     O_2   0.200052 0.942806 0.676275 -0.587864
C63   C     C_2   0.968273 0.002221 0.554743 0.584655
H35   H     H_    0.948160 0.940966 0.477540 -0.023347
O3    O     O_2   0.899634 0.988700 0.582071 -0.507969
C64   C     C_2   0.055535 0.892742 0.240696 0.509056
H36   H     H_    0.089783 0.923125 0.327427 0.038391
O4    O     O_2   0.116013 0.922295 0.206920 -0.588271

loop_
_geom_bond_atom_site_label_1
_geom_bond_atom_site_label_2
_ccdc_geom_bond_type
C18   H10   S    
N7    N11   A    
C17   H9    S    
C64   H36   S    
C3    C23   A    
C51   H25   S    
C61   O1    D    
C58   H32   S    
C50   H24   S    
C63   H35   S    
C19   C63   S    
C7    C26   S    
C21   H11   S    
C54   N12   A    
C35   C37   A    
C24   N4    A    
C4    C24   A    
C2    C60   A    
C63   O3    D    
C37   Cl1   S    
C58   C60   A    
N8    N12   A    
C30   H14   S    
C21   C25   A    
N3    N13   A    
C17   C19   A    
C47   C60   S    
C46   H22   S    
C3    C55   A    
C9    C19   A    
C10   C20   A    
C31   C33   A    
C13   C28   S    
C16   H8    S    
C14   C27   S    
C6    C46   A    
C18   C20   A    
C56   H30   S    
C46   N6    A    
C15   H7    S    
C38   C40   A    
C4    C56   A    
C8    C25   S    
C41   C43   A    
C42   C44   A    
C41   Cl3   S    
N5    Ni3   S    
C22   H12   S    
C26   C28   A    
C62   O2    D    
N14   Ni3   S    
C45   H21   S    
C24   C62   S    
N6    Ni4   S    
C2    N2    A    
C6    C40   S    
C7    C49   A    
C8    C54   A    
C3    C34   S    
N9    Ni2   S    
N6    N10   A    
C5    C45   A    
C29   C34   A    
C35   H17   S    
N16   Ni4   S    
C32   C34   A    
C23   C61   S    
C20   C64   S    
C49   N7    A    
C31   H15   S    
C44   H20   S    
C29   C31   A    
N2    N16   A    
C53   H27   S    
C16   C18   A    
C9    C11   A    
C56   N14   A    
C10   C12   A    
C42   Cl4   S    
C57   N15   A    
N13   Ni4   S    
C12   C14   A    
C22   C27   A    
C13   C15   A    
C14   C16   A    
C51   N9    A    
C7    C53   A    
C36   C38   A    
C8    C50   A    
C62   H34   S    
N12   Ni2   S    
C48   C59   S    
C15   C17   A    
C5    C39   S    
N4    N14   A    
C4    C33   S    
C64   O4    D    
C57   H31   S    
C30   C33   A    
C9    H3    S    
N15   Ni3   S    
C21   C28   A    
C36   C39   A    
C10   H4    S    
C43   C47   A    
N3    Ni2   S    
C1    H1    S    
C32   H16   S    
C25   C27   A    
N4    Ni1   S    
C50   N8    A    
C52   N10   A    
N11   Ni1   S    
C54   H28   S    
C1    C59   A    
C35   C40   A    
C37   C39   A    
C44   C48   A    
C45   N5    A    
C61   H33   S    
N1    N15   A    
C30   C32   A    
C11   C13   A    
C49   H23   S    
C12   H6    S    
C53   N11   A    
C38   Cl2   S    
N7    Ni4   S    
C52   H26   S    
C55   N13   A    
C41   C48   A    
N2    Ni2   S    
C58   N16   A    
C42   C47   A    
C55   H29   S    
C57   C59   A    
C2    H2    S    
C29   H13   S    
N8    Ni3   S    
C1    N1    A    
C22   C26   A    
C23   N3    A    
C5    C51   A    
N10   Ni1   S    
C36   H18   S    
C6    C52   A    
C43   H19   S    
N5    N9    A    
C11   H5    S    
N1    Ni1   S    
