data_mof_unit_48769.cif
_audit_creation_date              2012-12-11T17:33:18-0500
_audit_creation_method            fapswitch 2.2
_symmetry_space_group_name_H-M    P1
_symmetry_Int_Tables_number       1
_space_group_crystal_system       triclinic
_cell_length_a                    6.936474
_cell_length_b                    21.753045
_cell_length_c                    22.226181
_cell_angle_alpha                 107.564552
_cell_angle_beta                  90.3198
_cell_angle_gamma                 90.327528
_cell_volume                      3197.19217066

loop_
_atom_site_label
_atom_site_type_symbol
_atom_type_description
_atom_site_fract_x
_atom_site_fract_y
_atom_site_fract_z
_atom_type_partial_charge
O1    O     O_R   0.505730 0.449200 0.552060 -0.546991
O2    O     O_R   0.171560 0.427840 0.423150 -0.504215
O3    O     O_R   0.005630 0.550800 0.447940 -0.541028
C1    C     C_R   0.338609 0.409576 0.398581 0.826518
O4    O     O_R   0.175730 0.441570 0.550050 -0.551346
O5    O     O_R   0.009820 0.564620 0.575740 -0.546793
C2    C     C_R   0.344809 0.428089 0.568449 0.662857
O6    O     O_R   0.501530 0.435380 0.424260 -0.500410
O7    O     O_3   0.340640 0.540360 0.508280 -0.372822
V1    V     V_3+5 0.064080 0.492510 0.498460 1.540259
O8    O     O_R   0.680360 0.572160 0.576850 -0.551222
C3    C     C_R   0.848377 0.590079 0.601480 0.699951
O9    O     O_R   0.676190 0.558430 0.449950 -0.502875
C4    C     C_R   0.844868 0.571975 0.431558 0.776090
V2    V     V_3+5 0.564610 0.507490 0.501540 1.554874
O10   O     O_3   0.837920 0.459640 0.491720 -0.350050
C5    C     C_R   0.087758 0.810700 0.158770 0.612128
C6    C     C_R   0.100037 0.850667 0.119767 -0.250680
H1    H     H_    0.234214 0.852674 0.095719 0.173311
C7    C     C_R   0.939778 0.886425 0.110798 -0.200636
C8    C     C_R   0.767748 0.881761 0.142569 -0.256632
H2    H     H_    0.640883 0.907736 0.135679 0.145841
C9    C     C_R   0.757158 0.843988 0.184063 0.420326
C10   C     C_R   0.916907 0.807142 0.191132 -0.128122
C11   C     C_1   0.906099 0.766329 0.232172 0.121173
C12   C     C_1   0.895655 0.732793 0.266858 0.013190
C13   C     C_R   0.044492 0.660342 0.320678 -0.097071
H3    H     H_    0.181352 0.664785 0.299028 0.157921
C14   C     C_R   0.031480 0.621503 0.360684 -0.191871
H4    H     H_    0.159330 0.596550 0.368483 0.206171
C15   C     C_R   0.855769 0.614361 0.389633 -0.194942
C16   C     C_R   0.693007 0.647699 0.377351 0.604532
C17   C     C_R   0.706916 0.686462 0.337167 -0.199295
H5    H     H_    0.580337 0.711566 0.328423 0.146078
C18   C     C_R   0.882282 0.692889 0.308554 0.006727
C19   C     C_R   0.847237 0.644586 0.661329 -0.144694
C20   C     C_R   0.948010 0.855347 0.838729 -0.104995
C21   C     C_R   0.130604 0.790744 0.747907 -0.064350
C22   C     C_R   0.114277 0.844951 0.800805 -0.132675
C23   C     C_R   0.795650 0.810450 0.821625 -0.177522
C24   C     C_R   0.812084 0.754999 0.768591 0.022977
C25   C     C_R   0.981665 0.744944 0.731576 0.080839
C26   C     C_R   0.999059 0.689645 0.678573 -0.210870
C27   C     C_R   0.680715 0.654797 0.699139 -0.237596
C28   C     C_R   0.663220 0.708952 0.752091 0.597811
H6    H     H_    0.127379 0.682853 0.649743 0.138578
H7    H     H_    0.561439 0.620799 0.687265 0.155433
H8    H     H_    0.261087 0.784327 0.720164 0.127811
H9    H     H_    0.234142 0.878714 0.812524 0.120792
H10   H     H_    0.667892 0.817630 0.850704 0.179498
C29   C     C_R   0.337578 0.353990 0.339075 -0.335288
C30   C     C_R   0.458344 0.145815 0.160529 -0.061901
C31   C     C_R   0.638818 0.213629 0.251594 -0.097059
C32   C     C_R   0.626668 0.159509 0.198203 -0.203289
C33   C     C_R   0.300677 0.187674 0.178060 -0.153567
C34   C     C_R   0.313253 0.243031 0.231362 -0.020648
C35   C     C_R   0.483586 0.256286 0.268605 0.033591
C36   C     C_R   0.495287 0.311615 0.322170 0.515585
C37   C     C_R   0.170372 0.340531 0.300355 0.597666
C38   C     C_R   0.158853 0.285813 0.247538 -0.266763
H11   H     H_    0.771015 0.222245 0.279145 0.170968
H12   H     H_    0.028170 0.276943 0.219167 0.167138
H13   H     H_    0.750747 0.128271 0.186199 0.124753
H14   H     H_    0.170687 0.178283 0.149322 0.119955
C39   C     C_R   0.594705 0.164127 0.816866 0.455672
C40   C     C_R   0.606042 0.127077 0.858895 -0.237205
H15   H     H_    0.744305 0.107648 0.866525 0.129816
C41   C     C_R   0.440567 0.113891 0.889470 -0.112821
C42   C     C_R   0.264063 0.140707 0.878816 -0.174232
H16   H     H_    0.133779 0.132018 0.901718 0.142615
C43   C     C_R   0.253645 0.179889 0.839123 -0.207528
H17   H     H_    0.116886 0.200894 0.832780 0.188028
C44   C     C_R   0.417650 0.191830 0.807783 0.021830
C45   C     C_1   0.402923 0.232371 0.766550 -0.000554
C46   C     C_1   0.391114 0.265962 0.731914 -0.049448
C47   C     C_R   0.546656 0.330210 0.670643 -0.128459
H18   H     H_    0.686727 0.318759 0.686047 0.111300
C48   C     C_R   0.535565 0.369440 0.630943 -0.155166
H19   H     H_    0.668352 0.387342 0.616784 0.120616
C49   C     C_R   0.355712 0.385498 0.610071 -0.045267
C50   C     C_R   0.187400 0.360885 0.630029 -0.159278
H20   H     H_    0.046531 0.372082 0.615104 0.119348
C51   C     C_R   0.198943 0.321615 0.669800 -0.129402
H21   H     H_    0.067506 0.303401 0.684569 0.109540
C52   C     C_R   0.378603 0.306173 0.690425 0.122290
O11   O     O_R   0.294110 0.064720 0.075690 -0.541103
O12   O     O_R   0.619980 0.058360 0.949870 -0.541095
O13   O     O_R   0.785810 0.935300 0.924300 -0.539294
C53   C     C_R   0.450967 0.071764 0.931443 0.712578
O14   O     O_R   0.624080 0.072230 0.076800 -0.540810
O15   O     O_R   0.789930 0.949270 0.052130 -0.537247
C54   C     C_R   0.457004 0.090503 0.101207 0.691008
O16   O     O_R   0.289980 0.050750 0.947860 -0.541172
O17   O     O_3   0.454970 0.959660 0.991750 -0.362100
V3    V     V_3+5 0.731560 0.007480 0.001530 1.406991
O18   O     O_R   0.119360 0.941610 0.050140 -0.541268
C55   C     C_R   0.950599 0.928342 0.068660 0.758819
O19   O     O_R   0.115260 0.927740 0.923220 -0.536346
C56   C     C_R   0.947233 0.909870 0.898553 0.708795
V4    V     V_3+5 0.231020 0.992470 0.998490 1.417290
O20   O     O_3   0.957740 0.040330 0.008250 -0.371995
F1    F     F_    0.242106 0.774715 0.164307 -0.638332
F2    F     F_    0.499611 0.716429 0.786752 -0.692204
F3    F     F_    0.657219 0.322874 0.358700 -0.648163
F4    F     F_    0.016611 0.380642 0.313162 -0.633558
O21   O     O_3   0.761119 0.176802 0.788576 -0.583812
C57   C     C_3   0.772780 0.134484 0.726260 0.057417
H22   H     H_    0.856807 0.159683 0.698232 0.149503
H23   H     H_    0.629484 0.122533 0.702292 0.108251
C58   C     C_3   0.878810 0.072548 0.725349 -0.332652
H24   H     H_    0.019892 0.085001 0.750021 0.208635
H25   H     H_    0.792109 0.044846 0.750294 0.183581
C59   C     C_3   0.913351 0.030026 0.657950 -0.820347
H26   H     H_    0.773912 0.016226 0.632479 0.232291
H27   H     H_    0.988997 0.985476 0.658913 0.232074
H28   H     H_    0.004293 0.055907 0.632283 0.230355
O22   O     O_3   0.584956 0.837897 0.213036 -0.521244
C60   C     C_3   0.541742 0.895900 0.260651 0.129643
H29   H     H_    0.382465 0.898247 0.265788 0.150136
H30   H     H_    0.586309 0.940210 0.248828 0.075638
C61   C     C_3   0.631645 0.895724 0.323729 -0.332404
H31   H     H_    0.585688 0.851391 0.334943 0.212245
H32   H     H_    0.791363 0.895666 0.320125 0.178436
C62   C     C_3   0.570878 0.954732 0.377166 -0.826058
H33   H     H_    0.617911 0.999623 0.367317 0.231252
H34   H     H_    0.638899 0.953298 0.422061 0.236422
H35   H     H_    0.411778 0.955198 0.382714 0.230943
F5    F     F_    0.520597 0.643600 0.404472 -0.705923

loop_
_geom_bond_atom_site_label_1
_geom_bond_atom_site_label_2
_ccdc_geom_bond_type
C40   C41   A    
C33   C34   A    
C13   C14   A    
C24   C25   A    
C4    C15   S    
C1    O6    A    
C50   H20   S    
O14   V3    S    
C31   C32   A    
C37   F4    S    
C47   C48   A    
C21   C25   A    
C20   C23   A    
O5    C3    A    
C21   C22   A    
C48   C49   A    
C32   H13   S    
V2    O10   S    
C39   C44   A    
C34   C35   A    
C38   H12   S    
C6    H1    S    
C44   C45   S    
C42   C43   A    
C60   H29   S    
C61   C62   S    
C28   F2    S    
C58   H25   S    
C58   H24   S    
C31   H11   S    
C46   C52   S    
C7    C55   S    
C15   C16   A    
C41   C42   A    
O12   V3    S    
C9    C10   A    
O1    V2    S    
C3    C19   S    
O11   V4    S    
O7    V1    S    
C21   H8    S    
C30   C33   A    
C59   H28   S    
C40   H15   S    
O13   V3    S    
C37   C38   A    
O9    C4    A    
C33   H14   S    
C57   H23   S    
O17   V3    S    
O8    V2    S    
C50   C51   A    
C30   C32   A    
C17   H5    S    
O4    C2    A    
C5    C10   A    
C45   C46   T    
C1    C29   S    
C10   C11   S    
C43   C44   A    
C31   C35   A    
C48   H19   S    
C13   C18   A    
C11   C12   T    
O15   C55   A    
C34   C38   A    
C60   C61   S    
O2    C1    A    
C5    F1    S    
C9    O22   S    
C14   H4    S    
O14   C54   A    
C51   H21   S    
O16   V4    S    
O17   V4    S    
C57   H22   S    
O18   C55   A    
C5    C6    A    
C29   C36   A    
C47   H18   S    
C58   C59   S    
C61   H31   S    
O3    C4    A    
C62   H35   S    
C23   C24   A    
C22   H9    S    
O19   C56   A    
O6    V2    S    
O19   V4    S    
C8    C9    A    
C57   C58   S    
C19   C27   A    
C29   C37   A    
C25   C26   A    
O2    V1    S    
C39   O21   S    
C20   C56   S    
C27   C28   A    
C62   H34   S    
C59   H26   S    
C51   C52   A    
O1    C2    A    
C49   C50   A    
O5    V1    S    
O8    C3    A    
C27   H7    S    
C16   C17   A    
C16   F5    S    
O9    V2    S    
O7    V2    S    
C43   H17   S    
C14   C15   A    
O3    V1    S    
V1    O10   S    
O22   C60   S    
C35   C36   A    
C23   H10   S    
O18   V4    S    
V4    O20   S    
C17   C18   A    
C6    C7    A    
C53   O16   A    
C42   H16   S    
C26   H6    S    
C60   H30   S    
C61   H32   S    
O13   C56   A    
C30   C54   S    
O15   V3    S    
C12   C18   S    
O4    V1    S    
C36   F3    S    
C7    C8    A    
C20   C22   A    
C39   C40   A    
O21   C57   S    
C13   H3    S    
O12   C53   A    
C24   C28   A    
C2    C49   S    
C19   C26   A    
O11   C54   A    
C41   C53   S    
C8    H2    S    
C47   C52   A    
V3    O20   S    
C62   H33   S    
C59   H27   S    
