data_mof_unit_17805.cif
_audit_creation_date              2012-10-26T19:39:09-0400
_audit_creation_method            fapswitch 2.2
_symmetry_space_group_name_H-M    P1
_symmetry_Int_Tables_number       1
_space_group_crystal_system       triclinic
_cell_length_a                    12.14922
_cell_length_b                    12.537643
_cell_length_c                    7.445747
_cell_angle_alpha                 89.99952
_cell_angle_beta                  107.724339
_cell_angle_gamma                 89.999375
_cell_volume                      1080.31960265

loop_
_atom_site_label
_atom_site_type_symbol
_atom_type_description
_atom_site_fract_x
_atom_site_fract_y
_atom_site_fract_z
_atom_type_partial_charge
C1    C     C_R   0.349417 0.851256 0.454682 0.595658
C2    C     C_2   0.749250 0.783889 0.569643 0.192465
C3    C     C_2   0.749138 0.216236 0.569754 0.192593
C4    C     C_2   0.279411 0.758477 0.438057 0.204363
C5    C     C_2   0.750749 0.716111 0.430357 0.192464
C6    C     C_2   0.220701 0.258558 0.562078 0.204343
C7    C     C_2   0.220589 0.741523 0.561943 0.204363
C8    C     C_2   0.750862 0.283764 0.430246 0.192593
C9    C     C_R   0.653591 0.146040 0.546141 0.587659
C10   C     C_R   0.653613 0.853978 0.546137 0.587735
C11   C     C_R   0.349398 0.148726 0.454669 0.595489
C12   C     C_R   0.846409 0.353960 0.453859 0.587659
C13   C     C_R   0.150583 0.648744 0.545318 0.595658
C14   C     C_R   0.150602 0.351274 0.545331 0.595489
C15   C     C_R   0.846387 0.646021 0.453863 0.587736
C16   C     C_2   0.279299 0.241442 0.437922 0.204343
Cl1   Cl    Cl    0.632107 0.694646 0.223816 -0.455099
Cl2   Cl    Cl    0.208526 0.164350 0.733251 -0.454545
Cl3   Cl    Cl    0.207829 0.836104 0.732162 -0.454940
Cl4   Cl    Cl    0.632732 0.304573 0.222792 -0.455038
Cl5   Cl    Cl    0.291473 0.335650 0.266749 -0.454545
Cl6   Cl    Cl    0.867891 0.805352 0.776185 -0.455101
Cl7   Cl    Cl    0.867268 0.195427 0.777208 -0.455038
Cl8   Cl    Cl    0.292171 0.663896 0.267838 -0.454940
Cu1   Cu    Cu3+1 0.517640 1.000000 0.687200 1.160064
Cu2   Cu    Cu3+1 0.482360 1.000000 0.312800 1.182946
Cu3   Cu    Cu3+1 0.017640 0.500000 0.687200 1.182946
Cu4   Cu    Cu3+1 0.982360 0.500000 0.312800 1.160064
H1    H     H_    0.376825 0.999943 0.929007 0.304824
H2    H     H_    0.623300 0.000038 0.071101 0.260715
H3    H     H_    0.876700 0.499962 0.928899 0.260716
H4    H     H_    0.123175 0.500057 0.070993 0.304824
N1    N     N_2   0.455760 1.000000 0.031460 -0.207321
N2    N     N_2   0.544240 1.000000 0.968540 -0.226332
N3    N     N_2   0.955760 0.500000 0.031460 -0.226332
N4    N     N_2   0.044240 0.500000 0.968540 -0.207321
O1    O     O_R   0.398880 0.887420 0.621600 -0.496749
O2    O     O_R   0.630920 0.112580 0.694560 -0.465135
O3    O     O_R   0.630920 0.887420 0.694560 -0.465505
O4    O     O_R   0.369080 0.112580 0.305440 -0.444849
O5    O     O_R   0.869080 0.387420 0.305440 -0.465135
O6    O     O_R   0.130920 0.612580 0.694560 -0.445041
O7    O     O_R   0.130920 0.387420 0.694560 -0.444848
O8    O     O_R   0.869080 0.612580 0.305440 -0.465506
O9    O     O_R   0.601120 0.112580 0.378400 -0.500818
O10   O     O_R   0.601120 0.887420 0.378400 -0.500920
O11   O     O_R   0.398880 0.112580 0.621600 -0.496560
O12   O     O_R   0.898880 0.387420 0.621600 -0.500818
O13   O     O_R   0.101120 0.612580 0.378400 -0.496749
O14   O     O_R   0.101120 0.387420 0.378400 -0.496560
O15   O     O_R   0.898880 0.612580 0.621600 -0.500920
O16   O     O_R   0.369080 0.887420 0.305440 -0.445042

loop_
_geom_bond_atom_site_label_1
_geom_bond_atom_site_label_2
_ccdc_geom_bond_type
Cu3   O12   S    
C2    Cl6   S    
Cu4   O8    S    
C9    O9    A    
C12   O5    A    
C3    C9    S    
C15   O15   A    
Cu1   O2    S    
C6    C14   S    
Cu4   O13   S    
Cu1   O11   S    
Cu2   N1    S    
C11   O11   A    
N3    N4    D    
C1    O1    A    
Cu1   N2    S    
C8    C12   S    
C1    C4    S    
C14   O7    A    
N1    N2    D    
C14   O14   A    
Cu1   O3    S    
Cu3   O6    S    
Cu2   O4    S    
C16   Cl5   S    
C8    Cl4   S    
C4    C7    D    
C13   O13   A    
H4    N4    S    
C13   O6    A    
C12   O12   A    
Cu3   O15   S    
C15   O8    A    
C7    Cl3   S    
C11   O4    A    
C4    Cl8   S    
C1    O16   A    
H3    N3    S    
C6    Cl2   S    
C5    C15   S    
C2    C5    D    
C5    Cl1   S    
Cu2   O10   S    
C6    C16   D    
C2    C10   S    
H1    N1    S    
Cu4   O5    S    
C7    C13   S    
C3    C8    D    
C11   C16   S    
Cu3   Cu4   S    
Cu3   O7    S    
H2    N2    S    
C9    O2    A    
C3    Cl7   S    
Cu2   O9    S    
Cu1   O1    S    
Cu1   Cu2   S    
C10   O10   A    
Cu4   O14   S    
Cu3   N4    S    
Cu2   O16   S    
Cu4   N3    S    
C10   O3    A    
