data_mof_unit_8010.cif
_audit_creation_date              2012-10-26T21:08:11-0400
_audit_creation_method            fapswitch 2.2
_symmetry_space_group_name_H-M    P1
_symmetry_Int_Tables_number       1
_space_group_crystal_system       triclinic
_cell_length_a                    15.862424
_cell_length_b                    10.846744
_cell_length_c                    9.599291
_cell_angle_alpha                 89.041123
_cell_angle_beta                  90.013591
_cell_angle_gamma                 92.990936
_cell_volume                      1649.13114652

loop_
_atom_site_label
_atom_site_type_symbol
_atom_type_description
_atom_site_fract_x
_atom_site_fract_y
_atom_site_fract_z
_atom_type_partial_charge
C1    C     C_R   0.494775 0.262541 0.501260 0.543066
C2    C     C_R   0.333161 0.045373 0.790781 -0.134046
C3    C     C_R   0.332928 0.917436 0.789181 -0.130089
C4    C     C_R   0.339943 0.499675 0.499965 0.530393
C5    C     C_R   0.381913 0.858937 0.692463 -0.102496
C6    C     C_R   0.435370 0.927995 0.598171 -0.016974
C7    C     C_R   0.435767 0.058837 0.600514 0.015123
C8    C     C_R   0.486361 0.128358 0.502629 -0.049761
C9    C     C_R   0.526930 0.069535 0.396049 -0.130781
C10   C     C_R   0.521613 0.942444 0.386344 0.244954
C11   C     C_R   0.484050 0.870523 0.495531 0.005981
C12   C     C_3   0.083008 0.501499 0.498471 0.030090
C13   C     C_R   0.617593 0.656001 0.141088 -0.106748
C14   C     C_R   0.677287 0.729650 0.068351 -0.151207
C15   C     C_R   0.678422 0.730076 0.923064 0.237299
C16   C     C_R   0.494831 0.737137 0.498747 0.558708
C17   C     C_R   0.616966 0.658367 0.853569 -0.054892
C18   C     C_R   0.557786 0.577263 0.923979 0.098160
C19   C     C_R   0.558004 0.576571 0.073306 0.127182
C20   C     C_R   0.444906 0.426684 0.075304 0.003271
C21   C     C_R   0.444930 0.426736 0.927450 0.007582
C22   C     C_R   0.660071 0.500652 0.500034 0.551809
C23   C     C_3   0.976901 0.609992 0.542232 0.315264
C24   C     C_3   0.968739 0.409824 0.585611 -0.134102
C25   C     C_3   0.024161 0.391342 0.454797 -0.150412
C26   C     C_1   0.250235 0.500257 0.499789 -0.027021
C27   C     C_1   0.749842 0.501441 0.500080 -0.008639
C28   C     C_3   0.028267 0.520043 0.627376 0.312823
C29   C     C_3   0.502326 0.905012 0.156769 -0.103772
C30   C     C_3   0.815721 0.812156 0.897809 -0.098609
C31   C     C_3   0.013501 0.809883 0.603511 -0.131736
C32   C     C_3   0.000664 0.537928 0.861314 -0.130876
C33   C     C_3   0.917135 0.501304 0.499833 0.031107
C34   C     C_3   0.031401 0.592252 0.411695 -0.136992
C35   C     C_3   0.970895 0.481905 0.369045 -0.152858
C36   C     C_1   0.174686 0.500832 0.499270 -0.027073
C37   C     C_1   0.825432 0.501746 0.500025 -0.017891
C38   C     C_R   0.382563 0.115614 0.695926 -0.096178
Cu1   Cu    Cu3+1 0.499990 0.499990 0.640660 0.923589
Cu2   Cu    Cu3+1 0.500010 0.500010 0.359340 0.935126
H1    H     H_    0.399753 0.366521 0.131565 0.112205
H2    H     H_    0.720172 0.790146 0.126519 0.139355
H3    H     H_    0.835309 0.719962 0.934503 0.100176
H4    H     H_    0.822054 0.880467 0.982551 0.112519
H5    H     H_    0.859880 0.844077 0.813634 0.171845
H6    H     H_    0.618726 0.670472 0.743747 0.209839
H7    H     H_    0.399606 0.366935 0.873596 0.104242
H8    H     H_    0.941759 0.335228 0.655362 0.104638
H9    H     H_    0.945502 0.465330 0.262824 0.113939
H10   H     H_    0.058330 0.665536 0.340180 0.097647
H11   H     H_    0.041194 0.836526 0.500309 0.112595
H12   H     H_    0.293089 0.090428 0.863347 0.103636
H13   H     H_    0.063015 0.776890 0.675008 0.151652
H14   H     H_    0.989017 0.894231 0.649104 0.127526
H15   H     H_    0.972366 0.442620 0.875281 0.112641
H16   H     H_    0.950943 0.603284 0.836154 0.142484
H17   H     H_    0.029161 0.565867 0.962266 0.131750
H18   H     H_    0.562803 0.122645 0.317446 0.152070
H19   H     H_    0.375649 0.213937 0.695569 0.131166
H20   H     H_    0.045421 0.301667 0.417737 0.118766
H21   H     H_    0.292586 0.863079 0.860426 0.113722
H22   H     H_    0.373840 0.759674 0.689492 0.154750
H23   H     H_    0.495846 0.004231 0.129793 0.111404
H24   H     H_    0.439091 0.858526 0.176405 0.124424
H25   H     H_    0.529223 0.862299 0.063905 0.152938
H26   H     H_    0.618784 0.669111 0.250323 0.223882
N1    N     N_R   0.500800 0.501210 0.147910 -0.237833
N2    N     N_R   0.500830 0.501290 0.852040 -0.241704
O1    O     O_R   0.499990 0.319640 0.618810 -0.496662
O2    O     O_3   0.732874 0.807469 0.843612 -0.552428
O3    O     O_3   0.945911 0.721491 0.589534 -0.572613
O4    O     O_3   0.064651 0.541916 0.759429 -0.573640
O5    O     O_R   0.500000 0.319660 0.381240 -0.506454
O6    O     O_R   0.379070 0.499980 0.618770 -0.509869
O7    O     O_R   0.379080 0.500000 0.381190 -0.503305
O8    O     O_R   0.500000 0.680340 0.618760 -0.542272
O9    O     O_R   0.500010 0.680360 0.381190 -0.478414
O10   O     O_R   0.620920 0.500000 0.618810 -0.508069
O11   O     O_R   0.620930 0.500020 0.381230 -0.518050
O12   O     O_3   0.556793 0.889206 0.271756 -0.568871

loop_
_geom_bond_atom_site_label_1
_geom_bond_atom_site_label_2
_ccdc_geom_bond_type
C29   H23   S    
C1    C8    S    
Cu1   N2    S    
C20   N1    A    
C20   H1    S    
C7    C8    A    
C32   O4    S    
C12   C28   S    
C22   O11   A    
C9    H18   S    
C5    C6    A    
C18   N2    A    
Cu2   O5    S    
C34   C35   S    
Cu1   O6    S    
C4    O7    A    
C30   H5    S    
C8    C9    A    
C23   C33   S    
Cu2   N1    S    
C35   H9    S    
C19   N1    A    
C25   H20   S    
C12   C36   S    
C9    C10   A    
C32   H15   S    
C4    O6    A    
C14   H2    S    
C31   O3    S    
C29   H24   S    
C13   C14   A    
C30   H4    S    
C28   O4    S    
C32   H17   S    
C30   O2    S    
C13   H26   S    
C3    H21   S    
C34   H10   S    
C13   C19   A    
C24   H8    S    
Cu1   O10   S    
C23   O3    S    
C24   C25   S    
C22   O10   A    
C6    C11   A    
C10   O12   S    
C18   C19   A    
C23   C28   S    
C31   H13   S    
C11   C16   S    
C2    C38   A    
C23   C34   S    
C17   C18   A    
Cu1   O1    S    
Cu2   O11   S    
Cu1   O8    S    
C17   H6    S    
C2    H12   S    
C25   C35   S    
C29   H25   S    
C26   C36   T    
C22   C27   S    
C21   N2    A    
C30   H3    S    
C12   C34   S    
Cu1   Cu2   S    
C33   C37   S    
C15   C17   A    
C15   O2    S    
C16   O8    A    
C24   C28   S    
C31   H11   S    
C3    C5    A    
C4    C26   S    
C6    C7    A    
C24   C33   S    
Cu2   O7    S    
C12   C25   S    
C1    O5    A    
C2    C3    A    
C29   O12   S    
C27   C37   T    
C33   C35   S    
C7    C38   A    
C5    H22   S    
Cu2   O9    S    
C31   H14   S    
C1    O1    A    
C10   C11   A    
C38   H19   S    
C20   C21   A    
C14   C15   A    
C16   O9    A    
C32   H16   S    
C21   H7    S    
