data_mof_unit_42485.cif
_audit_creation_date              2013-03-05T15:57:47-0500
_audit_creation_method            fapswitch 2.2
_symmetry_space_group_name_H-M    P1
_symmetry_Int_Tables_number       1
_space_group_crystal_system       triclinic
_cell_length_a                    15.474956
_cell_length_b                    14.760488
_cell_length_c                    15.111156
_cell_angle_alpha                 109.412585
_cell_angle_beta                  121.210458
_cell_angle_gamma                 59.036148
_cell_volume                      2521.20322541

loop_
_atom_site_label
_atom_site_type_symbol
_atom_site_description
_atom_site_fract_x
_atom_site_fract_y
_atom_site_fract_z
_atom_type_partial_charge
C1    C     C_R   0.756470 0.992219 0.790256 -0.104639
C2    C     C_R   0.199108 0.059807 0.225174 -0.097010
H1    H     H_    0.769214 0.958164 0.851443 0.109512
H2    H     H_    0.172951 0.115478 0.175123 0.076356
N1    N     N_R   0.705410 0.966550 0.689210 -0.045392
N2    N     N_R   0.294590 0.033450 0.310790 -0.037356
C3    C     C_R   0.241113 0.291933 0.487553 -0.054348
C4    C     C_R   0.802008 0.724844 0.561136 -0.071301
H3    H     H_    0.226195 0.353487 0.451181 0.149501
H4    H     H_    0.828829 0.673042 0.615308 0.159511
N3    N     N_R   0.294590 0.188320 0.465660 -0.068760
N4    N     N_R   0.705410 0.811680 0.534340 -0.059709
C5    C     C_R   0.594457 0.215168 0.487530 -0.068328
C6    C     C_R   0.407001 0.767747 0.443760 -0.139687
H5    H     H_    0.681097 0.186829 0.507476 0.113622
H6    H     H_    0.320447 0.782179 0.401352 0.115543
N5    N     N_R   0.556610 0.157790 0.497330 -0.054552
N6    N     N_R   0.443390 0.842210 0.502670 -0.050039
C7    C     C_R   0.407067 0.976176 0.707256 0.588056
C8    C     C_R   0.594297 0.973622 0.271361 0.570229
N7    N     N_R   0.443390 0.997080 0.657540 -0.094139
N8    N     N_R   0.556610 0.002920 0.342460 -0.085442
C9    C     C_R   0.410564 0.289457 0.410100 -0.116971
C10   C     C_R   0.592591 0.693250 0.517680 -0.081391
H7    H     H_    0.325656 0.332263 0.356337 0.095477
H8    H     H_    0.678956 0.637684 0.542760 0.100721
N9    N     N_R   0.443390 0.203250 0.451380 -0.048946
N10   N     N_R   0.556610 0.796750 0.548620 -0.050182
C11   C     C_R   0.590473 0.907945 0.787051 -0.198763
C12   C     C_R   0.406335 0.044742 0.195180 -0.176394
H9    H     H_    0.676460 0.863101 0.837762 0.162839
H10   H     H_    0.319861 0.075557 0.139877 0.125442
N11   N     N_R   0.556610 0.951620 0.703500 -0.075556
N12   N     N_R   0.443390 0.048380 0.296500 -0.067194
C13   C     C_R   0.240698 0.201977 0.580862 -0.149894
C14   C     C_R   0.803626 0.815379 0.471019 -0.155450
H11   H     H_    0.227159 0.183060 0.634382 0.170096
H12   H     H_    0.836115 0.848133 0.447479 0.148422
N13   N     N_R   0.294590 0.131500 0.522480 -0.046419
N14   N     N_R   0.705410 0.868500 0.477520 -0.048261
C15   C     C_R   0.757791 0.084894 0.699910 -0.133069
C16   C     C_R   0.196205 0.969639 0.315098 -0.105766
H13   H     H_    0.771335 0.138503 0.679380 0.122305
H14   H     H_    0.164338 0.943802 0.346494 0.133731
N15   N     N_R   0.705410 0.023370 0.632390 -0.048165
N16   N     N_R   0.294590 0.976630 0.367610 -0.040810
C17   C     C_R   0.788420 0.068519 0.799587 0.138997
C18   C     C_R   0.134656 0.021635 0.225864 0.120450
C19   C     C_R   0.208972 0.303468 0.562384 0.174300
C20   C     C_R   0.865927 0.724901 0.522957 0.182447
C21   C     C_R   0.504600 0.297652 0.429177 0.086276
C22   C     C_R   0.499818 0.672788 0.447737 0.072698
C23   C     C_R   0.497436 0.921857 0.790779 -0.129587
C24   C     C_R   0.499516 0.998642 0.177456 -0.085136
H15   H     H_    0.993333 0.162674 0.082990 0.127341
H16   H     H_    0.821557 0.066486 0.991029 0.162220
Ni1   Ni    Ni4+2 0.629830 0.882720 0.617850 0.229717
Ni2   Ni    Ni4+2 0.370170 0.117280 0.382150 0.213738
Ni3   Ni    Ni4+2 0.629830 0.013030 0.487540 0.247922
Ni4   Ni    Ni4+2 0.370170 0.986970 0.512460 0.250910
H17   H     H_    0.983666 0.994374 0.150641 0.202206
H18   H     H_    0.894558 0.153652 0.894709 0.141841
H19   H     H_    0.767931 0.440131 0.837454 0.168403
H20   H     H_    0.216412 0.479436 0.088704 0.128480
C25   C     C_R   0.613942 0.581400 0.789597 -0.062989
C26   C     C_R   0.376002 0.350185 0.104499 -0.114300
H21   H     H_    0.572519 0.543489 0.716381 0.155232
H22   H     H_    0.418661 0.400801 0.135599 0.176699
C27   C     C_R   0.556580 0.688382 0.816694 -0.187228
C28   C     C_R   0.434718 0.240598 0.089447 -0.144035
H23   H     H_    0.471046 0.731285 0.764244 0.102297
H24   H     H_    0.522005 0.207406 0.106766 0.155907
C29   C     C_R   0.608517 0.738002 0.912471 0.120582
C30   C     C_R   0.379405 0.174711 0.047164 0.123772
C31   C     C_R   0.718938 0.678776 0.980300 -0.101667
C32   C     C_R   0.264641 0.219663 0.019573 -0.162648
H25   H     H_    0.760342 0.715032 0.054843 0.167833
H26   H     H_    0.219893 0.170206 0.983011 0.114969
C33   C     C_R   0.776371 0.572087 0.952635 -0.125268
C34   C     C_R   0.206519 0.329175 0.036298 -0.085868
H27   H     H_    0.861310 0.527020 0.005337 0.136537
H28   H     H_    0.118034 0.363627 0.014851 0.125943
C35   C     C_R   0.723725 0.523242 0.857634 -0.015933
C36   C     C_R   0.261993 0.394495 0.077942 -0.108913
C37   C     C_R   0.543458 0.873204 0.040414 -0.280259
C38   C     C_R   0.436185 0.038675 0.919260 -0.178804
H29   H     H_    0.581205 0.809617 0.087420 0.144577
H30   H     H_    0.395578 0.103514 0.872521 0.140328
C39   C     C_R   0.494650 0.978785 0.076980 0.110945
C40   C     C_R   0.491839 0.934132 0.885186 0.095449
C41   C     C_R   0.436766 0.062162 0.015003 0.015460
C42   C     C_R   0.546560 0.849531 0.945122 0.035746
C43   C     C_2   0.146675 0.404163 0.608569 -0.353291
C44   C     C_2   0.981931 0.649771 0.542273 -0.358657
C45   C     C_2   0.150819 0.495898 0.617071 0.477603
C46   C     C_2   0.055072 0.595099 0.627108 0.469590
H31   H     H_    0.005590 0.633263 0.480281 0.149785
H32   H     H_    0.089241 0.404249 0.629633 0.152683
C47   C     C_2   0.850067 0.117175 0.896935 -0.223159
C48   C     C_2   0.018205 0.043639 0.153071 -0.167643
H33   H     H_    0.026495 0.817306 0.054528 0.180117
H34   H     H_    0.007994 0.056742 0.470528 0.183036
C49   C     C_R   0.095735 0.720191 0.175641 0.491590
C50   C     C_R   0.833386 0.128965 0.364494 0.468972
C51   C     C_R   0.195195 0.653773 0.249714 -0.370330
C52   C     C_R   0.728964 0.212358 0.354692 -0.268547
H35   H     H_    0.190970 0.619750 0.299963 0.190221
H36   H     H_    0.656803 0.221222 0.280576 0.172753
C53   C     C_R   0.300065 0.630035 0.259081 -0.111981
C54   C     C_R   0.717201 0.287013 0.439026 -0.136064
C55   C     C_R   0.304270 0.677287 0.194124 0.387688
C56   C     C_R   0.811825 0.277007 0.536049 0.367094
C57   C     C_R   0.204627 0.746510 0.123117 -0.289061
C58   C     C_R   0.915750 0.193108 0.545354 -0.275935
H37   H     H_    0.206612 0.782697 0.072893 0.182607
H38   H     H_    0.988980 0.183534 0.618835 0.193083
C59   C     C_R   0.101689 0.766410 0.112765 -0.308451
C60   C     C_R   0.926451 0.120012 0.460745 -0.293785
C61   C     C_R   0.406200 0.457941 0.337332 -0.272704
C62   C     C_R   0.604032 0.478693 0.426583 -0.118013
H39   H     H_    0.329463 0.448734 0.298900 0.144501
H40   H     H_    0.681608 0.485022 0.458316 0.121919
C63   C     C_R   0.507521 0.375633 0.391032 0.047827
C64   C     C_R   0.501699 0.568121 0.397853 0.084894
C65   C     C_R   0.608088 0.380536 0.419903 0.136841
C66   C     C_R   0.403181 0.552951 0.333678 0.107366
C67   C     C_2   0.865112 0.103262 0.987855 -0.081415
C68   C     C_2   0.960280 0.112742 0.081873 -0.122674
O1    O     O_3   0.026838 0.616924 0.708091 -0.629192
C69   C     C_3   0.122175 0.598016 0.804216 -0.214976
H41   H     H_    0.168942 0.642158 0.817381 0.125477
H42   H     H_    0.177224 0.511823 0.810641 0.142197
H43   H     H_    0.094632 0.627449 0.867200 0.182532
O2    O     O_3   0.225093 0.496224 0.591397 -0.623933
C70   C     C_3   0.260007 0.577404 0.651756 -0.249666
H44   H     H_    0.294726 0.571983 0.736241 0.137141
H45   H     H_    0.191295 0.657107 0.629165 0.131963
H46   H     H_    0.327839 0.567448 0.637188 0.177571
N17   N     N_R   0.989179 0.739055 0.163065 0.236933
O3    O     O_R   0.897152 0.804387 0.097780 -0.426630
O4    O     O_R   0.983109 0.688262 0.213980 -0.472056
N18   N     N_R   0.845500 0.055168 0.276660 0.237139
O5    O     O_R   0.939503 0.972096 0.288239 -0.445111
O6    O     O_R   0.763287 0.070959 0.184178 -0.420492
N19   N     N_R   0.407713 0.653950 0.196518 0.227118
O7    O     O_R   0.422255 0.729008 0.187049 -0.411387
O8    O     O_R   0.479588 0.556103 0.191200 -0.432300
N20   N     N_R   0.802946 0.348844 0.625732 0.220226
O9    O     O_R   0.712033 0.390713 0.637810 -0.476399
O10   O     O_R   0.889535 0.363652 0.701080 -0.432280
O11   O     O_3   0.295053 0.005137 0.674541 -0.646213
C71   C     C_3   0.278755 0.918075 0.670526 -0.281791
H47   H     H_    0.306735 0.901114 0.749704 0.153396
H48   H     H_    0.320285 0.846452 0.626938 0.131485
H49   H     H_    0.188049 0.938861 0.628204 0.176650
O12   O     O_3   0.696111 0.968687 0.296349 -0.660146
C72   C     C_3   0.753184 0.878299 0.244703 -0.087390
H50   H     H_    0.742722 0.807209 0.239615 0.082804
H51   H     H_    0.843565 0.858047 0.289988 0.222830
H52   H     H_    0.728945 0.896205 0.167294 0.211023

loop_
_geom_bond_atom_site_label_1
_geom_bond_atom_site_label_2
_geom_bond_distance
_ccdc_geom_bond_type
C10   C22   1.389550 A    
C70   H46   1.109583 S    
C26   H22   1.080482 S    
C72   H50   1.114218 S    
C15   H13   1.080514 S    
C6    N6    1.335871 A    
C13   N13   1.347482 A    
C45   C46   1.488365 S    
C34   C36   1.396793 A    
C56   C58   1.404223 A    
N19   O7    1.301483 A    
C70   H44   1.112540 S    
C2    N2    1.330538 A    
N10   Ni1   1.832249 S    
C3    N3    1.333553 A    
C12   C24   1.372402 A    
C30   C32   1.404317 A    
C1    N1    1.331356 A    
O12   C72   1.406702 S    
C13   H11   1.077907 S    
C32   H26   1.083169 S    
C38   C41   1.367393 A    
C55   N19   1.436424 S    
C38   H30   1.086378 S    
C63   C65   1.417329 A    
N7    N11   1.356952 A    
C11   N11   1.338649 A    
C17   C47   1.462248 S    
C3    H3    1.079570 S    
C16   N16   1.346664 A    
H16   C67   1.085612 S    
C27   H23   1.079405 S    
N2    Ni2   1.832212 S    
H20   C36   1.081328 S    
C5    C21   1.376331 A    
C9    C21   1.392324 A    
C49   C51   1.405093 A    
C6    C22   1.387873 A    
C25   H21   1.081981 S    
C28   C30   1.401226 A    
C7    O11   1.386271 S    
O11   C71   1.408728 S    
C27   C29   1.404503 A    
C69   H42   1.111259 S    
C9    N9    1.341796 A    
C39   C41   1.398740 A    
N3    Ni2   1.856880 S    
C8    O12   1.383434 S    
H34   C60   1.082663 S    
C44   C46   1.348989 D    
C7    C23   1.371561 A    
C37   H29   1.084302 S    
C43   C45   1.348791 D    
N14   Ni3   1.828475 S    
C29   C31   1.406435 A    
C49   C59   1.401036 A    
C16   H14   1.081641 S    
C18   C48   1.464170 S    
C50   N18   1.438746 S    
C50   C52   1.405249 A    
N19   O8    1.300767 A    
C37   C42   1.384848 A    
C62   H40   1.081127 S    
C50   C60   1.402893 A    
C61   H39   1.079243 S    
N8    N12   1.356950 A    
C12   N12   1.320233 A    
N5    N9    1.356949 A    
C10   N10   1.335003 A    
C14   N14   1.346018 A    
N6    N10   1.356949 A    
N20   O9    1.300381 A    
C3    C19   1.386662 A    
C24   C39   1.416067 S    
C34   H28   1.082477 S    
C38   C40   1.397111 A    
N8    Ni3   1.869368 S    
C33   H27   1.082601 S    
C37   C39   1.397634 A    
C62   C65   1.388906 A    
C20   C44   1.470116 S    
C47   C67   1.338221 D    
C44   H31   1.087605 S    
C2    C18   1.380340 A    
N1    N15   1.385390 A    
C45   O2    1.393093 S    
C56   N20   1.437942 S    
H19   C35   1.081607 S    
C1    H1    1.079084 S    
C30   C41   1.475452 S    
N4    N14   1.385392 A    
C2    H2    1.079208 S    
C13   C19   1.393681 A    
C12   H10   1.078602 S    
C49   N17   1.438969 S    
C51   H35   1.082488 S    
C40   C42   1.401999 A    
C71   H49   1.109223 S    
C4    N4    1.336984 A    
C21   C63   1.476731 S    
C15   C17   1.391421 A    
C55   C57   1.402095 A    
C16   C18   1.385356 A    
N17   O4    1.301421 A    
N3    N13   1.385389 A    
C31   H25   1.081610 S    
C58   C60   1.394557 A    
N7    Ni4   1.869368 S    
C57   C59   1.392514 A    
N4    Ni1   1.856877 S    
C8    C24   1.391138 A    
C71   H48   1.114094 S    
C72   H52   1.107992 S    
C5    H5    1.073000 S    
C6    H6    1.075964 S    
C69   H43   1.109613 S    
C8    N8    1.327574 A    
C72   H51   1.108007 S    
C67   C68   1.455480 S    
C4    C20   1.379803 A    
C14   C20   1.384453 A    
C52   H36   1.081379 S    
C64   C66   1.410519 A    
O1    C69   1.410418 S    
C52   C54   1.404274 A    
N6    Ni4   1.828574 S    
C70   H45   1.111214 S    
C51   C53   1.409349 A    
N15   Ni3   1.868358 S    
N11   Ni1   1.858064 S    
N2    N16   1.385391 A    
N16   Ni4   1.868358 S    
C48   C68   1.338146 D    
C1    C17   1.388484 A    
C32   C34   1.397767 A    
C29   C42   1.482895 S    
N20   O10   1.301706 A    
N9    Ni2   1.832248 S    
C58   H38   1.082850 S    
N17   O3    1.301724 A    
O2    C70   1.410174 S    
C61   C63   1.403393 A    
N1    Ni1   1.832211 S    
H33   C59   1.082378 S    
C53   C55   1.422031 A    
C69   H41   1.112539 S    
N5    Ni3   1.828572 S    
C11   H9    1.081704 S    
C33   C35   1.395966 A    
H18   C47   1.087444 S    
C22   C64   1.469083 S    
C10   H8    1.075303 S    
C26   C28   1.396815 A    
C57   H37   1.082959 S    
C11   C23   1.374909 A    
C25   C27   1.397745 A    
N13   Ni4   1.828475 S    
C14   H12   1.078345 S    
N18   O6    1.301816 A    
C9    H7    1.079973 S    
C54   C56   1.418449 A    
C25   C35   1.398572 A    
C54   C65   1.483654 S    
C26   C36   1.398160 A    
C5    N5    1.328879 A    
H17   C48   1.085189 S    
C61   C66   1.397622 A    
C53   C66   1.493898 S    
H15   C68   1.084338 S    
C4    H4    1.079074 S    
C23   C40   1.419714 S    
N12   Ni2   1.858064 S    
C15   N15   1.344318 A    
N18   O5    1.301415 A    
C28   H24   1.082126 S    
C71   H47   1.110129 S    
C19   C43   1.469323 S    
C31   C33   1.397093 A    
C43   H32   1.087670 S    
C62   C64   1.398619 A    
C46   O1    1.392644 S    
C7    N7    1.321274 A    
