data_mof_unit_30916.cif
_audit_creation_date              2012-12-10T20:32:00-0500
_audit_creation_method            fapswitch 2.2
_symmetry_space_group_name_H-M    P1
_symmetry_Int_Tables_number       1
_space_group_crystal_system       triclinic
_cell_length_a                    9.994454
_cell_length_b                    10.620433
_cell_length_c                    15.511336
_cell_angle_alpha                 90.183437
_cell_angle_beta                  68.775934
_cell_angle_gamma                 89.549961
_cell_volume                      1534.70159659

loop_
_atom_site_label
_atom_site_type_symbol
_atom_type_description
_atom_site_fract_x
_atom_site_fract_y
_atom_site_fract_z
_atom_type_partial_charge
C1    C     C_R   0.500658 0.739216 0.498315 0.879875
C2    C     C_R   0.713615 0.585914 0.038030 0.074488
C3    C     C_R   0.584904 0.521710 0.085588 0.033707
C4    C     C_R   0.410256 0.504580 0.675109 0.868694
C5    C     C_R   0.804381 0.617339 0.085435 -0.218194
C6    C     C_R   0.767935 0.588398 0.178524 -0.016192
C7    C     C_R   0.559454 0.474680 0.174433 -0.067244
C8    C     C_R   0.568082 0.935250 0.545875 0.112286
C9    C     C_R   0.506446 0.871410 0.491443 -0.138644
C10   C     C_R   0.465242 0.936207 0.425725 -0.022327
C11   C     C_R   0.464156 0.066947 0.427697 -0.245693
C12   C     C_R   0.411901 0.522582 0.912872 0.096149
C13   C     C_R   0.507947 0.128987 0.492553 -0.099007
C14   C     C_R   0.570059 0.063522 0.545847 0.144769
C15   C     C_3   0.535887 0.071340 0.647805 -0.492547
C16   C     C_R   0.501143 0.260819 0.498998 0.883633
C17   C     C_3   0.532807 0.928664 0.648013 -0.470641
C18   C     C_R   0.905988 0.596422 0.539966 0.236136
C19   C     C_R   0.951697 0.403231 0.461923 -0.008260
C20   C     C_R   0.093602 0.402594 0.463526 -0.153321
C21   C     C_R   0.047666 0.596491 0.540021 0.224425
C22   C     C_3   0.067573 0.730803 0.510631 -0.487252
C23   C     C_R   0.282226 0.583950 0.962401 0.100039
C24   C     C_3   0.915815 0.730904 0.511191 -0.482762
C25   C     C_R   0.589842 0.500975 0.324653 0.865445
C26   C     C_R   0.355996 0.528111 0.774792 -0.115131
C27   C     C_R   0.644267 0.516303 0.223947 -0.141558
C28   C     C_R   0.211344 0.648385 0.912152 -0.057340
C29   C     C_R   0.247581 0.619465 0.817179 -0.055514
C30   C     C_R   0.438331 0.481399 0.823321 -0.261036
C31   C     C_1   0.425679 0.871674 0.356413 0.181862
C32   C     C_1   0.913734 0.303610 0.412396 0.248802
C33   C     C_1   0.452847 0.377240 0.211674 0.186065
C34   C     C_R   0.520766 0.527633 0.949678 0.001504
C35   C     C_1   0.855133 0.640606 0.226328 0.193482
C36   C     C_1   0.833333 0.732582 0.909418 0.179116
C37   C     C_1   0.138827 0.765532 0.950473 0.144237
C38   C     C_1   0.189613 0.694230 0.760827 0.194985
C39   C     C_1   0.688666 0.624667 0.804485 0.184921
C40   C     C_R   0.478365 0.521305 0.046511 0.052356
C41   C     C_R   0.333570 0.549199 0.101363 -0.165773
C42   C     C_R   0.240473 0.592488 0.058845 -0.207197
C43   C     C_R   0.655874 0.581810 0.898602 -0.067644
C44   C     C_R   0.742075 0.625485 0.946520 -0.063553
H1    H     H_    0.429389 0.115701 0.685684 0.204691
H2    H     H_    0.166218 0.325225 0.432008 0.167042
H3    H     H_    0.080752 0.793724 0.564210 0.226080
H4    H     H_    0.149771 0.742020 0.440312 0.228671
H5    H     H_    0.532297 0.423051 0.788681 0.165803
H6    H     H_    0.298957 0.558655 0.175790 0.168156
H7    H     H_    0.620651 0.885495 0.666042 0.215535
H8    H     H_    0.842020 0.792956 0.565698 0.212749
H9    H     H_    0.910391 0.743444 0.441458 0.232995
H10   H     H_    0.138375 0.633854 0.100486 0.164092
H11   H     H_    0.900323 0.669890 0.051581 0.154387
H12   H     H_    0.427390 0.119908 0.380656 0.169267
H13   H     H_    0.626406 0.110361 0.664717 0.211305
H14   H     H_    0.424416 0.889719 0.685675 0.210107
N1    N     N_R   0.856900 0.500860 0.500610 -0.132553
N2    N     N_1   0.713736 0.660596 0.730108 -0.218124
N3    N     N_R   0.142540 0.500820 0.500610 -0.115776
N4    N     N_1   0.394844 0.820005 0.300554 -0.202850
N5    N     N_1   0.884922 0.223157 0.371853 -0.196232
N6    N     N_1   0.368190 0.299512 0.241133 -0.213960
N7    N     N_1   0.924620 0.682674 0.264726 -0.217518
N8    N     N_1   0.900342 0.821124 0.879465 -0.172242
N9    N     N_1   0.084027 0.860066 0.981870 -0.175144
N10   N     N_1   0.145239 0.753991 0.714764 -0.204528
O1    O     O_R   0.385310 0.683210 0.499990 -0.611351
O2    O     O_R   0.614650 0.683240 0.500000 -0.612643
O3    O     O_R   0.319830 0.499970 0.632240 -0.602827
O4    O     O_R   0.549170 0.500000 0.632250 -0.603398
O5    O     O_R   0.385350 0.316760 0.500000 -0.620695
O6    O     O_R   0.614690 0.316790 0.500010 -0.613138
O7    O     O_R   0.450830 0.500000 0.367750 -0.602077
O8    O     O_R   0.680170 0.500030 0.367760 -0.604799
Zn1   Zn    Zn3+2 0.346870 0.499980 0.499990 0.967694
Zn2   Zn    Zn3+2 0.653130 0.500020 0.500010 0.971131

loop_
_geom_bond_atom_site_label_1
_geom_bond_atom_site_label_2
_ccdc_geom_bond_type
C24   H8    S    
C22   H4    S    
O2    Zn2   S    
C18   C21   A    
C15   H13   S    
C41   C42   A    
O1    Zn1   S    
C19   C20   A    
C4    O4    A    
C17   H7    S    
C12   C23   A    
C23   C42   A    
C18   C24   S    
C28   C29   A    
O8    Zn2   S    
C3    C7    A    
C5    C6    A    
C36   N8    T    
C35   N7    T    
C7    C27   A    
C6    C35   S    
C20   N3    A    
O4    Zn2   S    
C10   C31   S    
N3    Zn1   S    
C8    C9    A    
C29   C38   S    
C9    C10   A    
C21   N3    A    
C17   H14   S    
C22   H3    S    
C13   C14   A    
C7    C33   S    
C31   N4    T    
C19   C32   S    
N1    Zn2   S    
C16   O5    A    
C1    C9    S    
C2    C44   A    
C39   C43   S    
C19   N1    A    
C24   H9    S    
C1    O1    A    
C25   O7    A    
C43   C44   A    
C6    C27   A    
C23   C28   A    
O7    Zn1   S    
C40   C41   A    
C30   H5    S    
C38   N10   T    
C3    C40   A    
C26   C30   A    
C22   C24   S    
C36   C44   S    
C2    C5    A    
C15   H1    S    
C12   C34   A    
C41   H6    S    
O3    Zn1   S    
C15   C17   S    
C8    C14   A    
C12   C30   A    
C5    H11   S    
C34   C43   A    
C8    C17   S    
C32   N5    T    
C4    C26   S    
C16   O6    A    
C25   C27   S    
C1    O2    A    
C25   O8    A    
C2    C3    A    
C42   H10   S    
C11   C13   A    
C28   C37   S    
C33   N6    T    
C39   N2    T    
C37   N9    T    
C10   C11   A    
C18   N1    A    
C26   C29   A    
O6    Zn2   S    
C13   C16   S    
O5    Zn1   S    
C14   C15   S    
C34   C40   A    
C21   C22   S    
C4    O3    A    
C20   H2    S    
C11   H12   S    
