data_mof_unit_46527.cif
_audit_creation_date              2012-12-11T15:48:53-0500
_audit_creation_method            fapswitch 2.2
_symmetry_space_group_name_H-M    P1
_symmetry_Int_Tables_number       1
_space_group_crystal_system       triclinic
_cell_length_a                    10.864875
_cell_length_b                    11.169177
_cell_length_c                    18.787481
_cell_angle_alpha                 90.128635
_cell_angle_beta                  89.480743
_cell_angle_gamma                 60.126175
_cell_volume                      1976.80955708

loop_
_atom_site_label
_atom_site_type_symbol
_atom_type_description
_atom_site_fract_x
_atom_site_fract_y
_atom_site_fract_z
_atom_type_partial_charge
Br1   Br    Br    0.435649 0.101777 0.663851 -0.530800
Br2   Br    Br    0.360891 0.862664 0.699813 -0.497383
Br3   Br    Br    0.293232 0.216165 0.184616 -0.511881
Br4   Br    Br    0.057616 0.069184 0.198407 -0.368920
C1    C     C_R   0.232038 0.647505 0.608014 0.535247
C2    C     C_R   0.587263 0.118444 0.705908 0.101746
C3    C     C_R   0.588907 0.121404 0.779372 -0.158782
C4    C     C_R   0.627621 0.589666 0.609318 0.549775
C5    C     C_3   0.884320 0.201787 0.779247 0.080970
C6    C     C_3   0.887607 0.197338 0.698226 -0.240189
C7    C     C_R   0.683076 0.143529 0.667060 0.009852
C8    C     C_R   0.137928 0.694219 0.826586 0.000746
C9    C     C_R   0.158454 0.575584 0.792005 -0.002026
C10   C     C_R   0.169358 0.564854 0.718666 -0.021797
C11   C     C_R   0.104689 0.801846 0.710096 -0.113709
C12   C     C_3   0.599255 0.591030 0.815009 -0.236858
C13   C     C_R   0.099575 0.810773 0.784407 -0.120226
C14   C     C_3   0.267895 0.428967 0.802605 -0.273258
C15   C     C_3   0.278454 0.417033 0.722076 -0.227338
C16   C     C_R   0.631523 0.223229 0.601115 0.554216
C17   C     C_R   0.158799 0.672915 0.676884 0.008085
C18   C     C_R   0.654407 0.653204 0.165169 0.012890
C19   C     C_R   0.769721 0.570605 0.208574 -0.013415
C20   C     C_R   0.754673 0.546318 0.277925 0.072766
C21   C     C_R   0.501906 0.673536 0.266193 -0.033355
C22   C     C_R   0.516791 0.692208 0.192391 0.249000
C23   C     C_3   0.688556 0.664025 0.816736 0.026007
C24   C     C_3   0.904721 0.571332 0.221720 -0.177323
C25   C     C_3   0.888483 0.542962 0.299063 0.125902
C26   C     C_R   0.622167 0.608174 0.310322 -0.048067
C27   C     C_R   0.640981 0.160861 0.174578 -0.006340
C28   C     C_R   0.224385 0.646989 0.401360 0.528159
C29   C     C_R   0.596492 0.091740 0.221101 0.027139
C30   C     C_R   0.601371 0.103131 0.293157 -0.038112
C31   C     C_R   0.709056 0.244588 0.276904 -0.139468
C32   C     C_R   0.702686 0.234012 0.203119 -0.147946
C33   C     C_3   0.468053 0.074932 0.226665 0.407612
C34   C     C_3   0.646483 0.619908 0.684764 0.041949
C35   C     C_3   0.473223 0.089673 0.307073 0.200397
C36   C     C_R   0.650951 0.184503 0.322403 -0.029436
C37   C     C_R   0.144501 0.685077 0.183409 0.016679
C38   C     C_R   0.118673 0.797176 0.226814 0.124656
C39   C     C_R   0.129439 0.784638 0.298153 -0.009591
C40   C     C_R   0.614221 0.587867 0.386600 0.543585
C41   C     C_R   0.227362 0.539785 0.286153 -0.167600
C42   C     C_R   0.211572 0.554042 0.212336 -0.170474
C43   C     C_3   0.998208 0.941599 0.232775 0.063838
C44   C     C_3   0.008420 0.924802 0.313190 -0.243289
C45   C     C_3   0.807481 0.565187 0.698744 -0.263838
C46   C     C_R   0.175263 0.658999 0.330145 -0.019948
C47   C     C_R   0.704693 0.096051 0.893803 0.539767
C48   C     C_R   0.719865 0.686092 0.890121 0.534161
C49   C     C_R   0.107669 0.713136 0.902723 0.532140
C50   C     C_R   0.671561 0.110554 0.102615 0.551762
C51   C     C_R   0.692692 0.687595 0.095853 0.523184
C52   C     C_R   0.617396 0.231710 0.394496 0.537213
C53   C     C_R   0.091314 0.712462 0.112413 0.538815
C54   C     C_3   0.608488 0.802679 0.776514 -0.190338
C55   C     C_3   0.567788 0.777510 0.701989 0.076667
C56   C     C_3   0.587061 0.552280 0.737188 -0.235386
C57   C     C_3   0.831781 0.575004 0.777054 -0.245832
C58   C     C_R   0.697313 0.127967 0.817349 -0.048769
C59   C     C_R   0.812409 0.116621 0.777344 0.059387
C60   C     C_R   0.805415 0.123846 0.702972 -0.068113
Cr1   Cr    Cr6+3 0.392960 0.397920 0.502240 1.036209
Cr2   Cr    Cr6+3 0.398340 0.708480 0.501250 1.088031
Cr3   Cr    Cr6+3 0.708670 0.393570 0.496460 1.034018
Cr4   Cr    Cr6+3 0.937650 0.938540 0.007610 1.095279
Cr5   Cr    Cr6+3 0.625330 0.937370 0.994520 1.046074
Cr6   Cr    Cr6+3 0.937940 0.625230 0.001190 1.044051
H1    H     H_    0.678939 0.847941 0.771104 0.111129
H2    H     H_    0.512575 0.878482 0.806890 0.194031
H3    H     H_    0.068563 0.907671 0.809389 0.238353
H4    H     H_    0.223047 0.368264 0.827122 0.156288
H5    H     H_    0.365465 0.417223 0.827894 0.136690
H6    H     H_    0.382862 0.396323 0.700681 0.171872
H7    H     H_    0.233166 0.355330 0.700229 0.202091
H8    H     H_    0.397743 0.713179 0.289287 0.168519
H9    H     H_    0.892655 0.675192 0.213584 0.098786
H10   H     H_    0.996347 0.484448 0.193800 0.222494
H11   H     H_    0.871939 0.626548 0.337164 0.130256
H12   H     H_    0.641731 0.439667 0.730561 0.083475
H13   H     H_    0.752525 0.305505 0.298087 0.182685
H14   H     H_    0.747598 0.280416 0.168659 0.167261
H15   H     H_    0.379920 0.183241 0.329878 0.136006
H16   H     H_    0.282245 0.436904 0.308163 0.157124
H17   H     H_    0.247695 0.466710 0.177572 0.186333
H18   H     H_    0.899488 0.952033 0.210425 0.123952
H19   H     H_    0.602491 0.827544 0.661855 0.185056
H20   H     H_    0.041838 0.991819 0.340873 0.203152
H21   H     H_    0.916655 0.921635 0.337803 0.109412
H22   H     H_    0.899339 0.622895 0.782894 0.141681
H23   H     H_    0.890281 0.469431 0.799767 0.143488
H24   H     H_    0.842950 0.628022 0.667983 0.134189
H25   H     H_    0.646281 0.498284 0.849260 0.107268
H26   H     H_    0.491231 0.661762 0.837048 0.154248
H27   H     H_    0.474418 0.585713 0.725665 0.155167
H28   H     H_    0.059195 0.195805 0.802928 0.337805
H29   H     H_    0.424815 0.753443 0.101081 0.327094
H30   H     H_    0.067965 0.419179 0.342080 0.329566
H31   H     H_    0.461157 0.951899 0.158254 0.383166
H32   H     H_    0.512549 0.987861 0.394563 0.334135
H33   H     H_    0.878575 0.457239 0.681644 0.148561
H34   H     H_    0.503344 0.115976 0.806325 0.184305
H35   H     H_    0.817086 0.304071 0.803918 0.117030
H36   H     H_    0.828181 0.297471 0.672066 0.133852
H37   H     H_    0.995265 0.130919 0.674978 0.189952
H38   H     H_    0.083208 0.891765 0.679469 0.182687
O1    O     O_R   0.507380 0.255700 0.581440 -0.457552
O2    O     O_R   0.837170 0.593410 0.915250 -0.518299
O3    O     O_R   0.065200 0.635530 0.931570 -0.497473
O4    O     O_R   0.280320 0.527350 0.578930 -0.503679
O5    O     O_R   0.068260 0.828890 0.091840 -0.467567
O6    O     O_R   0.798870 0.057410 0.079340 -0.492519
O7    O     O_R   0.584930 0.080350 0.076780 -0.490597
O8    O     O_R   0.626960 0.809650 0.067060 -0.504786
O9    O     O_R   0.816040 0.596610 0.076510 -0.505769
O10   O     O_R   0.045610 0.638500 0.081060 -0.509608
O11   O     O_3   0.833640 0.833710 0.001100 -0.277769
O12   O     O_R   0.524480 0.695810 0.424040 -0.460437
O13   O     O_R   0.260510 0.739590 0.584590 -0.477539
O14   O     O_R   0.532300 0.695080 0.573820 -0.444995
O15   O     O_R   0.744840 0.503500 0.576370 -0.531061
O16   O     O_R   0.699120 0.276560 0.571960 -0.530325
O17   O     O_R   0.498940 0.256500 0.419860 -0.533759
O18   O     O_R   0.272500 0.528080 0.429150 -0.518302
O19   O     O_R   0.252060 0.740380 0.423010 -0.512204
O20   O     O_3   0.020244 0.132597 0.808271 -0.685735
O21   O     O_3   0.396371 0.756112 0.151535 -0.660685
O22   O     O_3   0.991169 0.409652 0.319486 -0.634236
O23   O     O_R   0.736390 0.504290 0.414790 -0.476352
O24   O     O_3   0.500694 0.942800 0.206405 -0.612127
O25   O     O_3   0.508040 0.967570 0.343524 -0.629093
O26   O     O_R   0.691300 0.277290 0.422170 -0.512979
O27   O     O_3   0.499990 0.499990 0.499980 -0.313965
O28   O     O_R   0.089400 0.825690 0.930570 -0.503387
O29   O     O_R   0.818460 0.054440 0.929850 -0.474514
O30   O     O_R   0.606060 0.077150 0.915510 -0.534290
O31   O     O_R   0.646550 0.806680 0.917570 -0.515724

loop_
_geom_bond_atom_site_label_1
_geom_bond_atom_site_label_2
_ccdc_geom_bond_type
Cr5   O31   S    
Cr5   O8    S    
C14   H5    S    
C37   C38   A    
C31   C32   A    
C54   H2    S    
Cr3   O16   S    
Cr4   O29   S    
Cr1   O4    S    
C34   C45   S    
C41   C42   A    
C40   O23   A    
C49   O28   A    
C9    C14   S    
C30   C36   A    
C10   C17   A    
C24   C25   S    
C32   H14   S    
C27   C32   A    
Cr4   O11   S    
C55   H19   S    
H30   O22   S    
C54   H1    S    
C51   O8    A    
C40   O12   A    
Cr6   O9    S    
C5    H35   S    
C1    O13   A    
Cr5   O30   S    
C48   O31   A    
Cr2   O19   S    
C14   C15   S    
C12   C56   S    
C28   O18   A    
C15   H7    S    
C24   H9    S    
C20   C25   S    
C23   C57   S    
C56   H12   S    
Cr5   O7    S    
C43   C44   S    
C36   C52   S    
C44   H21   S    
C8    C13   A    
C37   C42   A    
Cr2   O14   S    
C45   H24   S    
Cr6   O2    S    
C39   C44   S    
C8    C49   S    
C57   H22   S    
Cr4   O5    S    
C49   O3    A    
C12   C23   S    
H28   O20   S    
C14   H4    S    
Cr2   O12   S    
C9    C10   A    
C13   H3    S    
C26   C40   S    
C6    H37   S    
C47   C58   S    
C4    C34   S    
C2    C3    A    
C6    C60   S    
C7    C16   S    
C12   H26   S    
C5    O20   S    
C45   C57   S    
H29   O21   S    
Br1   C2    S    
Cr4   O28   S    
Cr3   O26   S    
C56   H27   S    
C2    C7    A    
C31   H13   S    
Br2   C55   S    
C53   O5    A    
C51   O9    A    
C21   C22   A    
C52   O17   A    
C21   H8    S    
Cr5   O11   S    
C29   C33   S    
C30   C35   S    
Cr1   O17   S    
C11   H38   S    
Cr3   O27   S    
C47   O30   A    
C3    C58   A    
C25   H11   S    
C58   C59   A    
C25   O22   S    
C48   O2    A    
Cr6   O11   S    
C19   C20   A    
Cr1   O1    S    
C50   O7    A    
C27   C29   A    
C29   C30   A    
Cr2   O13   S    
C39   C46   A    
C19   C24   S    
C28   C46   S    
Cr1   O27   S    
C22   O21   S    
C34   C56   S    
C47   O29   A    
C7    C60   A    
C16   O1    A    
C3    H34   S    
C6    H36   S    
C38   C39   A    
C35   H15   S    
Cr2   O27   S    
C23   C48   S    
C28   O19   A    
C42   H17   S    
C5    C6    S    
C21   C26   A    
C11   C13   A    
C15   H6    S    
C12   H25   S    
C5    C59   S    
C10   C15   S    
Cr3   O23   S    
C59   C60   A    
C23   C54   S    
Cr3   O15   S    
C45   H33   S    
C52   O26   A    
C4    O15   A    
C18   C51   S    
C1    O4    A    
C35   O25   S    
C33   O24   S    
Cr1   O18   S    
C41   H16   S    
C54   C55   S    
H32   O25   S    
C37   C53   S    
C33   C35   S    
C43   H18   S    
C4    O14   A    
C41   C46   A    
Cr6   O10   S    
C50   O6    A    
C31   C36   A    
C57   H23   S    
C38   C43   S    
C27   C50   S    
C24   H10   S    
C20   C26   A    
C16   O16   A    
Cr6   O3    S    
C34   C55   S    
H31   O24   S    
C11   C17   A    
C1    C17   S    
C8    C9    A    
Br3   C33   S    
C18   C22   A    
C18   C19   A    
C44   H20   S    
Cr4   O6    S    
C53   O10   A    
Br4   C43   S    
