data_mof_unit_8537.cif
_audit_creation_date              2012-12-10T17:55:51-0500
_audit_creation_method            fapswitch 2.2
_symmetry_space_group_name_H-M    P1
_symmetry_Int_Tables_number       1
_space_group_crystal_system       triclinic
_cell_length_a                    11.161211
_cell_length_b                    10.788262
_cell_length_c                    9.603955
_cell_angle_alpha                 88.983627
_cell_angle_beta                  101.795885
_cell_angle_gamma                 91.836642
_cell_volume                      1131.33634253

loop_
_atom_site_label
_atom_site_type_symbol
_atom_type_description
_atom_site_fract_x
_atom_site_fract_y
_atom_site_fract_z
_atom_type_partial_charge
C1    C     C_R   0.501098 0.262541 0.500942 0.858340
C2    C     C_R   0.498764 0.737446 0.499011 0.862903
C3    C     C_R   0.264471 0.496369 0.443225 0.702425
C4    C     C_R   0.736791 0.499176 0.556335 0.719435
C5    C     C_R   0.428557 0.416329 0.061781 0.545330
C6    C     C_R   0.571557 0.583564 0.938345 0.536432
C7    C     C_R   0.430547 0.413999 0.913408 0.064571
C8    C     C_R   0.568760 0.586538 0.086473 0.048992
C9    C     C_2   0.133505 0.468940 0.414672 0.214317
C10   C     C_2   0.871864 0.507668 0.581915 0.196764
C11   C     C_2   0.061336 0.527523 0.488510 0.159458
C12   C     C_2   0.931261 0.489840 0.473285 0.181148
C13   C     C_R   0.576074 0.067605 0.423362 0.448008
C14   C     C_R   0.423708 0.932371 0.576521 0.442973
C15   C     C_R   0.572603 0.938212 0.422479 -0.366192
C16   C     C_R   0.426983 0.061756 0.577159 -0.366679
C17   C     C_R   0.497129 0.871367 0.498185 -0.093048
C18   C     C_R   0.502602 0.128609 0.501646 -0.091641
Cu1   Cu    Cu3+1 0.500000 0.500020 0.640660 1.010899
Cu2   Cu    Cu3+1 0.500000 0.499980 0.359340 1.003549
H1    H     H_    0.631267 0.889695 0.366207 0.150854
H2    H     H_    0.368126 0.110233 0.633176 0.151344
N1    N     N_R   0.500030 0.500030 0.852080 -0.215315
N2    N     N_R   0.499970 0.499970 0.147920 -0.214477
O1    O     O_R   0.499990 0.319660 0.618740 -0.616022
O2    O     O_R   0.500010 0.680340 0.381260 -0.616730
O3    O     O_R   0.499990 0.319630 0.381170 -0.483491
O4    O     O_R   0.500010 0.680370 0.618830 -0.477543
O5    O     O_R   0.320690 0.500020 0.575130 -0.613240
O6    O     O_R   0.679310 0.499980 0.424870 -0.624813
O7    O     O_R   0.320680 0.499990 0.337560 -0.532294
O8    O     O_R   0.679320 0.500010 0.662440 -0.536015
N3    N     N_3   0.871585 0.435596 0.339750 -0.515809
H3    H     H_    0.820330 0.355842 0.356341 0.266338
H4    H     H_    0.820047 0.501066 0.274109 0.234426
N4    N     N_3   0.105539 0.634718 0.573741 -0.539103
H5    H     H_    0.148068 0.698024 0.514292 0.220219
H6    H     H_    0.167939 0.607755 0.664885 0.279428
O9    O     O_3   0.356094 0.334538 0.122972 -0.689814
H7    H     H_    0.297725 0.288873 0.048725 0.334577
O10   O     O_3   0.644360 0.665184 0.877457 -0.685087
H8    H     H_    0.703395 0.709738 0.952112 0.331302
O11   O     O_3   0.939440 0.539375 0.714826 -0.707203
H9    H     H_    0.883224 0.554432 0.779822 0.355386
O12   O     O_3   0.086655 0.373326 0.323109 -0.694611
H10   H     H_    0.154348 0.335936 0.287198 0.347840
N5    N     N_3   0.367173 0.312413 0.834005 -0.611583
H11   H     H_    0.314649 0.341397 0.737726 0.273286
H12   H     H_    0.430897 0.247186 0.821339 0.249879
N6    N     N_3   0.629207 0.690044 0.164938 -0.620705
H13   H     H_    0.678956 0.663215 0.263655 0.262450
H14   H     H_    0.563514 0.754423 0.173873 0.254256
O13   O     O_3   0.652002 0.135855 0.351892 -0.727462
H15   H     H_    0.697016 0.078499 0.302883 0.329239
O14   O     O_3   0.348096 0.864121 0.648384 -0.727711
H16   H     H_    0.303258 0.921534 0.697531 0.330222

loop_
_geom_bond_atom_site_label_1
_geom_bond_atom_site_label_2
_ccdc_geom_bond_type
Cu1   N1    S    
C11   C12   S    
C9    O12   S    
C3    C9    S    
Cu2   O3    S    
C5    C7    A    
O10   H8    S    
N6    H14   S    
N5    H11   S    
C3    O7    A    
O14   H16   S    
C13   C15   A    
C14   O14   S    
C10   O11   S    
N5    H12   S    
Cu2   O6    S    
O12   H10   S    
C2    C17   S    
C1    O1    A    
Cu1   O4    S    
C9    C11   D    
C14   C17   A    
C3    O5    A    
C1    C18   S    
C4    O8    A    
C5    N2    A    
C10   C12   D    
C13   C18   A    
C7    N1    A    
C6    N1    A    
C16   C18   A    
N4    H5    S    
N3    H4    S    
N3    H3    S    
C13   O13   S    
C5    O9    S    
O11   H9    S    
Cu1   O1    S    
C14   C16   A    
C2    O4    A    
Cu1   O8    S    
C4    C10   S    
N4    H6    S    
Cu1   O5    S    
C8    N6    S    
C15   H1    S    
C8    N2    A    
C2    O2    A    
O9    H7    S    
C1    O3    A    
Cu2   N2    S    
C11   N4    S    
C6    C8    A    
N6    H13   S    
C12   N3    S    
C15   C17   A    
Cu2   O7    S    
C4    O6    A    
Cu1   Cu2   S    
O13   H15   S    
C16   H2    S    
Cu2   O2    S    
C6    O10   S    
C7    N5    S    
