data_mof_unit_9358.cif
_audit_creation_date              2012-12-11T15:34:34-0500
_audit_creation_method            fapswitch 2.2
_symmetry_space_group_name_H-M    P1
_symmetry_Int_Tables_number       1
_space_group_crystal_system       triclinic
_cell_length_a                    15.035557
_cell_length_b                    15.070204
_cell_length_c                    34.938789
_cell_angle_alpha                 90.368186
_cell_angle_beta                  89.794366
_cell_angle_gamma                 59.906095
_cell_volume                      6849.24936769

loop_
_atom_site_label
_atom_site_type_symbol
_atom_type_description
_atom_site_fract_x
_atom_site_fract_y
_atom_site_fract_z
_atom_type_partial_charge
C1    C     C_R   0.302638 0.608008 0.555889 0.522651
C2    C     C_R   0.181343 0.732818 0.396462 0.098572
C3    C     C_R   0.765690 0.090224 0.269733 0.131597
C4    C     C_R   0.769872 0.087765 0.229436 0.147661
C5    C     C_R   0.691226 0.167723 0.208269 0.000370
C6    C     C_R   0.734808 0.218559 0.350876 0.095365
C7    C     C_R   0.711514 0.246674 0.389226 -0.076158
C8    C     C_R   0.570535 0.212060 0.386726 -0.125747
C9    C     C_R   0.685845 0.560239 0.659447 -0.111188
C10   C     C_R   0.594939 0.181362 0.348567 -0.125545
C11   C     C_R   0.674906 0.187205 0.330169 0.018820
C12   C     C_R   0.626522 0.248261 0.406967 -0.012633
C13   C     C_R   0.143308 0.746324 0.358832 0.083586
C14   C     C_R   0.072193 0.713268 0.096109 -0.010958
C15   C     C_R   0.031039 0.666899 0.119508 -0.131533
C16   C     C_R   0.051159 0.655558 0.158285 -0.117518
C17   C     C_R   0.113482 0.689560 0.174568 0.003666
C18   C     C_R   0.161479 0.728864 0.151229 -0.067182
C19   C     C_R   0.141920 0.740856 0.111738 0.010697
C20   C     C_R   0.223417 0.643811 0.232247 -0.076929
C21   C     C_2   0.793776 0.186076 0.922832 0.240857
C22   C     C_2   0.856031 0.180985 0.653733 0.220177
C23   C     C_2   0.540512 0.147370 0.674689 0.222340
C24   C     C_R   0.161279 0.660253 0.336823 0.051396
C25   C     C_2   0.484479 0.202996 0.595875 0.239710
C26   C     C_2   0.503795 0.808198 0.583740 0.272385
C27   C     C_2   0.380868 0.562389 0.800620 0.193624
C28   C     C_2   0.105878 0.826996 0.670476 0.268011
C29   C     C_2   0.152715 0.812559 0.587782 0.245769
C30   C     C_2   0.505494 0.633668 0.200151 0.224176
C31   C     C_2   0.488625 0.903694 0.162088 0.280872
C32   C     C_2   0.724518 0.800758 0.218282 0.209514
C33   C     C_2   0.520260 0.861481 0.344014 0.273271
C34   C     C_2   0.514957 0.810047 0.426262 0.311953
C35   C     C_R   0.557924 0.737232 0.649278 -0.085296
C36   C     C_2   0.812982 0.173504 0.077037 0.248890
C37   C     C_2   0.529057 0.340659 0.205185 0.206406
C38   C     C_2   0.195471 0.780381 0.087452 0.256032
C39   C     C_2   0.832475 0.532873 0.819649 0.230221
C40   C     C_2   0.222775 0.468686 0.332543 0.237473
C41   C     C_R   0.237768 0.632897 0.411346 0.033849
C42   C     C_R   0.736226 0.024980 0.943132 0.629299
C43   C     C_R   0.746047 0.722731 0.944887 0.575465
C44   C     C_R   0.039017 0.733812 0.948533 0.535976
C45   C     C_R   0.722511 0.039160 0.052795 0.591565
C46   C     C_R   0.733211 0.734727 0.054908 0.563490
C47   C     C_R   0.615677 0.656616 0.674342 -0.012350
C48   C     C_R   0.027450 0.744564 0.057864 0.512772
C49   C     C_R   0.563126 0.719700 0.609413 -0.026907
C50   C     C_R   0.624058 0.684611 0.792819 0.383248
C51   C     C_R   0.607558 0.670952 0.716158 0.354158
C52   C     C_R   0.753636 0.611784 0.845805 0.019777
C53   C     C_R   0.781391 0.618190 0.883951 0.062784
C54   C     C_R   0.612932 0.768650 0.894862 -0.158400
C55   C     C_R   0.584767 0.761612 0.857571 -0.160582
C56   C     C_R   0.654405 0.685039 0.832700 0.028955
C57   C     C_R   0.610369 0.588097 0.555729 0.536767
C58   C     C_R   0.234288 0.635679 0.271757 -0.061530
C59   C     C_R   0.712019 0.699901 0.908135 0.053240
C60   C     C_R   0.726556 0.066143 0.904046 0.072609
C61   C     C_R   0.692665 0.025088 0.874694 0.062369
C62   C     C_R   0.696960 0.049263 0.836590 -0.074221
C63   C     C_R   0.736687 0.111944 0.826563 0.051198
C64   C     C_R   0.768474 0.155055 0.855241 -0.126892
C65   C     C_R   0.762902 0.133913 0.894083 -0.033291
C66   C     C_R   0.677562 0.232848 0.771529 0.101427
C67   C     C_R   0.664759 0.248630 0.731642 0.145894
C68   C     C_R   0.714278 0.164276 0.706418 0.054772
C69   C     C_R   0.147327 0.671570 0.295415 0.107168
C70   C     C_R   0.591364 0.298420 0.553303 0.563342
C71   C     C_R   0.782085 0.066655 0.720404 -0.106174
C72   C     C_R   0.796797 0.050279 0.759846 0.087859
C73   C     C_R   0.741074 0.133029 0.785578 0.078157
C74   C     C_R   0.602660 0.178386 0.650471 -0.000373
C75   C     C_R   0.574624 0.205734 0.611705 -0.037372
C76   C     C_R   0.727048 0.220340 0.602390 -0.118901
C77   C     C_R   0.757259 0.191694 0.640196 -0.020588
C78   C     C_R   0.691399 0.177527 0.665069 0.025937
C79   C     C_R   0.632472 0.236457 0.588751 -0.002970
C80   C     C_R   0.049176 0.716257 0.279619 -0.037838
C81   C     C_R   0.098247 0.695190 0.912593 -0.029538
C82   C     C_R   0.298655 0.611044 0.446546 0.567595
C83   C     C_R   0.126310 0.757787 0.892375 -0.110170
C84   C     C_R   0.160838 0.734893 0.854442 0.117735
C85   C     C_R   0.169538 0.646640 0.836749 0.118097
C86   C     C_R   0.148818 0.579288 0.857846 0.091540
C87   C     C_R   0.113716 0.603885 0.895625 -0.078953
C88   C     C_R   0.284954 0.599771 0.778258 0.025489
C89   C     C_R   0.292065 0.602336 0.738348 -0.079040
C90   C     C_R   0.204765 0.635544 0.715471 0.089027
C91   C     C_R   0.038390 0.722745 0.240059 -0.103785
C92   C     C_R   0.109368 0.665485 0.732334 -0.086597
C93   C     C_R   0.100600 0.665155 0.771939 -0.121418
C94   C     C_R   0.608698 0.590616 0.445634 0.515590
C95   C     C_R   0.187284 0.633045 0.795154 0.057705
C96   C     C_R   0.172828 0.725364 0.651815 0.008971
C97   C     C_R   0.193681 0.719068 0.611799 -0.034059
C98   C     C_R   0.289953 0.532485 0.616159 -0.114553
C99   C     C_R   0.271214 0.537554 0.655328 0.076076
C100  C     C_R   0.215531 0.633726 0.673520 0.037792
C101  C     C_R   0.256047 0.621554 0.594435 -0.041337
C102  C     C_R   0.125454 0.686186 0.216192 0.019322
C103  C     C_R   0.690521 0.721949 0.091403 0.049943
C104  C     C_R   0.606072 0.808613 0.108214 -0.178249
C105  C     C_R   0.575544 0.807474 0.146013 0.034481
C106  C     C_R   0.588696 0.302331 0.443888 0.544565
C107  C     C_R   0.630986 0.716710 0.167396 0.052355
C108  C     C_R   0.709347 0.627897 0.149822 -0.122713
C109  C     C_R   0.739523 0.629469 0.112050 0.089585
C110  C     C_R   0.562999 0.668838 0.224865 0.044130
C111  C     C_R   0.562780 0.656990 0.265025 0.073072
C112  C     C_R   0.614997 0.691270 0.288743 0.000841
C113  C     C_R   0.207804 0.561802 0.353287 -0.022952
C114  C     C_R   0.665613 0.738778 0.273113 -0.114619
C115  C     C_R   0.667780 0.751132 0.233591 0.027445
C116  C     C_R   0.617902 0.714350 0.209199 0.032248
C117  C     C_R   0.571561 0.753595 0.357470 0.031633
C118  C     C_R   0.626628 0.618383 0.594695 0.016879
C119  C     C_R   0.572071 0.729060 0.396825 0.010320
C120  C     C_R   0.682239 0.547749 0.380735 -0.128436
C121  C     C_R   0.678800 0.571541 0.342402 -0.099060
C122  C     C_R   0.621119 0.672924 0.330320 0.009237
C123  C     C_R   0.625587 0.624530 0.408033 -0.034411
C124  C     C_R   0.245554 0.549580 0.390347 -0.195977
C125  C     C_R   0.699424 0.095049 0.089644 0.013957
C126  C     C_R   0.752096 0.145611 0.102607 -0.003018
C127  C     C_R   0.746110 0.171852 0.141502 -0.144690
C128  C     C_R   0.686385 0.151845 0.166962 0.034722
C129  C     C_R   0.627887 0.109147 0.153472 0.094799
C130  C     C_R   0.693122 0.540634 0.620223 0.076133
C131  C     C_R   0.634206 0.082086 0.115105 -0.094016
C132  C     C_R   0.611279 0.254300 0.227010 -0.017580
C133  C     C_R   0.609269 0.257608 0.266979 -0.119402
C134  C     C_R   0.684157 0.176354 0.288350 -0.010894
Cr1   Cr    Cr6+3 0.421670 0.426920 0.499620 1.060377
Cr2   Cr    Cr6+3 0.427030 0.651190 0.500980 1.078594
Cr3   Cr    Cr6+3 0.651280 0.421870 0.499380 1.051074
Cr4   Cr    Cr6+3 0.910810 0.908010 0.001130 1.091801
Cr5   Cr    Cr6+3 0.682800 0.909890 0.998370 1.044396
Cr6   Cr    Cr6+3 0.908370 0.682300 0.002180 1.056723
H1    H     H_    0.670967 0.016854 0.814490 0.158356
H2    H     H_    0.337227 0.457634 0.603049 0.141594
H3    H     H_    0.566473 0.879666 0.092457 0.119397
H4    H     H_    0.719102 0.509889 0.321737 0.135118
H5    H     H_    0.705649 0.764048 0.292072 0.169062
H6    H     H_    0.735018 0.498417 0.678443 0.150449
H7    H     H_    0.750707 0.558042 0.166189 0.106636
H8    H     H_    0.723354 0.467532 0.388545 0.149319
H9    H     H_    0.593061 0.043816 0.105925 0.143443
H10   H     H_    0.547761 0.158556 0.332684 0.153343
H11   H     H_    0.548388 0.323726 0.281873 0.166667
H12   H     H_    0.821241 0.002905 0.700494 0.113201
H13   H     H_    0.507561 0.813300 0.660916 0.188059
H14   H     H_    0.789076 0.206813 0.152235 0.107832
H15   H     H_    0.755774 0.274551 0.404224 0.154206
H16   H     H_    0.504672 0.212687 0.399678 0.158277
H17   H     H_    0.977634 0.644901 0.108335 0.145030
H18   H     H_    0.310369 0.600004 0.284035 0.121309
H19   H     H_    0.291272 0.614603 0.214225 0.152595
H20   H     H_    0.015461 0.622826 0.175837 0.125744
H21   H     H_    0.981768 0.744093 0.297828 0.134028
H22   H     H_    0.962324 0.755704 0.227985 0.143401
H23   H     H_    0.797284 0.205477 0.847223 0.120749
H24   H     H_    0.286326 0.472957 0.402097 0.132378
H25   H     H_    0.211788 0.752642 0.164088 0.176569
H26   H     H_    0.558161 0.831181 0.912886 0.148853
H27   H     H_    0.508770 0.817629 0.847792 0.135461
H28   H     H_    0.838764 0.422472 0.615289 0.257151
H29   H     H_    0.748314 0.388431 0.620886 0.246567
H30   H     H_    0.838140 0.221233 0.913865 0.100814
H31   H     H_    0.878013 0.165695 0.683525 0.125490
H32   H     H_    0.524026 0.376129 0.727208 0.252452
H33   H     H_    0.624444 0.397866 0.725423 0.235406
H34   H     H_    0.775273 0.236477 0.583997 0.191421
H35   H     H_    0.543033 0.346085 0.793505 0.257035
H36   H     H_    0.639998 0.373201 0.792634 0.240695
H37   H     H_    0.897413 0.896304 0.751595 0.242329
H38   H     H_    0.925718 0.951258 0.787760 0.253304
H39   H     H_    0.496047 0.117076 0.661440 0.124379
H40   H     H_    0.413267 0.234839 0.612149 0.086773
H41   H     H_    0.521097 0.801683 0.553349 0.117482
H42   H     H_    0.357940 0.380517 0.660284 0.228071
H43   H     H_    0.248720 0.437586 0.686130 0.244024
H44   H     H_    0.450914 0.548674 0.786289 0.114933
H45   H     H_    0.115617 0.828069 0.905273 0.137756
H46   H     H_    0.259787 0.770128 0.829149 0.256907
H47   H     H_    0.156975 0.872317 0.848358 0.223229
H48   H     H_    0.040093 0.886205 0.655392 0.138238
H49   H     H_    0.892026 0.472594 0.896340 0.224958
H50   H     H_    0.937118 0.548770 0.879568 0.234899
H51   H     H_    0.132664 0.809441 0.558188 0.121689
H52   H     H_    0.108553 0.507614 0.818130 0.236865
H53   H     H_    0.234349 0.443648 0.830352 0.265255
H54   H     H_    0.802279 0.480702 0.096351 0.241766
H55   H     H_    0.887262 0.514402 0.112434 0.221644
H56   H     H_    0.093433 0.554180 0.910947 0.162059
H57   H     H_    0.539019 0.536904 0.272651 0.228943
H58   H     H_    0.430888 0.655059 0.274559 0.230834
H59   H     H_    0.484082 0.579646 0.210862 0.125277
H60   H     H_    0.456072 0.973579 0.145470 0.117801
H61   H     H_    0.736631 0.803029 0.187786 0.105608
H62   H     H_    0.482625 0.881096 0.316410 0.129004
H63   H     H_    0.546452 0.801775 0.454779 0.094598
H64   H     H_    0.870032 0.189404 0.089116 0.100068
H65   H     H_    0.532537 0.341788 0.174190 0.129863
H66   H     H_    0.833884 0.941406 0.284999 0.263891
H67   H     H_    0.365942 0.577913 0.724819 0.119307
H68   H     H_    0.834563 0.016222 0.320123 0.237537
H69   H     H_    0.851531 0.936290 0.216185 0.267142
H70   H     H_    0.922200 0.995144 0.219038 0.256324
H71   H     H_    0.869876 0.159103 0.321786 0.260082
H72   H     H_    0.782227 0.281503 0.310323 0.234835
H73   H     H_    0.511083 0.155384 0.191743 0.253485
H74   H     H_    0.613203 0.037208 0.199829 0.270224
H75   H     H_    0.192368 0.777261 0.056508 0.127378
H76   H     H_    0.026425 0.894016 0.358291 0.235328
H77   H     H_    0.140900 0.876152 0.341860 0.245453
H78   H     H_    0.041786 0.690155 0.714826 0.111824
H79   H     H_    0.886008 0.456955 0.830161 0.102771
H80   H     H_    0.273189 0.393336 0.344347 0.111563
H81   H     H_    0.198528 0.856723 0.405106 0.257727
H82   H     H_    0.086350 0.869918 0.422044 0.229196
H83   H     H_    0.584660 0.982895 0.872630 0.238371
H84   H     H_    0.707263 0.885168 0.868432 0.233807
H85   H     H_    0.025466 0.691842 0.784690 0.131053
N1    N     N_R   0.638082 0.596547 0.776623 -0.211091
N2    N     N_3   0.180270 0.804476 0.832867 -0.604560
N3    N     N_3   0.882438 0.546222 0.897387 -0.597779
N4    N     N_3   0.159389 0.487477 0.841041 -0.629599
N5    N     N_3   0.822245 0.537880 0.095432 -0.586672
N6    N     N_3   0.507974 0.612420 0.282509 -0.636157
N7    N     N_3   0.843555 0.004234 0.290592 -0.629835
N8    N     N_3   0.852850 0.002942 0.209466 -0.612767
N9    N     N_3   0.814286 0.230086 0.332940 -0.635900
N10   N     N_3   0.566058 0.087045 0.178620 -0.633451
N11   N     N_3   0.091538 0.846145 0.341830 -0.629126
N12   N     N_R   0.630096 0.589893 0.738996 -0.244530
N13   N     N_3   0.165353 0.819336 0.419194 -0.585688
N14   N     N_3   0.659128 0.953559 0.883172 -0.600199
N15   N     N_R   0.588215 0.760857 0.732572 -0.204015
N16   N     N_R   0.596611 0.767452 0.770313 -0.203835
N17   N     N_3   0.765247 0.439290 0.606947 -0.564885
N18   N     N_3   0.598283 0.348747 0.716407 -0.621708
N19   N     N_3   0.621604 0.316107 0.797994 -0.616651
N20   N     N_3   0.864956 0.949168 0.774161 -0.623917
N21   N     N_3   0.311195 0.444898 0.677252 -0.617850
O1    O     O_R   0.502070 0.323090 0.541280 -0.464997
O2    O     O_R   0.831550 0.656950 0.958960 -0.462658
O3    O     O_R   0.998590 0.685540 0.963930 -0.497695
O4    O     O_R   0.338340 0.520690 0.539540 -0.506065
O5    O     O_R   0.008220 0.831200 0.045060 -0.519416
O6    O     O_R   0.813270 0.997930 0.038810 -0.444882
O7    O     O_R   0.657500 0.016560 0.039940 -0.531661
O8    O     O_R   0.685680 0.820940 0.038120 -0.519992
O9    O     O_R   0.822130 0.666070 0.043610 -0.471577
O10   O     O_R   0.989860 0.694000 0.042400 -0.500819
O11   O     O_3   0.833990 0.833400 0.000560 -0.271139
O12   O     O_R   0.520720 0.641670 0.461580 -0.499717
O13   O     O_R   0.324760 0.674070 0.543580 -0.490207
O14   O     O_R   0.522400 0.640310 0.540110 -0.517394
O15   O     O_R   0.675940 0.500630 0.542210 -0.457555
O16   O     O_R   0.641790 0.337020 0.538150 -0.504998
O17   O     O_R   0.500260 0.324550 0.456580 -0.501658
O18   O     O_R   0.336660 0.522040 0.461020 -0.516368
O19   O     O_R   0.322940 0.675540 0.458880 -0.460038
O20   O     O_2   0.767082 0.194261 0.956305 -0.434190
O21   O     O_2   0.914978 0.188400 0.631595 -0.475015
O22   O     O_2   0.536773 0.155865 0.709496 -0.485558
O23   O     O_R   0.674120 0.502090 0.457500 -0.513051
O24   O     O_2   0.490685 0.161189 0.565132 -0.445491
O25   O     O_2   0.435853 0.890362 0.596339 -0.454181
O26   O     O_2   0.384056 0.544622 0.834775 -0.493823
O27   O     O_2   0.124476 0.846497 0.702421 -0.483568
O28   O     O_2   0.144890 0.892194 0.600093 -0.444053
O29   O     O_2   0.478653 0.666326 0.167851 -0.457195
O30   O     O_2   0.451090 0.906521 0.193422 -0.468593
O31   O     O_2   0.758162 0.840825 0.239813 -0.573502
O32   O     O_2   0.523934 0.928369 0.362644 -0.464693
O33   O     O_2   0.430419 0.883623 0.419640 -0.446925
O34   O     O_R   0.640110 0.338380 0.459630 -0.508865
O35   O     O_2   0.797072 0.184036 0.042686 -0.432927
O36   O     O_2   0.456034 0.411829 0.221595 -0.541696
O37   O     O_2   0.245337 0.815617 0.101741 -0.469882
O38   O     O_2   0.841699 0.553208 0.786620 -0.478648
O39   O     O_2   0.177599 0.474339 0.302890 -0.480480
O40   O     O_3   0.499990 0.499990 0.499990 -0.257873
O41   O     O_R   0.017640 0.822070 0.960410 -0.518959
O42   O     O_R   0.822000 0.989470 0.960340 -0.466819
O43   O     O_R   0.666920 0.007430 0.955290 -0.474479
O44   O     O_R   0.694410 0.812480 0.959650 -0.502285

loop_
_geom_bond_atom_site_label_1
_geom_bond_atom_site_label_2
_ccdc_geom_bond_type
C28   C96   S    
C77   C78   A    
C55   C56   A    
Cr3   O34   S    
Cr1   O17   S    
C126  C127  A    
C1    C101  S    
C16   H20   S    
C57   C118  S    
C111  N6    S    
C4    N8    S    
C9    H6    S    
Cr2   O12   S    
C111  C112  A    
C133  H11   S    
C76   C79   A    
C55   H27   S    
H29   N17   S    
C34   O33   D    
C50   N16   A    
Cr2   O40   S    
C128  C129  A    
C112  C114  A    
C114  C115  A    
C53   C59   A    
C25   H40   S    
C94   O12   A    
C9    C130  A    
C52   C53   A    
C33   C117  S    
C105  C107  A    
C39   O38   D    
C57   O15   A    
C125  C126  A    
C129  N10   S    
H50   N3    S    
C41   C124  A    
C39   H79   S    
Cr5   O7    S    
C87   H56   S    
C15   H17   S    
Cr4   O6    S    
C28   H48   S    
C45   O6    A    
H33   N18   S    
C20   C102  A    
C31   O30   D    
C2    C41   A    
C15   C16   A    
C43   O44   A    
Cr4   O42   S    
C33   H62   S    
C40   H80   S    
H47   N2    S    
C108  C109  A    
C127  H14   S    
C18   C19   A    
H70   N8    S    
C32   H61   S    
C2    C13   A    
H54   N5    S    
C27   H44   S    
C31   H60   S    
Cr1   O4    S    
C110  C111  A    
C24   C113  A    
C22   O21   D    
C5    C132  A    
H28   N17   S    
H46   N2    S    
C40   C113  S    
H32   N18   S    
C45   C125  S    
C16   C17   A    
C20   H19   S    
C35   C49   A    
C107  C108  A    
C29   H51   S    
C91   H22   S    
C51   N15   A    
Cr6   O10   S    
H53   N4    S    
Cr5   O11   S    
C48   O10   A    
C132  C133  A    
C34   H63   S    
C23   H39   S    
C22   H31   S    
C120  C123  A    
C43   C59   S    
C70   O1    A    
H36   N19   S    
C108  H7    S    
C49   C118  A    
C94   C123  S    
C61   C62   A    
C39   C52   S    
C6    N9    S    
C42   O43   A    
C35   C47   A    
Cr1   O18   S    
C93   C95   A    
N1    N12   A    
Cr6   O2    S    
C98   H2    S    
C124  H24   S    
C31   C105  S    
C121  H4    S    
H52   N4    S    
C35   H13   S    
C54   H26   S    
C64   H23   S    
C40   O39   D    
H77   N11   S    
C90   C100  S    
C104  C105  A    
C81   C83   A    
C18   H25   S    
C24   C69   S    
C6    C7    A    
C54   C59   A    
H57   N6    S    
C68   C78   S    
H35   N19   S    
C80   H21   S    
H37   N20   S    
Cr6   O11   S    
H66   N7    S    
C67   C68   A    
C61   N14   S    
C131  H9    S    
Cr1   O1    S    
Cr5   O8    S    
C66   C67   A    
C84   C85   A    
C114  H5    S    
C72   C73   A    
C5    C128  S    
C44   C81   S    
C74   C75   A    
C11   C134  S    
C42   C60   S    
C6    C11   A    
Cr1   O40   S    
C67   N18   S    
H58   N6    S    
C2    N13   S    
C47   C51   S    
C63   C73   S    
C60   C61   A    
C85   C86   A    
C66   C73   A    
Cr4   O41   S    
H82   N13   S    
C50   C56   S    
C3    C4    A    
C26   O25   D    
H55   N5    S    
Cr2   O19   S    
C25   C75   S    
H43   N21   S    
C72   N20   S    
C117  C122  A    
C28   O27   D    
Cr2   O14   S    
C62   C63   A    
C118  C130  A    
C19   C38   S    
H38   N20   S    
C33   O32   D    
C109  N5    S    
C125  C131  A    
C90   C92   A    
C83   C84   A    
H71   N9    S    
C43   O2    A    
C8    C12   A    
C97   C101  A    
C96   C97   A    
Cr2   O13   S    
C17   C18   A    
C104  H3    S    
C7    H15   S    
C51   N12   A    
Cr6   O9    S    
C76   C77   A    
C99   N21   S    
C92   H78   S    
C121  C122  A    
C81   C87   A    
C21   O20   D    
H68   N7    S    
C13   N11   S    
C38   O37   D    
H42   N21   S    
C30   C110  S    
C60   C65   A    
C120  H8    S    
C17   C102  S    
C82   O18   A    
C133  C134  A    
H76   N11   S    
C7    C12   A    
C26   C49   S    
H49   N3    S    
C106  O34   A    
C23   C74   S    
C20   C58   A    
C127  C128  A    
C110  C116  A    
C46   O9    A    
Cr5   O43   S    
C120  C121  A    
H74   N10   S    
C88   C95   A    
C46   C103  S    
C29   O28   D    
C70   O16   A    
C44   O41   A    
C54   C55   A    
Cr3   O23   S    
C1    O4    A    
C21   C65   S    
C70   C79   S    
C86   C87   A    
C86   N4    S    
C37   H65   S    
C14   C19   A    
C21   H30   S    
C38   H75   S    
C36   C126  S    
Cr6   O3    S    
C25   O24   D    
C22   C77   S    
C30   H59   S    
C4    C5    A    
Cr4   O5    S    
C3    N7    S    
C36   O35   D    
H72   N9    S    
N15   N16   A    
C37   C132  S    
C58   C69   A    
C9    C47   A    
C23   O22   D    
C119  C123  A    
C98   C101  A    
C36   H64   S    
C112  C122  S    
C57   O14   A    
C99   C100  A    
C29   C97   S    
H81   N13   S    
C103  C109  A    
C3    C134  A    
C62   H1    S    
C48   O5    A    
C117  C119  A    
C34   C119  S    
C71   C72   A    
C53   N3    S    
H83   N14   S    
Cr3   O16   S    
C12   C106  S    
C85   C95   S    
C115  C116  A    
C89   H67   S    
C113  C124  A    
C66   N19   S    
Cr3   O40   S    
C80   C91   A    
C68   C71   A    
C130  N17   S    
C96   C100  A    
C64   C65   A    
C76   H34   S    
C92   C93   A    
C27   O26   D    
C82   O19   A    
C10   H10   S    
C32   C115  S    
C27   C88   S    
C8    H16   S    
H84   N14   S    
H69   N8    S    
C107  C116  S    
Cr4   O11   S    
C50   N1    A    
C10   C11   A    
C63   C64   A    
C26   H41   S    
C93   H85   S    
C44   O3    A    
C30   O29   D    
C94   O23   A    
C41   C82   S    
C88   C89   A    
C13   C24   A    
C8    C10   A    
C98   C99   A    
C74   C78   A    
C45   O7    A    
C103  C104  A    
C71   H12   S    
C14   C48   S    
C14   C15   A    
C83   H45   S    
C69   C80   A    
C91   C102  A    
C1    O13   A    
C89   C90   A    
H73   N10   S    
C84   N2    S    
C75   C79   A    
C37   O36   D    
C46   O8    A    
Cr5   O44   S    
C42   O42   A    
C32   O31   D    
C52   C56   A    
C106  O17   A    
C58   H18   S    
C129  C131  A    
Cr3   O15   S    
