data_mof_unit_16347.cif
_audit_creation_date              2012-12-10T20:56:26-0500
_audit_creation_method            fapswitch 2.2
_symmetry_space_group_name_H-M    P1
_symmetry_Int_Tables_number       1
_space_group_crystal_system       triclinic
_cell_length_a                    13.223646
_cell_length_b                    15.074817
_cell_length_c                    15.832779
_cell_angle_alpha                 89.435992
_cell_angle_beta                  89.851571
_cell_angle_gamma                 70.80338
_cell_volume                      2980.52865979

loop_
_atom_site_label
_atom_site_type_symbol
_atom_type_description
_atom_site_fract_x
_atom_site_fract_y
_atom_site_fract_z
_atom_type_partial_charge
C1    C     C_R   0.498758 0.499901 0.661221 0.897105
C2    C     C_R   0.981349 0.462044 0.540561 -0.095672
C3    C     C_R   0.869826 0.486460 0.551358 -0.142839
C4    C     C_R   0.026072 0.535458 0.533537 -0.022973
C5    C     C_R   0.964664 0.629357 0.552172 -0.143991
C6    C     C_R   0.854649 0.651609 0.563645 0.439538
C7    C     C_R   0.811882 0.579407 0.578188 0.157409
C8    C     C_R   0.128232 0.519050 0.501365 -0.252103
C9    C     C_R   0.125439 0.673086 0.545730 0.310639
C10   C     C_R   0.819897 0.418804 0.531023 -0.295081
C11   C     C_R   0.508339 0.417536 0.044859 0.100980
C12   C     C_R   0.704042 0.449267 0.509552 0.985435
C13   C     C_R   0.474393 0.503972 0.087181 -0.103495
C14   C     C_R   0.429283 0.589467 0.043234 0.171809
C15   C     C_R   0.424947 0.588856 0.955111 0.139419
C16   C     C_R   0.464286 0.502781 0.912726 -0.156272
C17   C     C_R   0.501335 0.416933 0.957067 0.423688
C18   C     C_1   0.484807 0.504301 0.176024 -0.023481
C19   C     C_1   0.476692 0.502524 0.823833 0.012922
C20   C     C_1   0.487842 0.501566 0.749376 -0.206756
C21   C     C_1   0.493040 0.503036 0.250616 -0.198339
C22   C     C_R   0.531358 0.036032 0.575638 0.167561
C23   C     C_R   0.500142 0.500343 0.338852 0.907460
C24   C     C_R   0.489788 0.097463 0.506005 -0.130806
C25   C     C_R   0.442501 0.064376 0.438452 0.465773
C26   C     C_R   0.442816 0.970441 0.437619 -0.283908
C27   C     C_R   0.486157 0.908471 0.504996 -0.027654
C28   C     C_R   0.528298 0.942360 0.574071 -0.185588
C29   C     C_1   0.495840 0.194029 0.502573 0.118098
C30   C     C_1   0.493312 0.808843 0.501927 0.087023
C31   C     C_R   0.295729 0.551416 0.500619 0.925104
C32   C     C_R   0.013824 0.699508 0.558276 0.398907
C33   C     C_R   0.180424 0.584140 0.512223 -0.250494
C34   C     C_R   0.883212 0.323248 0.524766 0.341560
C35   C     C_R   0.995318 0.296094 0.529386 0.321723
C36   C     C_R   0.044647 0.364946 0.540534 0.316184
H1    H     H_    0.560678 0.893955 0.625720 0.170010
H2    H     H_    0.409856 0.945869 0.383586 0.165859
H3    H     H_    0.169699 0.454199 0.469454 0.237930
N1    N     N_1   0.500030 0.729450 0.499980 -0.107977
N2    N     N_1   0.499970 0.270550 0.500020 -0.091119
O1    O     O_R   0.500000 0.426350 0.621980 -0.639173
O2    O     O_R   0.499950 0.573700 0.621980 -0.606254
O3    O     O_R   0.653660 0.389750 0.499980 -0.563318
O4    O     O_R   0.653610 0.537090 0.499980 -0.615592
O5    O     O_R   0.500050 0.426300 0.378020 -0.599080
O6    O     O_R   0.500000 0.573650 0.378020 -0.616616
O7    O     O_R   0.346390 0.462910 0.500020 -0.625545
O8    O     O_R   0.346340 0.610250 0.500020 -0.557892
Zn1   Zn    Zn3+2 0.500030 0.401620 0.500000 0.972857
Zn2   Zn    Zn3+2 0.499970 0.598380 0.500000 0.970685
O9    O     O_3   0.180764 0.733194 0.566692 -0.607115
C37   C     C_3   0.206929 0.721612 0.653431 0.127664
H4    H     H_    0.255949 0.647573 0.668545 0.121275
H5    H     H_    0.133259 0.742236 0.693039 0.153750
C38   C     C_3   0.271944 0.784523 0.675755 -0.814267
H6    H     H_    0.290445 0.778931 0.744169 0.197898
H7    H     H_    0.348034 0.763596 0.639572 0.273015
H8    H     H_    0.225253 0.858525 0.660508 0.243919
N3    N     N_2   0.555963 0.331068 0.089198 -0.258226
H9    H     H_    0.615740 0.332544 0.130329 0.235806
C39   C     C_3   0.480697 0.291872 0.128102 -0.720206
H10   H     H_    0.436781 0.337245 0.180223 0.236445
H11   H     H_    0.524708 0.221256 0.154568 0.249012
H12   H     H_    0.422250 0.284262 0.081058 0.224215
N4    N     N_2   0.390612 0.676671 0.086569 -0.279147
H13   H     H_    0.434309 0.681558 0.139116 0.230904
C40   C     C_3   0.276554 0.708628 0.102120 -0.746538
H14   H     H_    0.252303 0.779017 0.131665 0.234926
H15   H     H_    0.255507 0.659030 0.145581 0.228386
H16   H     H_    0.231731 0.714516 0.041916 0.250931
N5    N     N_2   0.382739 0.675288 0.909746 -0.280016
H17   H     H_    0.340489 0.670859 0.856260 0.215760
C41   C     C_3   0.458783 0.724189 0.894954 -0.740812
H18   H     H_    0.524141 0.682421 0.852878 0.228846
H19   H     H_    0.493450 0.737162 0.955554 0.254709
H20   H     H_    0.417579 0.793082 0.864161 0.226446
N6    N     N_2   0.577258 0.069232 0.645297 -0.309283
H21   H     H_    0.539169 0.138353 0.661126 0.228022
C42   C     C_3   0.622977 0.007456 0.715964 -0.809145
H22   H     H_    0.660979 0.043571 0.760293 0.241961
H23   H     H_    0.686508 0.943356 0.693869 0.271157
H24   H     H_    0.559426 0.988552 0.750234 0.240525
O10   O     O_3   0.400908 0.122439 0.370073 -0.616097
C43   C     C_3   0.291996 0.172043 0.386447 0.123295
H25   H     H_    0.280709 0.206613 0.449302 0.187495
H26   H     H_    0.244061 0.123694 0.383762 0.163439
C44   C     C_3   0.249824 0.248639 0.319846 -0.780693
H27   H     H_    0.257583 0.217098 0.256056 0.248004
H28   H     H_    0.164107 0.287942 0.332236 0.220123
H29   H     H_    0.295901 0.298342 0.321892 0.251881
O11   O     O_3   0.787425 0.740695 0.541980 -0.593844
C45   C     C_3   0.763897 0.740047 0.454315 0.106922
H30   H     H_    0.694936 0.714597 0.445979 0.160998
H31   H     H_    0.831663 0.693348 0.416343 0.117692
C46   C     C_3   0.736863 0.837960 0.415561 -0.814367
H32   H     H_    0.811055 0.854398 0.402273 0.233789
H33   H     H_    0.693615 0.841244 0.354971 0.213114
H34   H     H_    0.686179 0.891837 0.458253 0.274943
O12   O     O_3   0.956251 0.785966 0.592908 -0.581606
C47   C     C_3   0.964484 0.861218 0.542422 0.189426
H35   H     H_    0.964245 0.846481 0.473654 0.120703
H36   H     H_    0.038247 0.877205 0.558021 0.182410
C48   C     C_3   0.870880 0.949144 0.561859 -0.846833
H37   H     H_    0.877268 0.971681 0.627643 0.247431
H38   H     H_    0.871785 0.006444 0.517607 0.219462
H39   H     H_    0.793947 0.935573 0.555066 0.296807
O13   O     O_3   0.834733 0.255230 0.516848 -0.552333
C49   C     C_3   0.837226 0.210007 0.596164 0.129448
H40   H     H_    0.847788 0.251737 0.651493 0.091284
H41   H     H_    0.903729 0.142207 0.596420 0.167159
C50   C     C_3   0.733407 0.189605 0.609580 -0.804452
H42   H     H_    0.717887 0.149901 0.555284 0.270373
H43   H     H_    0.739500 0.147198 0.668193 0.211516
H44   H     H_    0.665899 0.256211 0.616562 0.268072
O14   O     O_3   0.153949 0.335766 0.555120 -0.626842
C51   C     C_3   0.172106 0.347796 0.641739 0.079211
H45   H     H_    0.129843 0.310850 0.682855 0.108817
H46   H     H_    0.144957 0.423387 0.658799 0.161525
C52   C     C_3   0.291325 0.307194 0.660391 -0.850964
H47   H     H_    0.335416 0.345315 0.623244 0.291860
H48   H     H_    0.305330 0.314925 0.728505 0.198269
H49   H     H_    0.322237 0.231512 0.644313 0.234524
O15   O     O_3   0.054549 0.204220 0.508933 -0.581685
C53   C     C_3   0.114713 0.155940 0.578840 0.105970
H50   H     H_    0.069665 0.173597 0.639426 0.096231
H51   H     H_    0.190957 0.170925 0.583617 0.190719
C54   C     C_3   0.145030 0.050798 0.565040 -0.857147
H52   H     H_    0.191421 0.030863 0.505601 0.258665
H53   H     H_    0.195451 0.012982 0.618493 0.207030
H54   H     H_    0.072238 0.029899 0.561324 0.249736
N7    N     N_2   0.718344 0.599046 0.629541 -0.252555
H55   H     H_    0.674172 0.669373 0.634287 0.249947
C55   C     C_3   0.736286 0.551801 0.710883 -0.794777
H56   H     H_    0.661074 0.574016 0.748068 0.238795
H57   H     H_    0.798442 0.570536 0.746729 0.230488
H58   H     H_    0.761675 0.474460 0.702880 0.237122
O16   O     O_3   0.544895 0.332970 0.914869 -0.574277
C56   C     C_3   0.461162 0.303227 0.884369 0.126439
H59   H     H_    0.409733 0.354731 0.838561 0.129331
H60   H     H_    0.410205 0.292643 0.936848 0.125911
C57   C     C_3   0.509502 0.210440 0.839313 -0.829976
H61   H     H_    0.558987 0.156423 0.884043 0.263275
H62   H     H_    0.445005 0.186288 0.813732 0.205703
H63   H     H_    0.560749 0.219584 0.786527 0.258622

loop_
_geom_bond_atom_site_label_1
_geom_bond_atom_site_label_2
_ccdc_geom_bond_type
N4    C40   S    
C45   H30   S    
C18   C21   T    
C11   C13   A    
C19   C20   T    
C4    C8    A    
C54   H52   S    
C55   H58   S    
C50   H43   S    
C43   H25   S    
O13   C49   S    
C15   N5    S    
C26   C27   A    
C47   H35   S    
C41   H19   S    
C13   C18   S    
C35   O15   S    
C3    C7    A    
C49   H41   S    
C5    C6    A    
C42   H22   S    
C56   C57   S    
N6    C42   S    
C43   C44   S    
O4    Zn2   S    
O3    Zn1   S    
C15   C16   A    
C46   H34   S    
C38   H6    S    
N3    C39   S    
C34   C35   A    
C24   C29   S    
C48   H37   S    
C39   H11   S    
C9    C32   A    
C1    O2    A    
C35   C36   A    
N7    H55   S    
O8    Zn2   S    
C41   H20   S    
C46   H33   S    
C53   C54   S    
C31   C33   S    
C17   O16   S    
C8    H3    S    
C52   H49   S    
C5    C32   A    
O7    Zn1   S    
N4    H13   S    
C47   H36   S    
C23   O5    A    
C22   C28   A    
C13   C14   A    
C27   C30   S    
C9    C33   A    
C57   H63   S    
C9    O9    S    
C31   O8    A    
C42   H24   S    
C48   H38   S    
C50   H42   S    
C52   H48   S    
C37   H5    S    
C45   H31   S    
C23   O6    A    
C41   H18   S    
C43   H26   S    
O10   C43   S    
C22   N6    S    
N5    C41   S    
C51   C52   S    
N6    H21   S    
C40   H14   S    
C55   H57   S    
C25   C26   A    
C37   H4    S    
C32   O12   S    
N3    H9    S    
C2    C4    A    
C39   H10   S    
C25   O10   S    
C14   C15   A    
C44   H29   S    
C46   H32   S    
C14   N4    S    
C30   N1    T    
C10   C34   A    
C24   C25   A    
C7    N7    S    
C6    C7    A    
C10   C12   S    
O1    Zn1   S    
N7    C55   S    
C42   H23   S    
C44   H28   S    
C47   C48   S    
C31   O7    A    
C21   C23   S    
C53   H50   S    
C22   C24   A    
C49   C50   S    
C11   N3    S    
C36   O14   S    
C54   H54   S    
N2    Zn1   S    
O9    C37   S    
C37   C38   S    
C2    C36   A    
C11   C17   A    
C1    C20   S    
C39   H12   S    
C29   N2    T    
C57   H61   S    
C26   H2    S    
N5    H17   S    
C54   H53   S    
O6    Zn2   S    
C56   H59   S    
C40   H16   S    
C55   H56   S    
C12   O4    A    
C45   C46   S    
N1    Zn2   S    
O5    Zn1   S    
C38   H8    S    
C34   O13   S    
C51   H46   S    
C2    C3    A    
C12   O3    A    
C3    C10   A    
C49   H40   S    
C56   H60   S    
O2    Zn2   S    
C16   C17   A    
C28   H1    S    
C16   C19   S    
C6    O11   S    
O11   C45   S    
C38   H7    S    
O14   C51   S    
C57   H62   S    
C8    C33   A    
C48   H39   S    
O16   C56   S    
C1    O1    A    
C4    C5    A    
C44   H27   S    
C40   H15   S    
C27   C28   A    
C53   H51   S    
C52   H47   S    
O12   C47   S    
C51   H45   S    
C50   H44   S    
O15   C53   S    
