data_mof_unit_58148.cif
_audit_creation_date              2013-03-05T15:46:41-0500
_audit_creation_method            fapswitch 2.2
_symmetry_space_group_name_H-M    P1
_symmetry_Int_Tables_number       1
_space_group_crystal_system       triclinic
_cell_length_a                    15.857198
_cell_length_b                    11.090601
_cell_length_c                    9.980904
_cell_angle_alpha                 111.045221
_cell_angle_beta                  98.033122
_cell_angle_gamma                 93.795374
_cell_volume                      1609.22825303

loop_
_atom_site_label
_atom_site_type_symbol
_atom_site_description
_atom_site_fract_x
_atom_site_fract_y
_atom_site_fract_z
_atom_type_partial_charge
O1    O     O_R   0.507840 0.332340 0.577400 -0.538622
O2    O     O_R   0.492160 0.667660 0.422600 -0.538810
O3    O     O_R   0.483020 0.295500 0.332650 -0.572167
O4    O     O_R   0.516980 0.704500 0.667350 -0.572165
C1    C     C_R   0.494806 0.254930 0.440819 0.868439
C2    C     C_R   0.505333 0.745067 0.559209 0.868345
O5    O     O_R   0.391490 0.518400 0.622350 -0.593030
O6    O     O_R   0.608510 0.481600 0.377650 -0.593014
O7    O     O_R   0.366660 0.481570 0.377600 -0.545149
O8    O     O_R   0.633340 0.518430 0.622400 -0.545133
C3    C     C_R   0.340231 0.499612 0.500521 0.816228
C4    C     C_R   0.659769 0.500391 0.499480 0.815581
Cu1   Cu    Cu3+1 0.514700 0.521810 0.644910 1.015485
Cu2   Cu    Cu3+1 0.485300 0.478190 0.355090 1.015494
C5    C     C_3   0.971329 0.402807 0.533725 0.397185
C6    C     C_3   0.028669 0.597185 0.466280 0.397087
C7    C     C_3   0.015010 0.386286 0.400974 -0.243934
C8    C     C_3   0.984988 0.613706 0.599032 -0.243902
H1    H     H_    0.027670 0.292284 0.321772 0.194936
H2    H     H_    0.972328 0.707708 0.678234 0.194914
H3    H     H_    0.926188 0.475958 0.255831 0.193299
H4    H     H_    0.073810 0.524034 0.744174 0.193289
C9    C     C_1   0.250732 0.499908 0.501875 -0.091503
C10   C     C_1   0.749267 0.500091 0.498127 -0.091668
C11   C     C_3   0.040539 0.514462 0.634663 -0.249537
C12   C     C_3   0.959460 0.485530 0.365343 -0.249605
C13   C     C_3   0.083521 0.500391 0.501067 0.013537
C14   C     C_3   0.916478 0.499602 0.498939 0.013559
C15   C     C_1   0.175226 0.500156 0.501978 0.073200
C16   C     C_1   0.824773 0.499840 0.498026 0.073135
C17   C     C_2   0.484537 0.115866 0.409264 -0.372884
C18   C     C_2   0.516034 0.884101 0.590910 -0.371607
C19   C     C_2   0.515813 0.067327 0.509275 0.244866
C20   C     C_2   0.484153 0.933037 0.491657 0.245033
H5    H     H_    0.559310 0.943441 0.690582 0.189787
H6    H     H_    0.442056 0.056041 0.308839 0.190006
N1    N     N_2   0.463210 0.445420 0.137360 -0.272502
N2    N     N_2   0.536790 0.554580 0.862640 -0.272652
C21   C     C_2   0.509160 0.511505 0.080187 0.287676
C22   C     C_2   0.490781 0.488582 0.919829 0.287504
H7    H     H_    0.588000 0.621812 0.926073 0.195387
H8    H     H_    0.412009 0.378158 0.073956 0.195471
N3    N     N_R   0.941021 0.294136 0.571380 0.139932
O9    O     O_R   0.994946 0.218955 0.598402 -0.303631
O10   O     O_R   0.860545 0.271463 0.578238 -0.296788
N4    N     N_R   0.058973 0.705857 0.428626 0.139956
O11   O     O_R   0.005049 0.781037 0.401609 -0.303676
O12   O     O_R   0.139450 0.728531 0.421761 -0.296023
N5    N     N_R   0.418023 0.856225 0.370144 0.134019
O13   O     O_R   0.433190 0.820305 0.237484 -0.370023
O14   O     O_R   0.346236 0.810142 0.393502 -0.291879
N6    N     N_R   0.581116 0.144697 0.631948 0.134254
O15   O     O_R   0.565223 0.179084 0.764085 -0.370861
O16   O     O_R   0.653075 0.191918 0.610311 -0.292096
C23   C     C_3   0.415811 0.386046 0.829793 -0.695889
H9    H     H_    0.426298 0.292108 0.841529 0.216830
H10   H     H_    0.355715 0.417687 0.868928 0.193033
H11   H     H_    0.403835 0.362366 0.713099 0.264338
C24   C     C_3   0.583973 0.614333 0.170294 -0.696818
H12   H     H_    0.573168 0.708275 0.158839 0.216536
H13   H     H_    0.596140 0.637689 0.286949 0.264302
H14   H     H_    0.644108 0.583151 0.131012 0.192922

loop_
_geom_bond_atom_site_label_1
_geom_bond_atom_site_label_2
_geom_bond_distance
_ccdc_geom_bond_type
C1    C17   1.451875 S    
O5    Cu1   1.931444 S    
C2    C18   1.451384 S    
O7    Cu2   1.926807 S    
C17   C19   1.347249 D    
C8    C14   1.544796 S    
O3    Cu2   1.954185 S    
C11   C13   1.544516 S    
O7    C3    1.303595 A    
C4    C10   1.421352 S    
C12   C14   1.544512 S    
O6    C4    1.304625 A    
N3    O9    1.300226 A    
C22   C23   1.517408 S    
C21   C24   1.517508 S    
C6    C13   1.528538 S    
C14   C16   1.453114 S    
C19   C20   1.479662 S    
C5    C14   1.528531 S    
C5    N3    1.457365 S    
C24   H12   1.109800 S    
N1    C21   1.318939 D    
C6    C8    1.538781 S    
O2    C2    1.302186 A    
Cu1   Cu2   2.721594 S    
C19   N6    1.442628 S    
O5    C3    1.304623 A    
N3    O10   1.300279 A    
Cu1   N2    2.044622 S    
C23   H11   1.083273 S    
C8    C11   1.560721 S    
O8    C4    1.303594 A    
O1    C1    1.302047 A    
C7    C12   1.560721 S    
C9    C15   1.197642 T    
C3    C9    1.421359 S    
N2    C22   1.318935 D    
H3    C12   1.110135 S    
N6    O16   1.301508 A    
N1    H8    1.026306 S    
C8    H2    1.110073 S    
C23   H10   1.110720 S    
C6    C12   1.538791 S    
O2    Cu2   1.952898 S    
N4    O12   1.300300 A    
C23   H9    1.109923 S    
C5    C11   1.538798 S    
C10   C16   1.197639 T    
C13   C15   1.453122 S    
C7    C13   1.544801 S    
C18   H5    1.082999 S    
C21   C22   1.509577 S    
O1    Cu1   1.952896 S    
N6    O15   1.301041 A    
N2    H7    1.026329 S    
O4    C2    1.305978 A    
N5    O13   1.300969 A    
C24   H13   1.083494 S    
C6    N4    1.457354 S    
O4    Cu1   1.954185 S    
C5    C7    1.538785 S    
N4    O11   1.300195 A    
C20   N5    1.442395 S    
O6    Cu2   1.931444 S    
C24   H14   1.110581 S    
C7    H1    1.110070 S    
C17   H6    1.083120 S    
H4    C11   1.110131 S    
N5    O14   1.301592 A    
Cu2   N1    2.044622 S    
O3    C1    1.306365 A    
O8    Cu1   1.926807 S    
C18   C20   1.346846 D    
