data_mof_unit_46411.cif
_audit_creation_date              2012-12-10T18:47:00-0500
_audit_creation_method            fapswitch 2.2
_symmetry_space_group_name_H-M    P1
_symmetry_Int_Tables_number       1
_space_group_crystal_system       triclinic
_cell_length_a                    10.885147
_cell_length_b                    9.790854
_cell_length_c                    15.029221
_cell_angle_alpha                 89.741679
_cell_angle_beta                  93.26227
_cell_angle_gamma                 89.385223
_cell_volume                      1599.0288191

loop_
_atom_site_label
_atom_site_type_symbol
_atom_type_description
_atom_site_fract_x
_atom_site_fract_y
_atom_site_fract_z
_atom_type_partial_charge
C1    C     C_R   0.259812 0.500914 0.502304 1.036425
C2    C     C_R   0.740311 0.499353 0.499121 1.043793
C3    C     C_R   0.281499 0.445848 0.031915 0.381063
C4    C     C_R   0.729095 0.536696 0.971112 0.378819
C5    C     C_R   0.067229 0.383042 0.531277 0.322212
C6    C     C_R   0.933107 0.619178 0.474113 0.290524
C7    C     C_R   0.940080 0.380188 0.526501 0.280442
C8    C     C_R   0.060175 0.622862 0.480625 0.272087
C9    C     C_R   0.872680 0.498570 0.498420 -0.348845
C10   C     C_R   0.127632 0.502995 0.505885 -0.386094
C11   C     C_R   0.569878 0.070833 0.562623 0.023438
C12   C     C_R   0.430090 0.929156 0.437345 0.021968
C13   C     C_R   0.429903 0.073415 0.437438 0.006707
C14   C     C_R   0.570305 0.926647 0.562351 0.000750
C15   C     C_R   0.494181 0.499925 0.326863 0.941061
C16   C     C_R   0.507392 0.499869 0.673127 0.944920
C17   C     C_R   0.620148 0.523024 0.819477 -0.118989
C18   C     C_R   0.384704 0.497033 0.179200 -0.111770
C19   C     C_R   0.509517 0.499919 0.768865 -0.181621
C20   C     C_R   0.495554 0.497126 0.231532 -0.173613
C21   C     C_R   0.399272 0.475926 0.808172 0.352735
C22   C     C_R   0.609026 0.487481 0.193496 0.349766
C23   C     C_R   0.397669 0.471428 0.900539 -0.022975
C24   C     C_R   0.612913 0.496489 0.101083 -0.020059
C25   C     C_R   0.507728 0.490990 0.953667 -0.026674
C26   C     C_R   0.502987 0.487111 0.047120 -0.028669
C27   C     C_R   0.621215 0.517340 0.913885 0.005975
C28   C     C_R   0.388116 0.475378 0.086743 -0.000959
C29   C     C_R   0.287594 0.445207 0.940549 -0.154339
C30   C     C_R   0.724003 0.519413 0.062299 -0.154096
H1    H     H_    0.203980 0.422605 0.901285 0.243974
H2    H     H_    0.807998 0.532613 0.103368 0.236741
H3    H     H_    0.625148 0.124747 0.612853 0.155955
H4    H     H_    0.374681 0.875174 0.387193 0.156543
H5    H     H_    0.373930 0.129455 0.387603 0.132929
H6    H     H_    0.626725 0.870741 0.611776 0.120560
N1    N     N_R   0.500000 0.857200 0.500000 -0.093362
N2    N     N_R   0.500000 0.142800 0.500000 -0.094077
O1    O     O_R   0.316770 0.614620 0.499990 -0.573927
O2    O     O_R   0.683230 0.385380 0.500010 -0.568359
O3    O     O_R   0.683230 0.614620 0.500010 -0.585922
O4    O     O_R   0.316770 0.385380 0.499990 -0.585541
O5    O     O_R   0.499980 0.614680 0.367850 -0.610800
O6    O     O_R   0.500020 0.385320 0.632150 -0.598294
O7    O     O_R   0.500020 0.614680 0.632150 -0.630543
O8    O     O_R   0.499980 0.385320 0.367850 -0.618134
Zn1   Zn    Zn3+2 0.500000 0.653120 0.500000 1.035537
Zn2   Zn    Zn3+2 0.500000 0.346880 0.500000 1.047202
C31   C     C_R   0.732255 0.551089 0.771791 0.118589
C32   C     C_R   0.818539 0.446449 0.759461 -0.085602
C33   C     C_R   0.932241 0.477740 0.726419 -0.058320
C34   C     C_R   0.957734 0.611782 0.701273 -0.085339
C35   C     C_R   0.869098 0.714763 0.708583 -0.082132
C36   C     C_R   0.756789 0.684878 0.744470 -0.098044
H7    H     H_    0.800354 0.342776 0.779981 0.163471
H8    H     H_    0.000527 0.397825 0.720567 0.221933
H9    H     H_    0.045806 0.635779 0.675588 0.192853
H10   H     H_    0.888524 0.818198 0.688395 0.184622
H11   H     H_    0.690767 0.766253 0.753974 0.136573
C37   C     C_R   0.269633 0.543552 0.217707 0.128580
C38   C     C_R   0.202071 0.455439 0.269711 -0.108205
C39   C     C_R   0.081838 0.491094 0.288988 -0.087545
C40   C     C_R   0.031623 0.617107 0.260485 -0.003320
C41   C     C_R   0.101361 0.708315 0.213502 -0.042591
C42   C     C_R   0.219912 0.671535 0.191677 -0.113478
H12   H     H_    0.239025 0.356117 0.289696 0.147438
H13   H     H_    0.027235 0.420665 0.325397 0.177890
H14   H     H_    0.938968 0.645193 0.275158 0.213133
H15   H     H_    0.062418 0.806031 0.192121 0.168387
H16   H     H_    0.271330 0.740326 0.151543 0.143656
Cl1   Cl    Cl    0.262354 0.456500 0.739525 -0.633993
Cl2   Cl    Cl    0.745043 0.465898 0.263037 -0.644079
Cl3   Cl    Cl    0.139811 0.391253 0.070553 -0.553076
Cl4   Cl    Cl    0.874888 0.590501 0.939497 -0.564627
Cl5   Cl    Cl    0.146912 0.235478 0.575746 -0.424636
Cl6   Cl    Cl    0.853789 0.767840 0.430610 -0.476964
Cl7   Cl    Cl    0.870183 0.227223 0.562433 -0.521618
Cl8   Cl    Cl    0.129549 0.780440 0.452803 -0.508026

loop_
_geom_bond_atom_site_label_1
_geom_bond_atom_site_label_2
_ccdc_geom_bond_type
C6    C9    A    
C35   C36   A    
C39   H13   S    
C21   Cl1   S    
C23   C29   A    
C3    C28   A    
C19   C21   A    
C24   C26   A    
C13   H5    S    
C14   H6    S    
C11   C14   A    
C2    O3    A    
C31   C36   A    
O2    Zn2   S    
C33   H8    S    
C12   N1    A    
C3    C29   A    
C38   H12   S    
N1    Zn1   S    
C16   O6    A    
N2    Zn2   S    
C7    Cl7   S    
C8    Cl8   S    
C22   Cl2   S    
C36   H11   S    
O7    Zn1   S    
C15   C20   S    
O8    Zn2   S    
C33   C34   A    
C17   C27   A    
C11   H3    S    
C18   C28   A    
C17   C31   S    
C5    C7    A    
C6    C8    A    
C25   C26   A    
C37   C38   A    
C5    Cl5   S    
C11   N2    A    
C39   C40   A    
C32   C33   A    
O3    Zn1   S    
O4    Zn2   S    
C41   H15   S    
C13   N2    A    
C18   C37   S    
C20   C22   A    
C37   C42   A    
C21   C23   A    
C22   C24   A    
C12   H4    S    
C4    C27   A    
C34   C35   A    
O1    Zn1   S    
C7    C9    A    
C40   H14   S    
C4    Cl4   S    
C1    C10   S    
C16   O7    A    
C35   H10   S    
C6    Cl6   S    
C25   C27   A    
C26   C28   A    
C32   H7    S    
C41   C42   A    
C15   O5    A    
C5    C10   A    
C29   H1    S    
C14   N1    A    
C30   H2    S    
C16   C19   S    
C17   C19   A    
C18   C20   A    
C23   C25   A    
C38   C39   A    
C3    Cl3   S    
C24   C30   A    
C34   H9    S    
C1    O1    A    
C40   C41   A    
C2    O2    A    
C1    O4    A    
C12   C13   A    
C8    C10   A    
C31   C32   A    
C15   O8    A    
C42   H16   S    
C2    C9    S    
O5    Zn1   S    
C4    C30   A    
O6    Zn2   S    
