data_mof_unit_15339.cif
_audit_creation_date              2012-10-26T19:35:12-0400
_audit_creation_method            fapswitch 2.2
_symmetry_space_group_name_H-M    P1
_symmetry_Int_Tables_number       1
_space_group_crystal_system       triclinic
_cell_length_a                    10.864193
_cell_length_b                    10.839034
_cell_length_c                    9.523562
_cell_angle_alpha                 90.565073
_cell_angle_beta                  89.216689
_cell_angle_gamma                 90.386276
_cell_volume                      1121.28567448

loop_
_atom_site_label
_atom_site_type_symbol
_atom_type_description
_atom_site_fract_x
_atom_site_fract_y
_atom_site_fract_z
_atom_type_partial_charge
C1    C     C_R   0.496990 0.262358 0.499370 0.549003
C2    C     C_R   0.476878 0.934443 0.371870 -0.159268
C3    C     C_R   0.485517 0.871170 0.499835 0.007357
C4    C     C_R   0.261858 0.506736 0.502046 0.547807
C5    C     C_R   0.474915 0.938512 0.625151 0.020954
C6    C     C_3   0.551471 0.936710 0.754209 -0.275582
C7    C     C_3   0.549728 0.076487 0.752970 -0.254749
C8    C     C_R   0.603919 0.531423 0.072562 0.202580
C9    C     C_R   0.403305 0.452897 0.075375 -0.020952
C10   C     C_R   0.403774 0.452080 0.926410 -0.029475
C11   C     C_R   0.604164 0.530701 0.925153 0.194548
C12   C     C_R   0.058626 0.496208 0.635650 0.016677
C13   C     C_3   0.673737 0.649213 0.919146 -0.277110
C14   C     C_3   0.672534 0.650764 0.078601 -0.273572
C15   C     C_R   0.497967 0.737919 0.500387 0.550180
C16   C     C_R   0.737303 0.489674 0.499583 0.542372
C17   C     C_R   0.107603 0.517121 0.770952 -0.142311
C18   C     C_R   0.046281 0.475041 0.891003 -0.139146
C19   C     C_R   0.933749 0.412480 0.878934 0.239941
C20   C     C_R   0.878196 0.405470 0.747886 -0.041909
C21   C     C_R   0.934641 0.458935 0.627849 -0.023195
C22   C     C_R   0.126806 0.511220 0.507804 0.004204
C23   C     C_R   0.064369 0.515211 0.380170 -0.160938
C24   C     C_R   0.937600 0.504621 0.377728 -0.156388
C25   C     C_R   0.871324 0.478440 0.500864 -0.007036
C26   C     C_R   0.473999 0.065532 0.624026 0.020831
C27   C     C_R   0.483634 0.129501 0.498099 0.008393
C28   C     C_R   0.475991 0.063131 0.370993 -0.157117
Cu1   Cu    Cu3+1 0.499990 0.499980 0.640670 0.931788
Cu2   Cu    Cu3+1 0.500010 0.500020 0.359330 0.946027
H1    H     H_    0.113314 0.529039 0.281635 0.124599
H2    H     H_    0.616797 0.726950 0.124952 0.138495
H3    H     H_    0.190231 0.570612 0.787339 0.148264
H4    H     H_    0.087578 0.489609 0.992763 0.082151
H5    H     H_    0.791585 0.356129 0.741217 0.157535
H6    H     H_    0.891505 0.517303 0.278986 0.133442
H7    H     H_    0.475915 0.109923 0.271023 0.139662
H8    H     H_    0.477017 0.885369 0.272263 0.131194
H9    H     H_    0.500007 0.897884 0.845444 0.132493
H10   H     H_    0.925889 0.372981 0.077068 0.318119
H11   H     H_    0.644792 0.898313 0.734018 0.136190
H12   H     H_    0.497150 0.117423 0.842710 0.145277
H13   H     H_    0.641765 0.118726 0.732514 0.146456
H14   H     H_    0.324275 0.416218 0.131499 0.118240
H15   H     H_    0.326177 0.413082 0.871643 0.124456
H16   H     H_    0.767303 0.637961 0.872385 0.145010
H17   H     H_    0.618492 0.723390 0.873619 0.136883
H18   H     H_    0.765661 0.640530 0.123503 0.132537
N1    N     N_R   0.500790 0.500930 0.147930 -0.236686
N2    N     N_R   0.500790 0.500890 0.852020 -0.242011
O1    O     O_R   0.500000 0.319640 0.618810 -0.503008
O2    O     O_R   0.500010 0.319680 0.381230 -0.501168
O3    O     O_R   0.319640 0.499980 0.618820 -0.518897
O4    O     O_R   0.319650 0.500020 0.381230 -0.514358
O5    O     O_R   0.499990 0.680320 0.618770 -0.500064
O6    O     O_R   0.500000 0.680360 0.381190 -0.509883
O7    O     O_R   0.680350 0.499980 0.618770 -0.516409
O8    O     O_R   0.680360 0.500020 0.381180 -0.495570
O9    O     O_3   0.873713 0.361657 0.993250 -0.716863

loop_
_geom_bond_atom_site_label_1
_geom_bond_atom_site_label_2
_ccdc_geom_bond_type
C12   C17   A    
C8    C14   S    
C23   C24   A    
C6    C7    S    
C16   C25   S    
C7    H13   S    
C4    O3    A    
Cu1   Cu2   S    
C4    C22   S    
C9    C10   A    
C2    H8    S    
C19   C20   A    
C1    O1    A    
C16   O7    A    
C4    O4    A    
C15   O6    A    
Cu2   O4    S    
C10   H15   S    
C17   C18   A    
C3    C5    A    
C3    C15   S    
H10   O9    S    
C16   O8    A    
C13   C14   S    
C24   C25   A    
C18   H4    S    
C26   C27   A    
C24   H6    S    
C7    C26   S    
C17   H3    S    
C28   H7    S    
C8    C11   A    
Cu2   O8    S    
Cu2   N1    S    
Cu1   O7    S    
C2    C3    A    
C11   N2    A    
Cu1   N2    S    
C22   C23   A    
C15   O5    A    
C5    C6    S    
C1    O2    A    
C8    N1    A    
C2    C28   A    
C5    C26   A    
C10   N2    A    
C12   C22   A    
C11   C13   S    
C9    N1    A    
C20   C21   A    
C13   H17   S    
C18   C19   A    
Cu1   O1    S    
C7    H12   S    
C27   C28   A    
C1    C27   S    
C21   C25   A    
C13   H16   S    
C9    H14   S    
C14   H18   S    
Cu1   O5    S    
C19   O9    S    
C6    H9    S    
C20   H5    S    
Cu2   O6    S    
C12   C21   A    
C14   H2    S    
Cu2   O2    S    
Cu1   O3    S    
C6    H11   S    
C23   H1    S    
