data_mof_unit_64780.cif
_audit_creation_date              2013-03-05T15:50:23-0500
_audit_creation_method            fapswitch 2.2
_symmetry_space_group_name_H-M    P1
_symmetry_Int_Tables_number       1
_space_group_crystal_system       triclinic
_cell_length_a                    36.844759
_cell_length_b                    30.258158
_cell_length_c                    21.452121
_cell_angle_alpha                 89.972434
_cell_angle_beta                  55.142936
_cell_angle_gamma                 89.985574
_cell_volume                      19624.993964

loop_
_atom_site_label
_atom_site_type_symbol
_atom_site_description
_atom_site_fract_x
_atom_site_fract_y
_atom_site_fract_z
_atom_type_partial_charge
O1    O     O_R   0.064870 0.537550 0.435160 -0.580537
O2    O     O_R   0.935130 0.537550 0.564840 -0.580889
O3    O     O_R   0.564870 0.037550 0.435160 -0.580567
O4    O     O_R   0.435130 0.037550 0.564840 -0.580478
O5    O     O_R   0.064850 0.462440 0.435150 -0.541443
O6    O     O_R   0.935150 0.462440 0.564850 -0.542790
O7    O     O_R   0.564850 0.962440 0.435150 -0.542561
O8    O     O_R   0.435150 0.962440 0.564850 -0.542617
C1    C     C_R   0.085444 0.499896 0.412429 0.818076
C2    C     C_R   0.914554 0.499892 0.587575 0.816632
C3    C     C_R   0.585445 0.999895 0.412423 0.817554
C4    C     C_R   0.414555 0.999892 0.587576 0.817596
O9    O     O_R   0.999990 0.537540 0.591580 -0.559812
O10   O     O_R   0.000010 0.537540 0.408420 -0.558391
O11   O     O_R   0.499990 0.037540 0.591580 -0.558588
O12   O     O_R   0.500010 0.037540 0.408420 -0.558665
O13   O     O_R   0.999980 0.462440 0.591580 -0.552586
O14   O     O_R   0.000020 0.462440 0.408420 -0.555698
O15   O     O_R   0.499980 0.962440 0.591580 -0.555476
O16   O     O_R   0.500020 0.962440 0.408420 -0.555419
C5    C     C_R   0.999351 0.500055 0.620805 0.836793
C6    C     C_R   0.000496 0.500081 0.379329 0.835519
C7    C     C_R   0.499508 0.000067 0.620669 0.835775
C8    C     C_R   0.500486 0.000085 0.379336 0.835767
Cu1   Cu    Cu3+1 0.000000 0.544460 0.500000 1.109424
Cu2   Cu    Cu3+1 0.500000 0.044460 0.500000 1.109257
Cu3   Cu    Cu3+1 0.000000 0.455520 0.500000 1.133201
Cu4   Cu    Cu3+1 0.500000 0.955520 0.500000 1.129816
C9    C     C_3   0.041078 0.495708 0.687900 -0.233909
C10   C     C_3   0.958717 0.496729 0.311980 -0.227996
C11   C     C_3   0.541241 0.996223 0.688083 -0.228250
C12   C     C_3   0.458764 0.996145 0.311915 -0.228188
C13   C     C_3   0.015844 0.462312 0.753550 0.329946
C14   C     C_3   0.983514 0.463054 0.246772 0.325536
C15   C     C_3   0.516046 0.962850 0.753745 0.325906
C16   C     C_3   0.484058 0.962843 0.246210 0.325976
H1    H     H_    0.075415 0.492261 0.636509 0.179914
H2    H     H_    0.924288 0.493767 0.363287 0.179859
H3    H     H_    0.575635 0.992855 0.636824 0.180039
H4    H     H_    0.424379 0.992676 0.363168 0.180064
C17   C     C_3   0.999104 0.499390 0.812471 -0.221619
C18   C     C_3   0.001003 0.499897 0.187442 -0.222499
C19   C     C_3   0.498987 0.999907 0.812574 -0.222706
C20   C     C_3   0.501010 0.999945 0.187428 -0.222662
C21   C     C_3   0.023207 0.533059 0.747564 0.310154
C22   C     C_3   0.977361 0.533866 0.251848 0.319890
C23   C     C_3   0.523023 0.033590 0.747722 0.319519
C24   C     C_3   0.476873 0.033562 0.252324 0.319270
C25   C     C_3   0.981717 0.538403 0.747569 -0.083128
C26   C     C_3   0.018859 0.538366 0.252069 -0.084096
C27   C     C_3   0.481584 0.038554 0.747437 -0.084467
C28   C     C_3   0.518296 0.038655 0.252623 -0.084502
C29   C     C_3   0.957494 0.504004 0.812117 -0.180913
C30   C     C_3   0.042591 0.503652 0.187988 -0.180426
C31   C     C_3   0.457446 0.004127 0.811975 -0.180143
C32   C     C_3   0.542537 0.004296 0.188038 -0.180091
C33   C     C_3   0.974039 0.465779 0.753733 -0.215275
C34   C     C_3   0.025287 0.465600 0.246865 -0.207894
C35   C     C_3   0.474307 0.965868 0.753604 -0.207757
C36   C     C_3   0.525786 0.965992 0.246357 -0.207795
C37   C     C_3   0.998763 0.500371 0.689464 -0.126282
C38   C     C_3   0.001044 0.500505 0.310685 -0.135647
C39   C     C_3   0.498962 0.000476 0.689316 -0.136078
C40   C     C_3   0.501028 0.000529 0.310692 -0.136004
H5    H     H_    0.954065 0.437668 0.755658 0.232392
H6    H     H_    0.044795 0.437176 0.245476 0.235958
H7    H     H_    0.454476 0.937663 0.755358 0.236300
H8    H     H_    0.545700 0.937846 0.244565 0.236391
C41   C     C_R   0.343107 0.469449 0.111640 -0.060545
C42   C     C_R   0.656884 0.469405 0.888353 -0.060578
C43   C     C_R   0.843114 0.969419 0.111692 -0.060146
C44   C     C_R   0.156884 0.969409 0.888342 -0.060185
C45   C     C_R   0.365955 0.496411 0.132252 -0.130249
C46   C     C_R   0.634041 0.496416 0.867758 -0.130238
C47   C     C_R   0.865958 0.996433 0.132246 -0.130163
C48   C     C_R   0.134041 0.996428 0.867758 -0.130073
C49   C     C_R   0.342757 0.522854 0.197077 -0.114112
C50   C     C_R   0.657243 0.522914 0.802965 -0.113998
C51   C     C_R   0.842758 0.022929 0.197004 -0.115856
C52   C     C_R   0.157243 0.022931 0.802971 -0.115706
C53   C     C_R   0.296532 0.524746 0.241524 -0.017236
C54   C     C_R   0.703468 0.524809 0.758533 -0.017255
C55   C     C_R   0.796533 0.024814 0.241447 -0.016884
C56   C     C_R   0.203468 0.024816 0.758526 -0.016914
C57   C     C_R   0.273062 0.496948 0.222809 0.029484
C58   C     C_R   0.726933 0.496953 0.777215 0.029430
C59   C     C_R   0.773066 0.996960 0.222799 0.029496
C60   C     C_R   0.226933 0.996956 0.777204 0.029503
C61   C     C_R   0.296248 0.468973 0.158437 0.076057
C62   C     C_R   0.703742 0.468924 0.841555 0.076088
C63   C     C_R   0.796256 0.968936 0.158492 0.075985
C64   C     C_R   0.203742 0.968925 0.841542 0.075994
C65   C     C_R   0.273153 0.552902 0.305576 0.324674
C66   C     C_R   0.726850 0.553025 0.694525 0.324720
C67   C     C_R   0.773151 0.053017 0.305433 0.324682
C68   C     C_R   0.226852 0.053027 0.694510 0.324630
C69   C     C_R   0.227007 0.551764 0.351592 -0.204761
C70   C     C_R   0.772995 0.551890 0.648515 -0.204703
C71   C     C_R   0.727005 0.051878 0.351447 -0.204738
C72   C     C_R   0.272998 0.051887 0.648495 -0.204652
C73   C     C_R   0.203614 0.524419 0.333765 0.054345
C74   C     C_R   0.796385 0.524482 0.666301 0.054423
C75   C     C_R   0.703615 0.024478 0.333687 0.054402
C76   C     C_R   0.296386 0.024480 0.666284 0.054396
C77   C     C_R   0.226315 0.496751 0.269228 0.038730
C78   C     C_R   0.773681 0.496750 0.730794 0.038648
C79   C     C_R   0.726319 0.996755 0.269222 0.038604
C80   C     C_R   0.273681 0.996751 0.730781 0.038615
C81   C     C_R   0.202267 0.469002 0.251437 -0.049210
C82   C     C_R   0.797725 0.468931 0.748536 -0.049525
C83   C     C_R   0.702275 0.968943 0.251507 -0.049461
C84   C     C_R   0.297724 0.968934 0.748527 -0.049448
C85   C     C_R   0.225927 0.438219 0.190944 -0.049704
C86   C     C_R   0.774057 0.438104 0.809001 -0.049663
C87   C     C_R   0.725941 0.938118 0.191083 -0.049800
C88   C     C_R   0.274057 0.938102 0.808985 -0.049791
C89   C     C_R   0.272131 0.439335 0.144904 -0.127747
C90   C     C_R   0.727853 0.439232 0.855052 -0.127926
C91   C     C_R   0.772144 0.939246 0.145032 -0.127928
C92   C     C_R   0.227853 0.939229 0.855034 -0.127885
C93   C     C_R   0.157599 0.524528 0.380242 -0.232066
C94   C     C_R   0.842399 0.524593 0.619825 -0.232733
C95   C     C_R   0.657600 0.024588 0.380160 -0.232720
C96   C     C_R   0.342401 0.024588 0.619809 -0.232680
C97   C     C_R   0.133624 0.499115 0.361535 -0.138520
C98   C     C_R   0.866373 0.499105 0.638475 -0.138528
C99   C     C_R   0.633627 0.999111 0.361528 -0.138991
C100  C     C_R   0.366373 0.999106 0.638470 -0.138988
C101  C     C_R   0.155496 0.473108 0.295051 0.276169
C102  C     C_R   0.844500 0.473017 0.704905 0.276291
C103  C     C_R   0.655501 0.973033 0.295122 0.276080
C104  C     C_R   0.344498 0.973024 0.704908 0.276032
H9    H     H_    0.361439 0.542374 0.211765 0.207807
H10   H     H_    0.638563 0.542474 0.788295 0.207789
H11   H     H_    0.861441 0.042491 0.211643 0.207418
H12   H     H_    0.138562 0.042498 0.788310 0.207415
H13   H     H_    0.209233 0.573302 0.400730 0.197653
H14   H     H_    0.790771 0.573476 0.599411 0.197589
H15   H     H_    0.709229 0.073454 0.400533 0.197667
H16   H     H_    0.290775 0.073468 0.599386 0.197711
H17   H     H_    0.140172 0.544823 0.431059 0.173869
H18   H     H_    0.859827 0.544944 0.569046 0.173734
H19   H     H_    0.640173 0.044930 0.430920 0.173909
H20   H     H_    0.359830 0.044935 0.569025 0.173939
H21   H     H_    0.289091 0.414728 0.100690 0.214564
H22   H     H_    0.710889 0.414591 0.899240 0.214529
H23   H     H_    0.789108 0.914608 0.100875 0.214536
H24   H     H_    0.210888 0.914586 0.899217 0.214551
O17   O     O_R   0.962450 0.435150 0.037500 -0.575266
O18   O     O_R   0.037550 0.435150 0.962500 -0.562935
O19   O     O_R   0.462450 0.935150 0.037500 -0.569687
O20   O     O_R   0.537550 0.935150 0.962500 -0.569688
C105  C     C_R   0.999991 0.414491 0.999887 0.741544
C106  C     C_R   0.499999 0.914476 0.999996 0.726034
O21   O     O_R   0.962450 0.500030 0.945950 -0.591482
O22   O     O_R   0.037550 0.500030 0.054050 -0.590027
O23   O     O_R   0.462450 0.000030 0.945950 -0.589358
O24   O     O_R   0.537550 0.000030 0.054050 -0.589426
O25   O     O_R   0.037540 0.500060 0.870890 -0.514268
O26   O     O_R   0.962460 0.500060 0.129110 -0.513429
O27   O     O_R   0.537540 0.000060 0.870890 -0.513233
O28   O     O_R   0.462460 0.000060 0.129110 -0.513253
C107  C     C_R   0.999732 0.499764 0.880041 0.830841
C108  C     C_R   0.000281 0.499827 0.119958 0.807830
C109  C     C_R   0.499717 0.999836 0.880046 0.809290
C110  C     C_R   0.500282 0.999849 0.119955 0.809330
Cu5   Cu    Cu3+1 0.955530 0.500030 0.044440 1.128930
Cu6   Cu    Cu3+1 0.044470 0.500030 0.955560 1.130420
Cu7   Cu    Cu3+1 0.455530 0.000030 0.044440 1.130175
Cu8   Cu    Cu3+1 0.544470 0.000030 0.955560 1.130072
O29   O     O_R   0.962440 0.564920 0.037550 -0.558127
O30   O     O_R   0.037560 0.564920 0.962450 -0.559349
O31   O     O_R   0.462440 0.064920 0.037550 -0.557943
O32   O     O_R   0.537560 0.064920 0.962450 -0.557922
C111  C     C_R   0.000006 0.585525 0.000024 0.721092
C112  C     C_R   0.500000 0.085523 0.000002 0.721660
O33   O     O_R   0.499970 0.435080 0.053010 -0.594829
O34   O     O_R   0.500030 0.435080 0.946990 -0.594810
O35   O     O_R   0.999970 0.935080 0.053010 -0.594656
O36   O     O_R   0.000030 0.935080 0.946990 -0.594664
C113  C     C_R   0.499996 0.414315 0.000016 0.746239
C114  C     C_R   0.000007 0.914317 0.000001 0.746210
O37   O     O_R   0.435150 0.499980 0.117890 -0.585435
O38   O     O_R   0.564850 0.499980 0.882110 -0.585423
O39   O     O_R   0.935150 0.999980 0.117890 -0.585432
O40   O     O_R   0.064850 0.999980 0.882110 -0.585453
O41   O     O_R   0.435090 0.499970 0.011940 -0.550967
O42   O     O_R   0.564910 0.499970 0.988060 -0.550922
O43   O     O_R   0.935090 0.999970 0.011940 -0.550483
O44   O     O_R   0.064910 0.999970 0.988060 -0.550482
C115  C     C_R   0.414419 0.498722 0.085188 0.803538
C116  C     C_R   0.585580 0.498725 0.914814 0.803517
C117  C     C_R   0.914419 0.998740 0.085187 0.801893
C118  C     C_R   0.085580 0.998736 0.914814 0.802090
Cu9   Cu    Cu3+1 0.500020 0.499960 0.062730 1.095665
Cu10  Cu    Cu3+1 0.499980 0.499960 0.937270 1.095660
Cu11  Cu    Cu3+1 0.000020 0.999960 0.062730 1.096617
Cu12  Cu    Cu3+1 0.999980 0.999960 0.937270 1.096779
O45   O     O_R   0.500060 0.564850 0.052930 -0.542646
O46   O     O_R   0.499940 0.564850 0.947070 -0.542675
O47   O     O_R   0.000060 0.064850 0.052930 -0.541835
O48   O     O_R   0.999940 0.064850 0.947070 -0.541853
C119  C     C_R   0.500002 0.585465 0.999985 0.927407
C120  C     C_R   0.000004 0.085472 0.999970 0.925189
C121  C     C_R   0.532884 0.656740 0.000961 0.276445
C122  C     C_R   0.467147 0.656759 0.998907 0.276413
C123  C     C_R   0.032355 0.156795 0.002411 0.276630
C124  C     C_R   0.967947 0.156761 0.996526 0.276512
C125  C     C_R   0.500012 0.633782 0.999946 -0.268727
C126  C     C_R   0.000059 0.133801 0.999774 -0.268842
C127  C     C_R   0.466821 0.703296 0.999781 -0.038595
C128  C     C_R   0.533214 0.703276 0.000072 -0.038603
C129  C     C_R   0.967792 0.203297 0.996794 -0.039065
C130  C     C_R   0.032774 0.203326 0.001206 -0.039120
C131  C     C_R   0.500016 0.726584 0.999929 -0.005528
C132  C     C_R   0.000290 0.226617 0.998937 -0.005189
C133  C     C_R   0.432603 0.726932 0.004478 -0.151601
C134  C     C_R   0.567434 0.726896 0.995366 -0.151568
C135  C     C_R   0.934410 0.226906 0.998766 -0.149567
C136  C     C_R   0.066466 0.226947 0.998206 -0.152104
C137  C     C_R   0.933875 0.273021 0.998909 0.332728
C138  C     C_R   0.067088 0.273067 0.997613 0.335647
C139  C     C_R   0.432017 0.773063 0.004931 0.335227
C140  C     C_R   0.568013 0.773025 0.994931 0.335229
C141  C     C_R   0.968989 0.296691 0.993004 0.011195
C142  C     C_R   0.031602 0.296671 0.004692 0.017263
C143  C     C_R   0.467983 0.796658 0.996113 0.015518
C144  C     C_R   0.532038 0.796634 0.003778 0.015512
C145  C     C_R   0.000292 0.273338 0.998869 -0.002361
C146  C     C_R   0.500013 0.773298 0.999938 -0.004567
C147  C     C_R   0.974359 0.342874 0.980544 -0.038907
C148  C     C_R   0.025834 0.342742 0.018341 -0.047089
C149  C     C_R   0.473571 0.842755 0.982577 -0.043022
C150  C     C_R   0.526436 0.842720 0.017362 -0.043270
C151  C     C_R   0.999990 0.366046 0.999731 -0.169605
C152  C     C_R   0.499999 0.866008 0.999984 -0.176647
H25   H     H_    0.404801 0.709681 0.011378 0.231291
H26   H     H_    0.595240 0.709632 0.988453 0.231287
H27   H     H_    0.907155 0.209663 0.003700 0.230886
H28   H     H_    0.093861 0.209689 0.992779 0.231293
C153  C     C_R   0.488879 0.342780 0.956734 -0.210166
C154  C     C_R   0.511078 0.342745 0.043375 -0.210196
C155  C     C_R   0.988781 0.842781 0.956875 -0.210048
C156  C     C_R   0.011398 0.842762 0.042933 -0.210292
C157  C     C_R   0.499983 0.365951 0.000048 -0.063088
C158  C     C_R   0.000048 0.865957 0.999960 -0.062967
C159  C     C_R   0.511311 0.296587 0.043327 0.067418
C160  C     C_R   0.488644 0.296625 0.956783 0.067409
C161  C     C_R   0.011696 0.796606 0.042803 0.067558
C162  C     C_R   0.988608 0.796624 0.956850 0.067317
C163  C     C_R   0.499979 0.273147 0.000052 0.085466
C164  C     C_R   0.000161 0.773156 0.999823 0.085503
C165  C     C_R   0.521314 0.273893 0.088113 -0.162887
C166  C     C_R   0.478642 0.273972 0.911993 -0.162883
C167  C     C_R   0.021985 0.773926 0.087204 -0.162928
C168  C     C_R   0.978464 0.773961 0.912260 -0.162799
C169  C     C_R   0.021720 0.727728 0.089260 -0.029617
C170  C     C_R   0.978811 0.727763 0.910139 -0.028833
C171  C     C_R   0.521011 0.227692 0.090187 -0.029181
C172  C     C_R   0.478954 0.227775 0.909898 -0.029281
C173  C     C_R   0.013945 0.703360 0.040796 0.023822
C174  C     C_R   0.986420 0.703393 0.958828 0.023630
C175  C     C_R   0.513547 0.203348 0.041319 0.023871
C176  C     C_R   0.486425 0.203388 0.958751 0.023868
C177  C     C_R   0.000174 0.726534 0.999821 0.041034
C178  C     C_R   0.499983 0.226526 0.000042 0.041078
C179  C     C_R   0.019567 0.656916 0.031050 -0.090645
C180  C     C_R   0.980647 0.656974 0.968760 -0.091559
C181  C     C_R   0.519278 0.156920 0.031473 -0.091438
C182  C     C_R   0.480708 0.156955 0.968568 -0.091403
C183  C     C_R   0.000041 0.633962 0.000002 -0.123930
C184  C     C_R   0.499999 0.133957 0.000010 -0.124426
H29   H     H_    0.480176 0.360658 0.923192 0.171486
H30   H     H_    0.519783 0.360597 0.076913 0.171468
H31   H     H_    0.979902 0.860656 0.923580 0.171433
H32   H     H_    0.020256 0.860624 0.076246 0.171364
H33   H     H_    0.527512 0.292508 0.124356 0.195779
H34   H     H_    0.472441 0.292620 0.875756 0.195768
H35   H     H_    0.028383 0.792553 0.123179 0.195814
H36   H     H_    0.972126 0.792599 0.876192 0.195847
N1    N     N_R   0.034881 0.420388 0.754809 0.151525
O49   O     O_R   0.045695 0.390967 0.702755 -0.274787
O50   O     O_R   0.043349 0.412987 0.804984 -0.349179
N2    N     N_R   0.963671 0.422152 0.244043 0.124248
O51   O     O_R   0.978101 0.384287 0.250057 -0.280514
O52   O     O_R   0.929103 0.423467 0.241968 -0.302089
N3    N     N_R   0.535378 0.921728 0.757119 0.124038
O53   O     O_R   0.520284 0.884011 0.752222 -0.281639
O54   O     O_R   0.569993 0.922646 0.759083 -0.301455
N4    N     N_R   0.464849 0.921660 0.242782 0.123969
O55   O     O_R   0.480032 0.883993 0.247691 -0.281504
O56   O     O_R   0.430246 0.922470 0.240776 -0.301658
N5    N     N_R   0.131211 0.458047 0.265322 0.071853
O57   O     O_R   0.140557 0.473925 0.201347 -0.369587
O58   O     O_R   0.101186 0.427464 0.299851 -0.357466
N6    N     N_R   0.868800 0.457819 0.734549 0.071970
O59   O     O_R   0.859541 0.473629 0.798486 -0.369776
O60   O     O_R   0.898746 0.427172 0.699984 -0.357939
N7    N     N_R   0.631210 0.957864 0.265465 0.072171
O61   O     O_R   0.640505 0.973679 0.201487 -0.369761
O62   O     O_R   0.601250 0.927227 0.300043 -0.357382
N8    N     N_R   0.368788 0.957853 0.734586 0.072150
O63   O     O_R   0.359482 0.973654 0.798558 -0.369669
O64   O     O_R   0.398766 0.927236 0.700024 -0.357438
C185  C     C_2   0.204199 0.400915 0.179336 0.513573
H37   H     H_    0.174223 0.386335 0.227192 0.119247
O65   O     O_2   0.220284 0.385273 0.116214 -0.464200
C186  C     C_2   0.795768 0.400746 0.820571 0.513050
H38   H     H_    0.825707 0.386145 0.772689 0.119003
O66   O     O_2   0.779705 0.385082 0.883693 -0.464395
C187  C     C_2   0.704225 0.900763 0.179564 0.513457
H39   H     H_    0.674277 0.886173 0.227463 0.118935
O67   O     O_2   0.720294 0.885090 0.116468 -0.464030
C188  C     C_2   0.295772 0.900743 0.820543 0.513446
H40   H     H_    0.325727 0.886164 0.772661 0.118909
O68   O     O_2   0.279697 0.885053 0.883652 -0.463992
N9    N     N_R   0.566496 0.632612 0.000920 0.127357
O69   O     O_R   0.593004 0.606261 0.944902 -0.338246
O70   O     O_R   0.569462 0.635644 0.058361 -0.285674
N10   N     N_R   0.433533 0.632650 0.998955 0.127355
O71   O     O_R   0.430571 0.635712 0.941510 -0.285647
O72   O     O_R   0.407018 0.606288 0.054987 -0.338216
N11   N     N_R   0.065350 0.132710 0.004252 0.127880
O73   O     O_R   0.092438 0.106366 0.948695 -0.336872
O74   O     O_R   0.067188 0.135796 0.062883 -0.285332
N12   N     N_R   0.934859 0.132639 0.995035 0.127711
O75   O     O_R   0.933279 0.135145 0.936080 -0.285863
O76   O     O_R   0.907591 0.106634 0.051081 -0.336458
N13   N     N_R   0.894949 0.294899 0.013975 0.150867
O77   O     O_R   0.876701 0.326403 0.064199 -0.311363
O78   O     O_R   0.873876 0.279012 0.986746 -0.254705
N14   N     N_R   0.106375 0.295016 0.980852 0.155498
O79   O     O_R   0.123393 0.327323 0.932033 -0.306542
O80   O     O_R   0.128743 0.278764 0.005402 -0.254182
N15   N     N_R   0.392389 0.795033 0.023307 0.155505
O81   O     O_R   0.375968 0.827397 0.071995 -0.306527
O82   O     O_R   0.369210 0.778760 0.000386 -0.253866
N16   N     N_R   0.607640 0.794988 0.976552 0.155506
O83   O     O_R   0.624042 0.827394 0.927901 -0.306503
O84   O     O_R   0.630835 0.778677 0.999435 -0.253883
C189  C     C_2   0.958292 0.366117 0.939160 0.549105
H41   H     H_    0.950001 0.400915 0.947989 0.066029
O85   O     O_2   0.956326 0.346812 0.891180 -0.462766
C190  C     C_2   0.041595 0.365674 0.060494 0.534294
H42   H     H_    0.046890 0.401049 0.056248 0.056889
O86   O     O_2   0.046619 0.345336 0.104225 -0.451137
C191  C     C_2   0.457048 0.865711 0.941580 0.537162
H43   H     H_    0.451953 0.901110 0.945620 0.059503
O87   O     O_2   0.451167 0.845348 0.898926 -0.451857
C192  C     C_2   0.542953 0.865620 0.058383 0.537514
H44   H     H_    0.548025 0.901022 0.054399 0.059629
O88   O     O_2   0.548854 0.845206 0.100996 -0.451622
C193  C     C_2   0.023776 0.706771 0.149856 0.505016
H45   H     H_    0.008234 0.675116 0.173321 0.108117
O89   O     O_2   0.042146 0.725131 0.175421 -0.473828
C194  C     C_2   0.977054 0.706789 0.849262 0.504148
H46   H     H_    0.992624 0.675113 0.825977 0.106958
O90   O     O_2   0.958917 0.725153 0.823256 -0.474182
C195  C     C_2   0.522667 0.206693 0.151180 0.504575
H47   H     H_    0.507133 0.174996 0.174379 0.107537
O91   O     O_2   0.540682 0.225064 0.177382 -0.474271
C196  C     C_2   0.477305 0.206827 0.848894 0.504609
H48   H     H_    0.492854 0.175145 0.825672 0.107682
O92   O     O_2   0.459279 0.225223 0.822708 -0.474094
C197  C     C_2   0.047621 0.631978 0.048456 0.412173
H49   H     H_    0.037254 0.599829 0.075688 0.089891
O93   O     O_2   0.083357 0.646640 0.029993 -0.463467
C198  C     C_2   0.952589 0.632134 0.951284 0.412904
H50   H     H_    0.962853 0.599929 0.924284 0.089620
O94   O     O_2   0.916968 0.646950 0.969404 -0.462917
C199  C     C_2   0.547193 0.132015 0.049226 0.412523
H51   H     H_    0.536871 0.099792 0.076186 0.089914
O95   O     O_2   0.582776 0.146795 0.031364 -0.462940
C200  C     C_2   0.452794 0.132080 0.950811 0.412598
H52   H     H_    0.463118 0.099872 0.923841 0.089837
O96   O     O_2   0.417208 0.146866 0.968683 -0.462986
N17   N     N_R   0.051204 0.568360 0.744255 0.127519
O97   O     O_R   0.041710 0.609524 0.742751 -0.346227
O98   O     O_R   0.087055 0.558628 0.739600 -0.296639
N18   N     N_R   0.950011 0.569669 0.254488 0.125403
O99   O     O_R   0.959465 0.610598 0.257658 -0.346304
O100  O     O_R   0.914438 0.560580 0.257862 -0.292825
N19   N     N_R   0.550763 0.069096 0.744653 0.126154
O101  O     O_R   0.541521 0.110149 0.741711 -0.346161
O102  O     O_R   0.586364 0.059624 0.740976 -0.292251
N20   N     N_R   0.449032 0.068984 0.255435 0.126316
O103  O     O_R   0.458182 0.110068 0.258340 -0.346196
O104  O     O_R   0.413440 0.059402 0.259161 -0.291989
C201  C     C_2   0.961677 0.580996 0.745157 0.499970
H53   H     H_    0.927182 0.588133 0.788428 0.110432
O105  O     O_2   0.983801 0.607556 0.694125 -0.457376
C202  C     C_2   0.039633 0.580526 0.254023 0.500710
H54   H     H_    0.074262 0.587072 0.210734 0.110579
O106  O     O_2   0.017959 0.607388 0.304695 -0.456957
C203  C     C_2   0.461302 0.080958 0.744962 0.501020
H55   H     H_    0.426730 0.087868 0.788092 0.110084
O107  O     O_2   0.483310 0.107611 0.694036 -0.457002
C204  C     C_2   0.538442 0.081126 0.255166 0.500611
H56   H     H_    0.572984 0.088162 0.212017 0.110079
O108  O     O_2   0.516356 0.107698 0.306160 -0.457100
C205  C     C_2   0.910734 0.507644 0.880527 0.482390
H57   H     H_    0.888054 0.480284 0.896203 0.136785
O109  O     O_2   0.898300 0.540840 0.919825 -0.504283
C206  C     C_2   0.089413 0.506585 0.119573 0.485604
H58   H     H_    0.111653 0.478861 0.104312 0.137058
O110  O     O_2   0.102380 0.539618 0.079804 -0.503269
C207  C     C_2   0.410659 0.007616 0.880341 0.483786
H59   H     H_    0.388064 0.980193 0.895873 0.137482
O111  O     O_2   0.398106 0.040768 0.919756 -0.503364
C208  C     C_2   0.589315 0.007921 0.119681 0.483419
H60   H     H_    0.611993 0.980571 0.104131 0.137576
O112  O     O_2   0.601770 0.041100 0.080294 -0.503518
C209  C     C_2   0.368785 0.440850 0.043085 0.413447
H61   H     H_    0.396675 0.421882 0.033054 0.049407
O113  O     O_2   0.360482 0.440116 0.995544 -0.474384
C210  C     C_2   0.631198 0.440764 0.956893 0.413319
H62   H     H_    0.603293 0.421832 0.966928 0.049381
O114  O     O_2   0.639512 0.439954 0.004419 -0.474490
C211  C     C_2   0.868798 0.940777 0.043194 0.413567
H63   H     H_    0.896697 0.921840 0.033193 0.049282
O115  O     O_2   0.860488 0.939972 0.995664 -0.474279
C212  C     C_2   0.131198 0.940760 0.956873 0.413527
H64   H     H_    0.103294 0.921829 0.966900 0.049207
O116  O     O_2   0.139510 0.939944 0.004401 -0.474251
N21   N     N_R   0.295479 0.583570 0.323963 0.127502
O117  O     O_R   0.281474 0.589367 0.394479 -0.291066
O118  O     O_R   0.323772 0.611529 0.273038 -0.293733
N22   N     N_R   0.704527 0.583753 0.676181 0.127510
O119  O     O_R   0.718538 0.589638 0.605672 -0.290889
O120  O     O_R   0.676228 0.611672 0.727150 -0.293721
N23   N     N_R   0.795473 0.083733 0.323757 0.127612
O121  O     O_R   0.781466 0.089592 0.394261 -0.290508
O122  O     O_R   0.823764 0.111669 0.272773 -0.294723
N24   N     N_R   0.204531 0.083751 0.676158 0.127664
O123  O     O_R   0.218538 0.089624 0.605648 -0.290295
O124  O     O_R   0.176241 0.111682 0.727115 -0.294705

loop_
_geom_bond_atom_site_label_1
_geom_bond_atom_site_label_2
_geom_bond_distance
_ccdc_geom_bond_type
C71   C75   1.396861 A    
C167  C169  1.398401 A    
C54   C66   1.415479 A    
C31   C35   1.551099 S    
N21   O117  1.301270 A    
C14   C18   1.529537 S    
C76   C80   1.412201 A    
C172  C176  1.430917 A    
C75   C95   1.391495 A    
C29   C205  1.498011 S    
C129  C135  1.401784 A    
C58   C78   1.413437 A    
C70   H14   1.084481 S    
C169  C173  1.431044 A    
N2    O51   1.299968 A    
C59   C63   1.416182 A    
C60   C80   1.413434 A    
C67   C71   1.395682 A    
C138  N14   1.439106 S    
C162  C164  1.408201 A    
C137  C141  1.419823 A    
C72   C76   1.396863 A    
C10   H2    1.110227 S    
C30   C206  1.497926 S    
C135  H27   1.081921 S    
C191  H43   1.082338 S    
O17   C105  1.295892 A    
O23   Cu7   1.978194 S    
C88   C188  1.485121 S    
O21   Cu5   1.978194 S    
C182  C200  1.489293 S    
C42   C46   1.412756 A    
C123  C126  1.407344 A    
N3    O54   1.300224 A    
C23   N19   1.458334 S    
N12   O75   1.301048 A    
O4    C4    1.299306 A    
O30   C111  1.295435 A    
C121  N9    1.437018 S    
C209  O113  1.221009 D    
C155  C162  1.396629 A    
C150  C152  1.413799 A    
C140  C144  1.419615 A    
C198  O94   1.221214 D    
C198  H50   1.085355 S    
C193  O89   1.221602 D    
O36   C114  1.298511 A    
N24   O123  1.301268 A    
C9    C37   1.546557 S    
C143  C149  1.415504 A    
C154  C157  1.399157 A    
N11   O73   1.301068 A    
C148  C190  1.495820 S    
C202  O106  1.219931 D    
C58   C62   1.416177 A    
N15   O82   1.301551 A    
Cu5   O29   1.974533 S    
O16   Cu4   1.975196 S    
C188  H40   1.082639 S    
C70   C74   1.396860 A    
O13   C5    1.293476 A    
O7    Cu4   1.971985 S    
C9    C21   1.544899 S    
N20   O104  1.300227 A    
O20   Cu8   1.974259 S    
C50   C54   1.398880 A    
C41   C209  1.489003 S    
C101  N5    1.437999 S    
O18   Cu6   1.974259 S    
O9    C5    1.289387 A    
N14   O79   1.301651 A    
C50   H10   1.081790 S    
N6    O59   1.300827 A    
C161  C167  1.390647 A    
C201  H53   1.084020 S    
O8    Cu4   1.972003 S    
C15   N3    1.455756 S    
C16   C20   1.529453 S    
C134  H26   1.081917 S    
C169  C193  1.486391 S    
N19   O101  1.298927 A    
C62   C90   1.404835 A    
Cu8   O32   1.974547 S    
O33   Cu9   1.974407 S    
O3    Cu2   1.972561 S    
C56   C60   1.419151 A    
C33   C37   1.545854 S    
C4    C100  1.458961 S    
C35   C39   1.546221 S    
C36   C40   1.546226 S    
C210  H62   1.085707 S    
C130  C136  1.401813 A    
C197  H49   1.085380 S    
C24   N20   1.458343 S    
O28   Cu7   1.973442 S    
C142  C148  1.415378 A    
C113  C157  1.463402 S    
C139  N15   1.439111 S    
C192  H44   1.082347 S    
C99   C103  1.410635 A    
O3    C3    1.299319 A    
N15   O81   1.301649 A    
C97   C101  1.410596 A    
C48   C118  1.466883 S    
C122  N10   1.437016 S    
C171  C175  1.430937 A    
C195  H47   1.081364 S    
C14   C34   1.542177 S    
C98   C102  1.410633 A    
C136  H28   1.081910 S    
C75   C79   1.412200 A    
O39   Cu11  1.969779 S    
C19   C23   1.532722 S    
O27   C109  1.291432 A    
C20   C24   1.532755 S    
O44   Cu11  1.975960 S    
N18   O99   1.298869 A    
C133  C139  1.395935 A    
C51   C55   1.398894 A    
C25   C29   1.543931 S    
C124  C129  1.408093 A    
C9    C13   1.539901 S    
C179  C197  1.489220 S    
C211  H63   1.085704 S    
C205  H57   1.084265 S    
N23   O122  1.301401 A    
C93   C97   1.392276 A    
C106  C152  1.466577 S    
C12   C16   1.539466 S    
C89   H21   1.080476 S    
C139  C143  1.419628 A    
C6    C38   1.461178 S    
C196  H48   1.081351 S    
O22   Cu6   1.978192 S    
C182  C184  1.411251 A    
C123  N11   1.437012 S    
C200  H52   1.085362 S    
C35   H7    1.110193 S    
O5    Cu3   1.971985 S    
C149  C191  1.495911 S    
C168  C170  1.398433 A    
Cu12  O48   1.974683 S    
C15   C19   1.529476 S    
C82   C86   1.421028 A    
C27   C31   1.544167 S    
C170  C194  1.486568 S    
C26   C202  1.500727 S    
N13   O78   1.301509 A    
C71   H15   1.084482 S    
C170  C174  1.430773 A    
C41   C61   1.416898 A    
C69   H13   1.084481 S    
C104  N8    1.437995 S    
C186  O66   1.221457 D    
Cu9   O45   1.974483 S    
C189  O85   1.221326 D    
C162  C168  1.390827 A    
N8    O64   1.300790 A    
C140  N16   1.439115 S    
C156  C161  1.396624 A    
C10   C14   1.539419 S    
O13   Cu3   1.975392 S    
C11   C39   1.548123 S    
O36   Cu12  1.974206 S    
C206  H58   1.084274 S    
C12   C40   1.548120 S    
O23   C109  1.290441 A    
O24   Cu8   1.978192 S    
O21   C107  1.290744 A    
O34   Cu10  1.974206 S    
C123  C130  1.408100 A    
C1    C97   1.458910 S    
C88   C92   1.397424 A    
N11   O74   1.301048 A    
N10   O72   1.301037 A    
C3    C99   1.458968 S    
O5    C1    1.294197 A    
N5    O57   1.300811 A    
C95   C99   1.392279 A    
N23   O121  1.301269 A    
C128  C131  1.413276 A    
C24   C28   1.537681 S    
O8    C4    1.294197 A    
C155  C158  1.399177 A    
C194  O90   1.221582 D    
C132  C145  1.413704 A    
C59   C79   1.413431 A    
C86   C90   1.397419 A    
O15   Cu4   1.975392 S    
C17   C29   1.543768 S    
C208  H60   1.084270 S    
C181  C199  1.489260 S    
C165  H33   1.085066 S    
C85   C89   1.397429 A    
C83   C103  1.420414 A    
C61   C89   1.404859 A    
N16   O84   1.301552 A    
C187  O67   1.221458 D    
C81   C101  1.420393 A    
C212  H64   1.085706 S    
C63   C91   1.404841 A    
C133  H25   1.081917 S    
C84   C88   1.421014 A    
N22   O119  1.301269 A    
N4    O56   1.300224 A    
C19   C31   1.543206 S    
C77   C81   1.422276 A    
C161  C164  1.408153 A    
C176  C182  1.418374 A    
C66   N22   1.437021 S    
O14   C6    1.293755 A    
C79   C83   1.422293 A    
C144  C150  1.415480 A    
O40   C118  1.299809 A    
C48   C52   1.395222 A    
O20   C106  1.296293 A    
O1    Cu1   1.972561 S    
C76   C96   1.391499 A    
C159  C163  1.408209 A    
N1    O50   1.299853 A    
C147  C189  1.494378 S    
C87   C91   1.397410 A    
O19   Cu7   1.974274 S    
O42   C116  1.297123 A    
O10   C6    1.289306 A    
N2    O52   1.300203 A    
C64   C92   1.404843 A    
C47   C51   1.395222 A    
O33   C113  1.298699 A    
C68   C72   1.395685 A    
N6    O60   1.300791 A    
C156  C158  1.399012 A    
C204  O108  1.219959 D    
C207  O111  1.220094 D    
Cu11  Cu12  2.692226 S    
C149  C152  1.413816 A    
C28   C204  1.500761 S    
N17   O98   1.300211 A    
O43   C117  1.297110 A    
C175  C181  1.418399 A    
C190  H42   1.082487 S    
C156  H32   1.084611 S    
Cu7   O31   1.974533 S    
C119  C125  1.461977 S    
N12   O76   1.301077 A    
C21   N17   1.458399 S    
C2    C98   1.458967 S    
C53   C57   1.419136 A    
C34   C38   1.546209 S    
C55   C59   1.419152 A    
C209  H61   1.085706 S    
C155  H31   1.084606 S    
O41   Cu10  1.975960 S    
C131  C146  1.413480 A    
N21   O118  1.301402 A    
O17   Cu5   1.974274 S    
C52   C56   1.398894 A    
C174  C177  1.424968 A    
C144  C146  1.417471 A    
C193  H45   1.081206 S    
C26   C30   1.544196 S    
O48   C120  1.296497 A    
O26   C108  1.291404 A    
C211  O115  1.221010 D    
C114  C158  1.463276 S    
C78   C82   1.422305 A    
C44   C64   1.416893 A    
C66   C70   1.395680 A    
C188  O68   1.221457 D    
C199  H51   1.085348 S    
C15   C35   1.542264 S    
N4    O55   1.299981 A    
C18   C22   1.532775 S    
C153  H29   1.084650 S    
N9    O70   1.301049 A    
C45   C49   1.395246 A    
C67   N23   1.437018 S    
O28   C110  1.291422 A    
C179  C183  1.411379 A    
O42   Cu9   1.975960 S    
O18   C105  1.296271 A    
O37   Cu9   1.969779 S    
O38   C116  1.299809 A    
C41   C45   1.412786 A    
C5    C37   1.460656 S    
Cu10  O46   1.974683 S    
C96   C100  1.392277 A    
O35   C114  1.298745 A    
C7    C39   1.461284 S    
C8    C40   1.461286 S    
C11   C23   1.544370 S    
O45   C119  1.296609 A    
C12   C24   1.544394 S    
C103  N7    1.437994 S    
C10   C22   1.544240 S    
C19   C109  1.462953 S    
O12   Cu2   1.975603 S    
C127  C133  1.402004 A    
C25   C37   1.542281 S    
Cu7   Cu8   2.689235 S    
C93   H17   1.085406 S    
O1    C1    1.299278 A    
C28   C40   1.542865 S    
Cu5   Cu6   2.689235 S    
C57   C61   1.416180 A    
C23   C27   1.537659 S    
Cu9   Cu10  2.692226 S    
C121  C128  1.408172 A    
C68   N24   1.437017 S    
O38   Cu10  1.969776 S    
C172  C196  1.486529 S    
C73   C93   1.391508 A    
C80   C84   1.422290 A    
C102  N6    1.437986 S    
C210  O114  1.221007 D    
C16   N4    1.455749 S    
N7    O61   1.300814 A    
C173  C177  1.425068 A    
C165  C171  1.398467 A    
C65   C69   1.395690 A    
N24   O124  1.301400 A    
N3    O53   1.299982 A    
C176  C178  1.425073 A    
C49   C53   1.398883 A    
C124  N12   1.437032 S    
C27   C39   1.542873 S    
C87   C187  1.485112 S    
C84   C104  1.420422 A    
C192  O88   1.221078 D    
C43   C211  1.489018 S    
C17   C107  1.462908 S    
C11   C15   1.539490 S    
C180  C198  1.489277 S    
O24   C110  1.290446 A    
N18   O100  1.300210 A    
C129  C132  1.413180 A    
C171  C195  1.486554 S    
C29   C33   1.551253 S    
C33   H5    1.110119 S    
C202  H54   1.084037 S    
O6    C2    1.294194 A    
O4    Cu2   1.972549 S    
C203  H55   1.084066 S    
C134  C140  1.395919 A    
C51   H11   1.081793 S    
C52   H12   1.081789 S    
C13   C17   1.531878 S    
N20   O103  1.298936 A    
C17   C21   1.533282 S    
C18   C30   1.543247 S    
C54   C58   1.419146 A    
C166  H34   1.085069 S    
C22   N18   1.458267 S    
C196  O92   1.221662 D    
C82   C102  1.420436 A    
O2    Cu1   1.972549 S    
C130  C132  1.413382 A    
O10   Cu1   1.975603 S    
O32   C112  1.295549 A    
O34   C113  1.298627 A    
C14   N2    1.455725 S    
C32   C36   1.551074 S    
Cu6   O30   1.974547 S    
C43   C63   1.416883 A    
C36   H8    1.110193 S    
C32   C208  1.497969 S    
C185  H37   1.082646 S    
C46   C50   1.395220 A    
C181  C184  1.411266 A    
C9    H1    1.110236 S    
C201  O105  1.219932 D    
O40   Cu12  1.969776 S    
C74   C94   1.391490 A    
O43   Cu12  1.975960 S    
C175  C178  1.425060 A    
C127  C131  1.413275 A    
C187  H39   1.082634 S    
C153  C160  1.396593 A    
C203  O107  1.219958 D    
N13   O77   1.301634 A    
O15   C7    1.293912 A    
C44   C48   1.412760 A    
C136  C138  1.395627 A    
C189  H41   1.082455 S    
O7    C3    1.294190 A    
C141  C147  1.415150 A    
C153  C157  1.399155 A    
C206  O110  1.220092 D    
C173  C179  1.418496 A    
C197  O93   1.221216 D    
C174  C180  1.418262 A    
C160  C166  1.390810 A    
O26   Cu5   1.973442 S    
C138  C142  1.419632 A    
O25   Cu6   1.973441 S    
C105  C151  1.465883 S    
C56   C68   1.415490 A    
O19   C106  1.296295 A    
C20   C32   1.543201 S    
C25   C201  1.500652 S    
C72   H16   1.084482 S    
C44   C212  1.489018 S    
C122  C127  1.408196 A    
C34   H6    1.110184 S    
O16   C8    1.293876 A    
C199  O95   1.221291 D    
C85   C185  1.485136 S    
C207  H59   1.084272 S    
C31   C207  1.497969 S    
C166  C172  1.398422 A    
C208  O112  1.220086 D    
C160  C163  1.408181 A    
C81   C85   1.421000 A    
O11   C7    1.289194 A    
O12   C8    1.289235 A    
C212  O116  1.221009 D    
O9    Cu1   1.975399 S    
C42   C62   1.416894 A    
C49   H9    1.081784 S    
C57   C77   1.413423 A    
C100  C104  1.410628 A    
C205  O109  1.220071 D    
N22   O120  1.301402 A    
C42   C210  1.489016 S    
C73   C77   1.412203 A    
C13   N1    1.457076 S    
C60   C64   1.416180 A    
C90   H22   1.080481 S    
C154  H30   1.084646 S    
O11   Cu2   1.975399 S    
O35   Cu11  1.974407 S    
C185  O65   1.221457 D    
N1    O49   1.300164 A    
O29   C111  1.295693 A    
C148  C151  1.413223 A    
C27   C203  1.500780 S    
C94   C98   1.392265 A    
N19   O102  1.300227 A    
C191  O87   1.221081 D    
C53   C65   1.415494 A    
O6    Cu3   1.972003 S    
C180  C183  1.411152 A    
C121  C125  1.407325 A    
C55   C67   1.415488 A    
C21   C25   1.537109 S    
C18   C108  1.463042 S    
C195  O91   1.221663 D    
C20   C110  1.462948 S    
Cu11  O47   1.974483 S    
N7    O62   1.300790 A    
C163  C178  1.410672 A    
C65   N21   1.437018 S    
N17   O97   1.298999 A    
C45   C115  1.466957 S    
C46   C116  1.466892 S    
O27   Cu8   1.973441 S    
C159  C165  1.390826 A    
C124  C126  1.407520 A    
C190  O86   1.221041 D    
C26   C38   1.542692 S    
O47   C120  1.296961 A    
O25   C107  1.290944 A    
C94   H18   1.085410 S    
C95   H19   1.085407 S    
O2    C2    1.299314 A    
C111  C183  1.465609 S    
C137  N13   1.438602 S    
C186  H38   1.082632 S    
C112  C184  1.465506 S    
C30   C34   1.551105 S    
O31   C112  1.295529 A    
N8    O63   1.300816 A    
C13   C33   1.541618 S    
C167  H35   1.085031 S    
O41   C115  1.297140 A    
C168  H36   1.085010 S    
O14   Cu3   1.975196 S    
O39   C117  1.299810 A    
C16   C36   1.542232 S    
O37   C115  1.299825 A    
C147  C151  1.413422 A    
C92   H24   1.080478 S    
Cu1   Cu3   2.691164 S    
C142  C145  1.417782 A    
C22   C26   1.537768 S    
Cu2   Cu4   2.691164 S    
C154  C159  1.396671 A    
N10   O71   1.301048 A    
C10   C38   1.548067 S    
C91   H23   1.080478 S    
N5    O58   1.300784 A    
C43   C47   1.412762 A    
C47   C117  1.466875 S    
C122  C125  1.407332 A    
C150  C192  1.495913 S    
C128  C134  1.401998 A    
O46   C119  1.296643 A    
C194  H46   1.081617 S    
C200  O96   1.221289 D    
C11   H3    1.110256 S    
C74   C78   1.412207 A    
C86   C186  1.485102 S    
C135  C137  1.395472 A    
C12   H4    1.110255 S    
N9    O69   1.301035 A    
O44   C118  1.297116 A    
C164  C177  1.410693 A    
N14   O80   1.301551 A    
C143  C146  1.417482 A    
O22   C108  1.290508 A    
C141  C145  1.417971 A    
N16   O83   1.301647 A    
C120  C126  1.462355 S    
C204  H56   1.084071 S    
C96   H20   1.085408 S    
C83   C87   1.421012 A    
C69   C73   1.396856 A    
C28   C32   1.544195 S    
