data_mof_unit_35513.cif
_audit_creation_date              2012-12-11T14:19:28-0500
_audit_creation_method            fapswitch 2.2
_symmetry_space_group_name_H-M    P1
_symmetry_Int_Tables_number       1
_space_group_crystal_system       triclinic
_cell_length_a                    19.432941
_cell_length_b                    7.239471
_cell_length_c                    17.689129
_cell_angle_alpha                 89.999505
_cell_angle_beta                  107.659743
_cell_angle_gamma                 90.000203
_cell_volume                      2371.30646402

loop_
_atom_site_label
_atom_site_type_symbol
_atom_type_description
_atom_site_fract_x
_atom_site_fract_y
_atom_site_fract_z
_atom_type_partial_charge
O1    O     O_R   0.414820 0.494320 0.416790 -0.541547
O2    O     O_R   0.585180 0.994320 0.583210 -0.541543
O3    O     O_R   0.560270 0.819500 0.430140 -0.538518
O4    O     O_R   0.439730 0.319500 0.569860 -0.538517
C1    C     C_R   0.581163 0.655470 0.414703 0.708068
C2    C     C_R   0.418837 0.155469 0.585297 0.708071
O5    O     O_R   0.413840 0.823740 0.407440 -0.538487
O6    O     O_R   0.586160 0.323740 0.592560 -0.538487
O7    O     O_R   0.437710 0.998590 0.560350 -0.540663
O8    O     O_R   0.562290 0.498590 0.439650 -0.540664
C3    C     C_R   0.387909 0.654683 0.384889 0.766593
C4    C     C_R   0.612091 0.154682 0.615110 0.766598
O9    O     O_3   0.508000 0.662290 0.550200 -0.378547
O10   O     O_3   0.492000 0.162290 0.449800 -0.378552
V1    V     V_3+5 0.498520 0.935380 0.490690 1.438584
V2    V     V_3+5 0.501480 0.435380 0.509310 1.438585
C5    C     C_2   0.779692 0.274473 0.794686 0.480360
C6    C     C_2   0.220304 0.774486 0.205317 0.480394
C7    C     C_2   0.819793 0.118105 0.817164 -0.376772
C8    C     C_2   0.180208 0.618108 0.182837 -0.376761
H1    H     H_    0.803489 0.990502 0.784727 0.107901
H2    H     H_    0.196516 0.490498 0.215270 0.107883
C9    C     C_2   0.714605 0.284344 0.722830 -0.217708
C10   C     C_2   0.285388 0.784350 0.277177 -0.217744
C11   C     C_2   0.677541 0.137667 0.684580 -0.360625
C12   C     C_2   0.322461 0.637671 0.315416 -0.360591
H3    H     H_    0.695566 0.422011 0.702364 0.163890
H4    H     H_    0.304416 0.922018 0.297659 0.163853
H5    H     H_    0.694141 0.998841 0.704994 0.142992
H6    H     H_    0.305871 0.498846 0.294991 0.142973
C13   C     C_R   0.322004 0.293529 0.633494 -0.153642
C14   C     C_R   0.677996 0.793531 0.366506 -0.153656
C15   C     C_R   0.369903 0.147860 0.635286 -0.108385
C16   C     C_R   0.630097 0.647863 0.364714 -0.108375
C17   C     C_R   0.371248 0.996171 0.685056 -0.126105
C18   C     C_R   0.628752 0.496173 0.314945 -0.126111
C19   C     C_R   0.325897 0.988484 0.734093 0.058008
C20   C     C_R   0.674104 0.488484 0.265910 0.058008
C21   C     C_R   0.276254 0.134273 0.729922 -0.031055
C22   C     C_R   0.723747 0.634272 0.270080 -0.031048
C23   C     C_R   0.274545 0.287830 0.679553 0.039792
C24   C     C_R   0.725457 0.787828 0.320449 0.039786
C25   C     C_R   0.329823 0.840594 0.787815 0.174891
C26   C     C_R   0.670179 0.340594 0.212189 0.174888
C27   C     C_R   0.282284 0.835067 0.834699 0.126879
C28   C     C_R   0.717719 0.335064 0.165307 0.126881
C29   C     C_R   0.230487 0.977021 0.827753 0.032230
C30   C     C_R   0.769516 0.477018 0.172252 0.032246
C31   C     C_R   0.228719 0.128200 0.776519 0.035104
C32   C     C_R   0.771284 0.628197 0.223484 0.035106
C33   C     C_R   0.179805 0.275419 0.772582 0.073792
C34   C     C_R   0.820199 0.775415 0.227421 0.073783
C35   C     C_R   0.179279 0.427104 0.723351 -0.254603
C36   C     C_R   0.820725 0.927098 0.276653 -0.254590
C37   C     C_R   0.225500 0.433573 0.676117 0.467253
C38   C     C_R   0.774503 0.933568 0.323884 0.467258
C39   C     C_R   0.180823 0.973577 0.871768 -0.174786
C40   C     C_R   0.819181 0.473571 0.128239 -0.174804
C41   C     C_R   0.131995 0.119139 0.867669 -0.086745
C42   C     C_R   0.868007 0.619136 0.132334 -0.086737
C43   C     C_R   0.132554 0.270797 0.818735 -0.157429
C44   C     C_R   0.867449 0.770794 0.181268 -0.157421
H7    H     H_    0.321002 0.410288 0.594832 0.164188
H8    H     H_    0.678998 0.910290 0.405166 0.164185
H9    H     H_    0.408972 0.886488 0.685516 0.155773
H10   H     H_    0.591027 0.386491 0.314485 0.155770
H11   H     H_    0.179859 0.859391 0.910635 0.151200
H12   H     H_    0.820147 0.359381 0.089376 0.151169
H13   H     H_    0.095302 0.384159 0.815560 0.125003
H14   H     H_    0.904701 0.884155 0.184442 0.125004
H15   H     H_    0.143425 0.542566 0.722094 0.138197
H16   H     H_    0.856583 0.042555 0.277914 0.138208
O11   O     O_R   0.937810 0.773680 0.060480 -0.537035
O12   O     O_R   0.062190 0.273680 0.939520 -0.537037
O13   O     O_R   0.086190 0.439740 0.092580 -0.540939
O14   O     O_R   0.913810 0.939740 0.907420 -0.540930
C45   C     C_R   0.112900 0.608913 0.114464 0.756974
C46   C     C_R   0.887100 0.108913 0.885536 0.756934
O15   O     O_R   0.939760 0.444210 0.069890 -0.545623
O16   O     O_R   0.060240 0.944210 0.930110 -0.545614
O17   O     O_R   0.914790 0.269640 0.916760 -0.503359
O18   O     O_R   0.085210 0.769640 0.083240 -0.503338
C47   C     C_R   0.918755 0.612328 0.084450 0.681205
C48   C     C_R   0.081246 0.112329 0.915551 0.681231
O19   O     O_3   0.992050 0.601530 0.949880 -0.373640
O20   O     O_3   0.007950 0.101530 0.050120 -0.373636
V3    V     V_3+5 0.001480 0.328340 0.009300 1.476199
V4    V     V_3+5 0.998520 0.828340 0.990700 1.476236
O21   O     O_3   0.802553 0.438566 0.834812 -0.545704
C49   C     C_3   0.757971 0.477899 0.882538 -0.173137
H17   H     H_    0.759108 0.363637 0.925083 0.140106
H18   H     H_    0.701522 0.506924 0.845772 0.141956
H19   H     H_    0.778862 0.603622 0.917949 0.155252
O22   O     O_3   0.197429 0.938584 0.165198 -0.545692
C50   C     C_3   0.242075 0.978136 0.117563 -0.173262
H20   H     H_    0.241087 0.863874 0.075065 0.140178
H21   H     H_    0.298472 0.007444 0.154406 0.141918
H22   H     H_    0.221132 0.103759 0.082101 0.155270
O23   O     O_3   0.226996 0.589778 0.631554 -0.550708
C51   C     C_3   0.166110 0.588013 0.563458 -0.292745
H23   H     H_    0.164160 0.459867 0.528004 0.129452
H24   H     H_    0.170079 0.706828 0.525398 0.171308
H25   H     H_    0.115237 0.604405 0.579251 0.136848
O24   O     O_3   0.773012 0.089769 0.368450 -0.550705
C52   C     C_3   0.833873 0.087914 0.436571 -0.292764
H26   H     H_    0.835778 0.959759 0.472009 0.129445
H27   H     H_    0.829909 0.206725 0.474634 0.171310
H28   H     H_    0.884765 0.104243 0.420812 0.136858
I1    I     I_    0.410154 0.628462 0.801661 -0.313860
I2    I     I_    0.589846 0.128465 0.198343 -0.313869
I3    I     I_    0.291979 0.616066 0.919481 -0.377596
I4    I     I_    0.708024 0.116064 0.080527 -0.377619

loop_
_geom_bond_atom_site_label_1
_geom_bond_atom_site_label_2
_ccdc_geom_bond_type
C20   C22   A    
O4    V2    S    
C28   I4    S    
C50   H20   S    
O1    C3    A    
O16   C48   A    
O2    C4    A    
C2    O7    A    
O15   V3    S    
C50   H22   S    
C29   C31   A    
O5    C3    A    
C52   H27   S    
C5    C9    S    
C8    C45   S    
C6    C10   S    
C7    H1    S    
C10   C12   D    
O13   V3    S    
C42   C47   S    
C18   H10   S    
C39   C41   A    
C17   H9    S    
C40   C42   A    
C44   H14   S    
C42   C44   A    
C27   C29   A    
C23   C37   A    
C24   C38   A    
C26   C28   A    
C31   C33   A    
C33   C43   A    
C32   C34   A    
C13   C15   A    
C9    H3    S    
O12   V3    S    
O14   V4    S    
C16   C18   A    
C30   C32   A    
O6    V2    S    
C39   H11   S    
O24   C52   S    
C34   C36   A    
C28   C30   A    
C35   C37   A    
C11   H5    S    
C52   H28   S    
C36   C38   A    
C41   C43   A    
C13   H7    S    
C5    O21   S    
C41   C48   S    
C14   H8    S    
C21   C23   A    
O12   C48   A    
O20   V3    S    
C5    C7    D    
C3    C12   S    
C51   H25   S    
C33   C35   A    
C14   C16   A    
C19   C25   A    
C7    C46   S    
O11   V4    S    
C20   C26   A    
C29   C39   A    
C25   C27   A    
C49   H18   S    
O23   C51   S    
O6    C4    A    
C1    C16   S    
C51   H24   S    
C22   C32   A    
O1    V2    S    
O2    V1    S    
O13   C45   A    
C38   O24   S    
O17   V3    S    
O4    C2    A    
C21   C31   A    
C8    H2    S    
C12   H6    S    
C6    O22   S    
C35   H15   S    
O3    V1    S    
C49   H19   S    
O19   V4    S    
C40   H12   S    
C13   C23   A    
C17   C19   A    
C10   H4    S    
O14   C46   A    
C22   C24   A    
O3    C1    A    
C50   H21   S    
C30   C40   A    
C52   H26   S    
C2    C15   S    
C4    C11   S    
C43   H13   S    
C18   C20   A    
O7    V1    S    
C1    O8    A    
O16   V4    S    
O8    V2    S    
C27   I3    S    
O15   C47   A    
C46   O17   A    
C49   H17   S    
C45   O18   A    
O18   V4    S    
O5    V1    S    
C51   H23   S    
C15   C17   A    
C6    C8    D    
C9    C11   D    
O22   C50   S    
C36   H16   S    
C19   C21   A    
O9    V2    S    
C37   O23   S    
C14   C24   A    
O10   V1    S    
C34   C44   A    
C25   I1    S    
O21   C49   S    
O11   C47   A    
C26   I2    S    
