data_mof_unit_30314.cif
_audit_creation_date              2013-03-05T15:45:48-0500
_audit_creation_method            fapswitch 2.2
_symmetry_space_group_name_H-M    P1
_symmetry_Int_Tables_number       1
_space_group_crystal_system       triclinic
_cell_length_a                    9.924824
_cell_length_b                    11.053167
_cell_length_c                    15.622501
_cell_angle_alpha                 96.561622
_cell_angle_beta                  78.694976
_cell_angle_gamma                 111.944746
_cell_volume                      1557.19775681

loop_
_atom_site_label
_atom_site_type_symbol
_atom_site_description
_atom_site_fract_x
_atom_site_fract_y
_atom_site_fract_z
_atom_type_partial_charge
O1    O     O_R   0.426810 0.668300 0.492040 -0.591571
O2    O     O_R   0.573190 0.331700 0.507960 -0.553619
O3    O     O_R   0.658240 0.703130 0.517240 -0.518059
O4    O     O_R   0.341760 0.296870 0.482760 -0.520254
C1    C     C_R   0.557992 0.745964 0.505144 0.754579
C2    C     C_R   0.442911 0.254256 0.493290 0.782202
O5    O     O_R   0.319390 0.472820 0.610170 -0.565057
O6    O     O_R   0.680610 0.527180 0.389830 -0.572737
O7    O     O_R   0.550820 0.507640 0.635370 -0.545906
O8    O     O_R   0.449180 0.492360 0.364630 -0.566140
C3    C     C_R   0.410902 0.483395 0.663056 0.795118
C4    C     C_R   0.588518 0.514060 0.336713 0.799993
Cu1   Cu    Cu3+1 0.362980 0.479380 0.485080 1.057416
Cu2   Cu    Cu3+1 0.637020 0.520620 0.514920 1.076537
C5    C     C_R   0.354674 0.449630 0.755067 -0.104253
C6    C     C_R   0.641534 0.519645 0.241732 -0.097189
C7    C     C_R   0.168729 0.314327 0.864384 -0.064351
C8    C     C_R   0.840411 0.574127 0.118822 -0.093206
C9    C     C_R   0.210500 0.364893 0.781411 -0.074454
C10   C     C_R   0.791742 0.570590 0.208534 -0.134433
C11   C     C_R   0.454532 0.485038 0.813427 -0.125982
C12   C     C_R   0.540402 0.472777 0.183643 -0.114345
C13   C     C_R   0.421084 0.421998 0.892407 0.105061
C14   C     C_R   0.586896 0.466301 0.092534 0.105659
C15   C     C_R   0.273027 0.340984 0.920745 -0.000595
C16   C     C_R   0.739498 0.525404 0.059582 0.007491
C17   C     C_R   0.530486 0.441964 0.944884 -0.083432
C18   C     C_R   0.484060 0.409948 0.033766 -0.079524
C19   C     C_R   0.338107 0.319828 0.059965 0.263101
C20   C     C_R   0.684519 0.488854 0.911154 0.268688
C21   C     C_R   0.233147 0.286470 0.003510 -0.123719
C22   C     C_R   0.788181 0.531679 0.968576 -0.114195
H1    H     H_    0.424841 0.444942 0.210358 0.195225
H2    H     H_    0.559498 0.561746 0.795421 0.189574
H3    H     H_    0.871774 0.611752 0.251870 0.212684
H4    H     H_    0.130970 0.335124 0.737338 0.216619
H5    H     H_    0.055015 0.251626 0.882854 0.175234
H6    H     H_    0.957932 0.615849 0.096826 0.179837
H7    H     H_    0.630372 0.137567 0.484210 0.240302
H8    H     H_    0.387968 0.861163 0.474827 0.240712
C23   C     C_2   0.593363 0.887301 0.506830 0.151403
C24   C     C_2   0.408766 0.113278 0.487856 0.159640
C25   C     C_2   0.492520 0.930611 0.488959 -0.184083
C26   C     C_2   0.518430 0.069008 0.485532 -0.181351
N1    N     N_2   0.842890 0.551600 0.537350 -0.288943
N2    N     N_2   0.157110 0.448400 0.462650 -0.303181
C27   C     C_2   0.933590 0.503911 0.485177 0.029800
C28   C     C_2   0.076477 0.511114 0.508996 0.022398
H9    H     H_    0.119713 0.389185 0.409961 0.240959
H10   H     H_    0.867090 0.588518 0.598264 0.257068
C29   C     C_2   0.083309 0.189886 0.029919 0.920965
O9    O     O_2   0.996208 0.219472 0.087138 -0.533080
O10   O     O_R   0.041360 0.066284 0.987592 -0.713837
H11   H     H_    0.936358 0.009135 0.010702 0.355722
C30   C     C_2   0.947670 0.582913 0.932212 0.905188
O11   O     O_2   0.003827 0.511247 0.886517 -0.573422
O12   O     O_R   0.032549 0.713502 0.949152 -0.727489
H12   H     H_    0.139396 0.736891 0.920406 0.348614
N3    N     N_R   0.304557 0.243676 0.135462 0.111367
O13   O     O_R   0.390385 0.183323 0.145293 -0.310349
O14   O     O_R   0.191190 0.237086 0.195583 -0.309296
N4    N     N_R   0.736915 0.478755 0.818991 0.124436
O15   O     O_R   0.689661 0.367540 0.775609 -0.294772
O16   O     O_R   0.829882 0.581049 0.778017 -0.359721
N5    N     N_R   0.258812 0.026372 0.487816 0.155574
O17   O     O_R   0.153982 0.045136 0.545673 -0.256317
O18   O     O_R   0.224598 0.944824 0.421611 -0.293358
N6    N     N_R   0.733033 0.975391 0.527914 0.137343
O19   O     O_R   0.853581 0.955710 0.492449 -0.244592
O20   O     O_R   0.737896 0.064497 0.590617 -0.299721
C31   C     C_2   0.122962 0.591772 0.587476 0.929583
O21   O     O_2   0.180716 0.710324 0.583640 -0.576788
O22   O     O_R   0.084737 0.533656 0.667900 -0.699127
H13   H     H_    0.120217 0.599090 0.717171 0.360981
C32   C     C_2   0.906099 0.449954 0.396679 0.910829
O23   O     O_2   0.989255 0.507196 0.333333 -0.598522
O24   O     O_R   0.795508 0.329319 0.384957 -0.744824
H14   H     H_    0.790830 0.302405 0.321027 0.347892

loop_
_geom_bond_atom_site_label_1
_geom_bond_atom_site_label_2
_geom_bond_distance
_ccdc_geom_bond_type
C15   C21   1.410925 A    
C30   O11   1.221673 D    
C16   C22   1.409889 A    
O22   H13   1.014036 S    
C8    C16   1.412795 A    
O7    Cu2   1.905835 S    
O24   H14   1.013965 S    
C5    C9    1.396285 A    
N2    H9    1.028966 S    
O1    C1    1.304948 A    
C18   C19   1.428401 A    
C14   C16   1.420316 A    
C9    H4    1.082841 S    
Cu1   N2    2.035964 S    
O4    Cu1   1.945240 S    
N4    O16   1.301388 A    
C10   H3    1.080086 S    
C3    C5    1.472879 S    
H8    C25   1.081877 S    
C4    C6    1.474112 S    
N6    O19   1.301077 A    
N5    O18   1.301298 A    
C24   N5    1.438532 S    
C6    C12   1.400140 A    
C13   C17   1.424191 A    
Cu2   N1    2.035965 S    
C22   C30   1.483234 S    
C6    C10   1.394519 A    
N3    O13   1.301404 A    
Cu1   Cu2   2.710039 S    
C17   C20   1.427504 A    
C23   C25   1.344251 D    
O2    C2    1.304296 A    
C24   C26   1.343079 D    
C23   N6    1.440484 S    
N1    C27   1.311988 D    
C11   C13   1.407536 A    
N2    C28   1.310691 D    
N3    O14   1.301331 A    
C29   O9    1.222624 D    
C19   N3    1.440108 S    
O4    C2    1.301010 A    
C31   O22   1.396622 S    
C11   H2    1.078292 S    
O10   H11   1.013893 S    
C29   O10   1.397638 S    
O5    C3    1.309194 A    
C32   O23   1.222043 D    
N4    O15   1.301424 A    
C32   O24   1.394740 S    
C27   C28   1.507200 S    
C5    C11   1.396220 A    
O6    C4    1.309887 A    
C7    H5    1.081998 S    
O7    C3    1.303890 A    
O3    Cu2   1.945238 S    
O8    C4    1.303729 A    
C30   O12   1.398005 S    
C25   C26   1.458892 S    
C12   C14   1.409927 A    
O1    Cu1   1.939060 S    
C28   C31   1.474931 S    
C12   H1    1.078060 S    
C1    C23   1.465878 S    
O6    Cu2   1.920641 S    
C14   C18   1.426217 A    
C21   C29   1.481534 S    
O3    C1    1.302313 A    
O8    Cu1   1.905832 S    
H7    C26   1.083654 S    
C7    C15   1.415523 A    
C20   N4    1.438419 S    
C8    H6    1.080845 S    
C27   C32   1.476291 S    
C31   O21   1.221604 D    
C19   C21   1.413432 A    
C20   C22   1.409988 A    
O12   H12   1.013878 S    
N1    H10   1.028301 S    
C7    C9    1.395064 A    
C8    C10   1.390005 A    
C13   C15   1.417451 A    
O2    Cu2   1.939062 S    
O5    Cu1   1.920643 S    
N6    O20   1.301715 A    
N5    O17   1.300853 A    
C2    C24   1.461704 S    
C17   C18   1.416061 A    
