data_mof_unit_45005.cif
_audit_creation_date              2012-10-26T20:07:48-0400
_audit_creation_method            fapswitch 2.2
_symmetry_space_group_name_H-M    P1
_symmetry_Int_Tables_number       1
_space_group_crystal_system       triclinic
_cell_length_a                    9.501579
_cell_length_b                    10.802089
_cell_length_c                    17.14582
_cell_angle_alpha                 89.695389
_cell_angle_beta                  95.462134
_cell_angle_gamma                 89.726261
_cell_volume                      1751.75375947

loop_
_atom_site_label
_atom_site_type_symbol
_atom_type_description
_atom_site_fract_x
_atom_site_fract_y
_atom_site_fract_z
_atom_type_partial_charge
C1    C     C_R   0.500386 0.262529 0.500404 0.575093
C2    C     C_R   0.066063 0.579814 0.452957 0.055823
C3    C     C_R   0.519871 0.496837 0.651335 0.578807
C4    C     C_R   0.480042 0.502945 0.348663 0.582404
C5    C     C_R   0.535531 0.499025 0.738100 0.007963
C6    C     C_R   0.464577 0.507642 0.261909 0.015252
C7    C     C_R   0.414591 0.523789 0.776154 -0.147378
C8    C     C_R   0.587647 0.495787 0.223618 -0.161326
C9    C     C_R   0.421791 0.530297 0.856937 -0.095536
C10   C     C_R   0.582734 0.503851 0.142942 -0.102017
C11   C     C_R   0.551057 0.511584 0.902885 0.215446
C12   C     C_R   0.499757 0.737455 0.500696 0.570455
C13   C     C_R   0.453630 0.524590 0.097245 0.219496
C14   C     C_R   0.675259 0.488082 0.866284 0.020328
C15   C     C_R   0.327806 0.537487 0.134003 0.000345
C16   C     C_R   0.667788 0.481422 0.783431 0.026340
C17   C     C_R   0.332490 0.527775 0.216662 0.012343
C18   C     C_R   0.431650 0.065579 0.435869 -0.001642
C19   C     C_R   0.567849 0.934487 0.565978 0.001821
C20   C     C_3   0.813393 0.462538 0.916655 -0.247300
C21   C     C_3   0.834734 0.323156 0.930636 -0.298681
C22   C     C_3   0.972537 0.296209 0.981176 -0.441201
C23   C     C_R   0.426965 0.935545 0.437227 -0.040338
C24   C     C_3   0.189096 0.561802 0.083929 -0.256803
C25   C     C_3   0.168852 0.700730 0.067717 -0.303662
C26   C     C_3   0.030834 0.726852 0.017202 -0.439283
C27   C     C_2   0.796921 0.451006 0.745391 0.246283
C28   C     C_2   0.199009 0.541070 0.253882 0.225790
C29   C     C_2   0.371219 0.135844 0.365449 0.290332
C30   C     C_2   0.645160 0.865652 0.632519 0.316123
C31   C     C_2   0.359049 0.864179 0.369441 0.214787
C32   C     C_2   0.624418 0.134906 0.636983 0.182567
C33   C     C_R   0.566174 0.064491 0.566365 -0.047947
C34   C     C_R   0.498236 0.871482 0.501432 -0.029345
C35   C     C_R   0.501508 0.128478 0.500328 -0.022243
C36   C     C_R   0.082899 0.420104 0.547009 0.039310
C37   C     C_R   0.917107 0.579829 0.452920 0.034901
C38   C     C_R   0.933965 0.419977 0.546851 0.052214
Cu1   Cu    Cu3+1 0.640660 0.500020 0.500000 0.998093
Cu2   Cu    Cu3+1 0.359340 0.499980 0.500000 1.022671
H1    H     H_    0.689656 0.480239 0.256176 0.155977
H2    H     H_    0.971289 0.340934 0.039288 0.158342
H3    H     H_    0.985043 0.194742 0.990184 0.164069
H4    H     H_    0.745189 0.285666 0.960615 0.190564
H5    H     H_    0.837289 0.274903 0.873689 0.176327
H6    H     H_    0.904618 0.501515 0.889237 0.180984
H7    H     H_    0.814726 0.510073 0.973997 0.152535
H8    H     H_    0.031653 0.680543 0.959579 0.161624
H9    H     H_    0.939391 0.693329 0.047074 0.153878
H10   H     H_    0.018647 0.828112 0.007103 0.164361
H11   H     H_    0.167357 0.751062 0.124021 0.171636
H12   H     H_    0.312760 0.538904 0.743312 0.161638
H13   H     H_    0.258225 0.736466 0.036879 0.192101
H14   H     H_    0.187300 0.511137 0.027621 0.161553
H15   H     H_    0.097470 0.525487 0.112412 0.146043
H16   H     H_    0.805156 0.362940 0.716262 0.084825
H17   H     H_    0.145316 0.629995 0.252958 0.101376
H18   H     H_    0.264975 0.117879 0.339458 0.178776
H19   H     H_    0.745476 0.900115 0.659133 0.138158
H20   H     H_    0.407999 0.779537 0.351131 0.094792
H21   H     H_    0.672016 0.224696 0.630795 0.103616
H22   H     H_    0.681254 0.493872 0.116552 0.139225
H23   H     H_    0.324696 0.548698 0.883264 0.144202
H24   H     H_    0.145846 0.356071 0.584627 0.115767
H25   H     H_    0.854141 0.643732 0.415215 0.112189
H26   H     H_    0.884482 0.355469 0.583994 0.093065
H27   H     H_    0.115612 0.643736 0.415356 0.131726
H28   H     H_    0.064044 0.330942 0.951841 0.158390
N1    N     N_2   0.559443 0.510085 0.986049 -0.258262
N2    N     N_2   0.445531 0.530681 0.014125 -0.256409
N3    N     N_R   0.852070 0.500030 0.499980 -0.227289
N4    N     N_R   0.147930 0.499970 0.500020 -0.228306
O1    O     O_R   0.618740 0.319660 0.500000 -0.514203
O2    O     O_2   0.145088 0.451074 0.282217 -0.480361
O3    O     O_2   0.441148 0.214227 0.335394 -0.490768
O4    O     O_2   0.595339 0.773083 0.660007 -0.475461
O5    O     O_2   0.245509 0.895599 0.335750 -0.548549
O6    O     O_2   0.614718 0.095479 0.703124 -0.513490
O7    O     O_R   0.381260 0.680340 0.500000 -0.498771
O8    O     O_R   0.381170 0.319630 0.500010 -0.495048
O9    O     O_R   0.618830 0.680370 0.499990 -0.500890
O10   O     O_R   0.631780 0.498870 0.613920 -0.482349
O11   O     O_R   0.368220 0.501130 0.386080 -0.458634
O12   O     O_R   0.394210 0.498840 0.613930 -0.508567
O13   O     O_R   0.605790 0.501160 0.386070 -0.512437
O14   O     O_2   0.892879 0.525639 0.744768 -0.508232

loop_
_geom_bond_atom_site_label_1
_geom_bond_atom_site_label_2
_ccdc_geom_bond_type
Cu2   O12   S    
C28   O2    D    
C37   N3    A    
C28   H17   S    
C24   H15   S    
C25   H13   S    
C32   H21   S    
C26   H10   S    
C11   C14   A    
C13   N2    S    
C24   H14   S    
C12   O7    A    
C15   C17   A    
C5    C16   A    
C38   H26   S    
C37   H25   S    
Cu2   O8    S    
C18   C35   A    
C26   H8    S    
C16   C27   S    
C21   C22   S    
Cu2   O11   S    
C10   H22   S    
C2    N4    A    
C31   O5    D    
C21   H5    S    
C18   C23   A    
C14   C20   S    
C8    H1    S    
Cu1   O9    S    
C4    C6    S    
C2    H27   S    
C19   C33   A    
C26   H9    S    
Cu1   Cu2   S    
C5    C7    A    
C27   H16   S    
C6    C8    A    
C4    O13   A    
C25   C26   S    
C10   C13   A    
C23   C31   S    
C31   H20   S    
C27   O14   D    
C25   H11   S    
C21   H4    S    
C30   O4    D    
C22   H3    S    
C23   C34   A    
C30   H19   S    
C3    O10   A    
Cu2   O7    S    
C18   C29   S    
C24   C25   S    
C9    C11   A    
C22   H28   S    
C15   C24   S    
C13   C15   A    
C14   C16   A    
Cu1   O13   S    
C12   C34   S    
C29   H18   S    
C1    C35   S    
C7    C9    A    
C6    C17   A    
C38   N3    A    
Cu2   N4    S    
C9    H23   S    
C17   C28   S    
Cu1   O10   S    
C3    C5    S    
C19   C34   A    
C7    H12   S    
C11   N1    S    
C29   O3    D    
C1    O1    A    
C32   C33   S    
C36   C38   A    
C2    C37   A    
C22   H2    S    
C4    O11   A    
C33   C35   A    
C12   O9    A    
Cu1   O1    S    
N1    N2    D    
C20   H7    S    
C32   O6    D    
C20   C21   S    
C8    C10   A    
C3    O12   A    
C1    O8    A    
Cu1   N3    S    
C36   H24   S    
C19   C30   S    
C20   H6    S    
C36   N4    A    
