data_mof_unit_11072.cif
_audit_creation_date              2013-03-05T15:58:57-0500
_audit_creation_method            fapswitch 2.2
_symmetry_space_group_name_H-M    P1
_symmetry_Int_Tables_number       1
_space_group_crystal_system       triclinic
_cell_length_a                    10.634376
_cell_length_b                    12.589298
_cell_length_c                    13.129701
_cell_angle_alpha                 81.999213
_cell_angle_beta                  90.653277
_cell_angle_gamma                 102.461811
_cell_volume                      1699.35937059

loop_
_atom_site_label
_atom_site_type_symbol
_atom_site_description
_atom_site_fract_x
_atom_site_fract_y
_atom_site_fract_z
_atom_type_partial_charge
O1    O     O_R   0.468120 0.366740 0.627160 -0.606554
O2    O     O_R   0.510770 0.544830 0.662520 -0.612994
C1    C     C_R   0.478027 0.438461 0.691117 0.907419
O3    O     O_R   0.663880 0.410950 0.482330 -0.623766
O4    O     O_R   0.706530 0.589040 0.517700 -0.622772
C2    C     C_R   0.741847 0.500503 0.500611 0.883839
Zn1   Zn    Zn3+2 0.471520 0.381090 0.476390 0.947324
Zn2   Zn    Zn3+2 0.528480 0.618910 0.523610 0.921666
O5    O     O_R   0.489230 0.455170 0.337480 -0.605791
O6    O     O_R   0.531880 0.633260 0.372840 -0.655142
O7    O     O_R   0.293470 0.410960 0.482300 -0.621802
O8    O     O_R   0.336120 0.589050 0.517670 -0.654948
C3    C     C_R   0.515480 0.561893 0.307895 0.849102
C4    C     C_R   0.258037 0.499584 0.500397 0.827703
C5    C     C_3   0.904875 0.403746 0.581501 0.188683
H1    H     H_    0.856383 0.325387 0.553944 0.104939
C6    C     C_3   0.050508 0.406326 0.583679 -0.459099
H2    H     H_    0.090608 0.418857 0.660880 0.195528
H3    H     H_    0.066508 0.325526 0.567935 0.162304
H4    H     H_    0.865674 0.406670 0.370950 0.189111
H5    H     H_    0.078371 0.402807 0.373337 0.184209
C7    C     C_3   0.921893 0.484950 0.393589 -0.474208
C8    C     C_3   0.957780 0.612942 0.526679 -0.366646
C9    C     C_3   0.878589 0.500889 0.501972 0.048641
H6    H     H_    0.942108 0.680463 0.466691 0.171605
H7    H     H_    0.927256 0.632469 0.601294 0.220660
C10   C     C_3   0.121317 0.499753 0.501461 0.124077
C11   C     C_3   0.065847 0.482860 0.393831 -0.402606
C12   C     C_3   0.100099 0.611387 0.528527 -0.372964
H8    H     H_    0.137867 0.624757 0.606309 0.193872
H9    H     H_    0.152287 0.680784 0.472068 0.177751
H10   H     H_    0.904466 0.552865 0.334914 0.181494
H11   H     H_    0.118223 0.548880 0.334340 0.170675
C13   C     C_R   0.443377 0.715260 0.052891 -0.171520
H12   H     H_    0.345731 0.715703 0.865164 0.151031
H13   H     H_    0.424251 0.793544 0.018566 0.177410
C14   C     C_R   0.510793 0.598935 0.196794 -0.173187
C15   C     C_R   0.474306 0.293414 0.839385 -0.115028
C16   C     C_R   0.475387 0.261402 0.944856 -0.119441
C17   C     C_R   0.465994 0.335918 0.011858 -0.189254
C18   C     C_R   0.448572 0.442743 0.973641 0.098485
C19   C     C_R   0.424857 0.467076 0.868184 0.075639
C20   C     C_R   0.457697 0.527607 0.035360 0.085024
C21   C     C_R   0.424628 0.628062 0.994976 0.116394
C22   C     C_R   0.377246 0.641455 0.895773 -0.221819
C23   C     C_R   0.376245 0.561351 0.833115 -0.179878
C24   C     C_R   0.505211 0.517139 0.134393 -0.245041
C25   C     C_R   0.490698 0.703403 0.153080 -0.011686
C26   C     C_R   0.453915 0.397808 0.800426 -0.126665
H14   H     H_    0.537913 0.444262 0.165620 0.164587
H15   H     H_    0.492857 0.237633 0.788419 0.173854
H16   H     H_    0.470305 0.307067 0.092851 0.137238
H17   H     H_    0.489597 0.180327 0.974743 0.162804
H18   H     H_    0.338338 0.574601 0.756683 0.165472
C27   C     C_R   0.315060 0.086995 0.351248 -0.288835
H19   H     H_    0.296849 0.254847 0.332884 0.133827
H20   H     H_    0.280752 0.878930 0.323715 0.168089
H21   H     H_    0.244302 0.064634 0.293524 0.149405
N1    N     N_R   0.433240 0.222190 0.444680 -0.104139
C28   C     C_R   0.654470 0.799568 0.628524 0.016176
C29   C     C_R   0.685929 0.903966 0.657189 -0.242534
C30   C     C_R   0.626290 0.985296 0.609466 -0.195475
C31   C     C_R   0.534453 0.962088 0.532331 0.015640
C32   C     C_R   0.505590 0.854199 0.506311 0.223574
C33   C     C_R   0.470888 0.041175 0.479748 -0.018928
C34   C     C_R   0.378197 0.010204 0.404324 0.193987
C35   C     C_R   0.350561 0.903301 0.381570 -0.221517
C36   C     C_R   0.415136 0.827125 0.430673 -0.232787
C37   C     C_R   0.495915 0.150689 0.498060 -0.055723
C38   C     C_R   0.344513 0.193926 0.372893 0.002146
N2    N     N_R   0.566070 0.776970 0.554790 -0.135190
H22   H     H_    0.564286 0.182123 0.553478 0.141528
H23   H     H_    0.700232 0.735794 0.665329 0.153191
H24   H     H_    0.653780 0.064796 0.634705 0.156708
H25   H     H_    0.756159 0.921805 0.716227 0.161781
H26   H     H_    0.394339 0.748054 0.406059 0.209757
C39   C     C_2   0.525917 0.802315 0.205642 0.368554
H27   H     H_    0.592611 0.805196 0.268584 0.105315
O9    O     O_2   0.484957 0.884583 0.176062 -0.588262
N3    N     N_R   0.852981 0.403521 0.684814 0.203068
O10   O     O_R   0.760017 0.323310 0.723483 -0.430210
O11   O     O_R   0.903416 0.478515 0.741208 -0.414874

loop_
_geom_bond_atom_site_label_1
_geom_bond_atom_site_label_2
_geom_bond_distance
_ccdc_geom_bond_type
C31   C33   1.418927 A    
C10   C12   1.558860 S    
C18   C19   1.407805 A    
C1    C26   1.461077 S    
C15   C26   1.403289 A    
C39   H27   1.082208 S    
C29   H25   1.082561 S    
Zn1   O7    2.012796 S    
C12   H8    1.114424 S    
C7    H10   1.113831 S    
O4    C2    1.298456 A    
C8    C12   1.517698 S    
C15   C16   1.387980 A    
O7    C4    1.304045 A    
C32   N2    1.361025 A    
C5    H1    1.116045 S    
C28   H23   1.081752 S    
Zn1   O5    1.920986 S    
C19   C23   1.412491 A    
C8    H7    1.110989 S    
O5    C3    1.315038 A    
C8    C9    1.553348 S    
C4    C10   1.454616 S    
C14   C24   1.393761 A    
C3    C14   1.472018 S    
C34   C35   1.387847 A    
C7    C11   1.536720 S    
C18   C20   1.414912 A    
H20   C35   1.084431 S    
O3    Zn1   2.001159 S    
Zn1   N1    2.053618 S    
C24   H14   1.077277 S    
C39   O9    1.221521 D    
C35   C36   1.381648 A    
C6    C10   1.548741 S    
C13   C21   1.399116 A    
O3    C2    1.297492 A    
C16   C17   1.391430 A    
C15   H15   1.083272 S    
N1    C38   1.354060 A    
C28   N2    1.357352 A    
C17   H16   1.078629 S    
C28   C29   1.387814 A    
O1    C1    1.303651 A    
C25   C39   1.482963 S    
C37   H22   1.076385 S    
C20   C21   1.416052 A    
C30   C31   1.414760 A    
C5    N3    1.469658 S    
Zn2   O8    2.001159 S    
C2    C9    1.453037 S    
C23   H18   1.081944 S    
C6    H2    1.113457 S    
C14   C25   1.418854 A    
N1    C37   1.348468 A    
N3    O11   1.301646 A    
C17   C18   1.418549 A    
H5    C11   1.113581 S    
O8    C4    1.293335 A    
C11   H11   1.113800 S    
H19   C38   1.081961 S    
C7    C9    1.552951 S    
C13   C25   1.403067 A    
H12   C22   1.084025 S    
C32   C36   1.399512 A    
C27   C34   1.397473 A    
C21   C22   1.392617 A    
C5    C6    1.542049 S    
C5    C9    1.565092 S    
Zn2   N2    2.041249 S    
O1    Zn1   1.962623 S    
O2    Zn2   1.920986 S    
H4    C7    1.113637 S    
N3    O10   1.301039 A    
O6    C3    1.306523 A    
O4    Zn2   2.012797 S    
C36   H26   1.066385 S    
O2    C1    1.310430 A    
C12   H9    1.113847 S    
C16   H17   1.082750 S    
C33   C37   1.400686 A    
C6    H3    1.113766 S    
C13   H13   1.084678 S    
C8    H6    1.114663 S    
C29   C30   1.391330 A    
C27   C38   1.383320 A    
C19   C26   1.409228 A    
C31   C32   1.415141 A    
C22   C23   1.385653 A    
Zn2   O6    1.962620 S    
C33   C34   1.422569 A    
C27   H21   1.083901 S    
C10   C11   1.549413 S    
C30   H24   1.077413 S    
C20   C24   1.389049 A    
