data_mof_unit_57032.cif
_audit_creation_date              2012-12-10T17:33:00-0500
_audit_creation_method            fapswitch 2.2
_symmetry_space_group_name_H-M    P1
_symmetry_Int_Tables_number       1
_space_group_crystal_system       triclinic
_cell_length_a                    12.416591
_cell_length_b                    13.351294
_cell_length_c                    14.309988
_cell_angle_alpha                 94.225654
_cell_angle_beta                  107.989295
_cell_angle_gamma                 116.928146
_cell_volume                      1946.83176907

loop_
_atom_site_label
_atom_site_type_symbol
_atom_type_description
_atom_site_fract_x
_atom_site_fract_y
_atom_site_fract_z
_atom_type_partial_charge
C1    C     C_R   0.649803 0.713742 0.506437 0.867962
C2    C     C_R   0.873605 0.538455 0.930232 -0.107720
C3    C     C_R   0.818540 0.545934 0.001674 -0.063951
C4    C     C_R   0.998902 0.547440 0.964346 0.081337
C5    C     C_R   0.053436 0.538108 0.064073 -0.056644
C6    C     C_R   0.000901 0.554367 0.135607 -0.148667
C7    C     C_R   0.884461 0.557279 0.103918 0.572122
C8    C     C_R   0.076117 0.574671 0.905091 -0.088510
C9    C     C_R   0.196737 0.580098 0.938469 -0.202841
C10   C     C_R   0.240991 0.552397 0.029262 0.097091
C11   C     C_R   0.165453 0.523968 0.089982 -0.002844
C12   C     C_R   0.616597 0.513977 0.686917 0.883040
C13   C     C_R   0.360541 0.553639 0.060745 -0.171839
C14   C     C_R   0.405821 0.527263 0.152103 -0.279399
C15   C     C_R   0.203148 0.479511 0.172642 0.532168
C16   C     C_R   0.221002 0.968154 0.476864 -0.155161
C17   C     C_R   0.264640 0.165223 0.485928 -0.162213
C18   C     C_R   0.708584 0.921781 0.541188 0.573088
C19   C     C_R   0.802433 0.039126 0.568569 -0.157545
C20   C     C_R   0.925036 0.073848 0.563293 -0.137002
C21   C     C_R   0.946021 0.991031 0.513858 0.054377
C22   C     C_R   0.848583 0.871758 0.484574 -0.085470
C23   C     C_R   0.347834 0.286083 0.488398 0.842362
C24   C     C_R   0.062238 0.021019 0.495310 0.024661
C25   C     C_R   0.093684 0.934559 0.473201 -0.106786
C26   C     C_R   0.993089 0.818794 0.438591 0.589476
C27   C     C_R   0.869488 0.791145 0.434002 -0.179093
C28   C     C_R   0.142565 0.132546 0.489569 -0.270323
C29   C     C_R   0.306647 0.084026 0.484748 0.561694
C30   C     C_R   0.734450 0.836532 0.507294 -0.209609
C31   C     C_R   0.257778 0.687357 0.663014 -0.292243
C32   C     C_R   0.655482 0.340671 0.362626 0.179725
C33   C     C_R   0.733825 0.306643 0.333972 -0.235090
C34   C     C_R   0.382135 0.483922 0.313378 0.828723
C35   C     C_R   0.868312 0.366287 0.386416 -0.126397
C36   C     C_R   0.928537 0.462242 0.469404 -0.040935
C37   C     C_R   0.845442 0.496132 0.497542 0.182871
C38   C     C_R   0.068619 0.525871 0.524962 0.004289
C39   C     C_R   0.123176 0.622174 0.607032 0.070798
C40   C     C_R   0.044018 0.654488 0.633786 -0.295658
C41   C     C_R   0.910111 0.594635 0.582070 0.671659
C42   C     C_R   0.158663 0.499609 0.502936 0.096102
C43   C     C_R   0.340609 0.658817 0.637051 0.197073
C44   C     C_R   0.682192 0.521666 0.795592 -0.202316
C45   C     C_R   0.327752 0.491523 0.209169 -0.128920
C46   C     C_R   0.698427 0.543133 0.970507 -0.162986
C47   C     C_R   0.630760 0.532412 0.869040 -0.122873
C48   C     C_R   0.799310 0.517616 0.826628 0.595048
Cu1   Cu    Cu3+1 0.416420 0.526630 0.522910 1.019736
Cu2   Cu    Cu3+1 0.583580 0.473370 0.477090 1.051901
H1    H     H_    0.421196 0.579201 0.016735 0.166660
H2    H     H_    0.107489 0.193382 0.482339 0.184155
H3    H     H_    0.791497 0.705651 0.388951 0.196108
H4    H     H_    0.086875 0.728807 0.697065 0.172007
H5    H     H_    0.298393 0.760926 0.726390 0.136202
H6    H     H_    0.126667 0.427392 0.442213 0.138455
H7    H     H_    0.922774 0.335226 0.359992 0.155640
H8    H     H_    0.690299 0.232889 0.270186 0.151704
H9    H     H_    0.502506 0.536866 0.178939 0.193332
H10   H     H_    0.254461 0.604169 0.892050 0.162480
H11   H     H_    0.656292 0.548837 0.025415 0.196989
H12   H     H_    0.049502 0.600423 0.835711 0.199456
N1    N     N_R   0.290690 0.566960 0.557640 -0.208438
N2    N     N_R   0.709100 0.433710 0.442970 -0.219039
O1    O     O_R   0.545970 0.684450 0.528810 -0.529594
O2    O     O_R   0.687130 0.639470 0.490120 -0.555999
O3    O     O_R   0.519670 0.535100 0.660030 -0.608268
O4    O     O_R   0.660830 0.490120 0.621340 -0.449415
O5    O     O_R   0.312870 0.360530 0.509880 -0.604561
O6    O     O_R   0.454030 0.315550 0.471190 -0.532876
O7    O     O_R   0.339170 0.509880 0.378660 -0.545100
O8    O     O_R   0.480330 0.464900 0.339970 -0.617040
F1    F     F_    0.835886 0.572368 0.173761 -0.652767
F2    F     F_    0.429349 0.116400 0.489264 -0.642486
F3    F     F_    0.008789 0.733513 0.398294 -0.660306
C49   C     C_1   0.270170 0.888557 0.479503 0.467596
N3    N     N_1   0.312009 0.826582 0.482983 -0.175759
F4    F     F_    0.594351 0.891323 0.553311 -0.643027
C50   C     C_1   0.030487 0.190509 0.620197 0.247256
N4    N     N_1   0.114076 0.283525 0.665844 -0.245179
C51   C     C_1   0.773557 0.123169 0.607923 0.386891
N5    N     N_1   0.750510 0.190373 0.639200 -0.165222
C52   C     C_1   0.479088 0.727747 0.695728 0.379447
N6    N     N_1   0.590325 0.783651 0.743523 -0.256740
F5    F     F_    0.116335 0.416274 0.213317 -0.684394
C53   C     C_1   0.516642 0.274402 0.304725 0.353581
N7    N     N_1   0.405111 0.220282 0.257476 -0.270213
F6    F     F_    0.853012 0.640577 0.621358 -0.646547
C54   C     C_1   0.504825 0.525015 0.842843 0.298675
N8    N     N_1   0.403696 0.518524 0.821843 -0.294921
F7    F     F_    0.833137 0.480816 0.755114 -0.656018
C55   C     C_1   0.074399 0.588702 0.243590 0.491373
N9    N     N_1   0.133421 0.616089 0.330078 -0.198363

loop_
_geom_bond_atom_site_label_1
_geom_bond_atom_site_label_2
_ccdc_geom_bond_type
C33   H8    S    
Cu1   N1    S    
Cu2   N2    S    
C23   O5    A    
C19   C20   A    
C4    C8    A    
C51   N5    T    
C43   N1    A    
C7    F1    S    
C14   H9    S    
C12   O4    A    
C26   C27   A    
C17   C23   S    
Cu1   O1    S    
C36   C37   A    
C38   C42   A    
C3    C7    A    
C5    C6    A    
C43   C52   S    
C18   C19   A    
Cu2   O8    S    
C55   N9    T    
C42   H6    S    
C13   H1    S    
C11   C15   A    
C35   C36   A    
C8    C9    A    
C48   F7    S    
C1    O1    A    
C18   C30   A    
C13   C14   A    
C22   C30   A    
C9    C10   A    
C44   C47   A    
C15   F5    S    
Cu1   O5    S    
C21   C22   A    
C47   C54   S    
C23   O6    A    
C25   C26   A    
C1    O2    A    
C14   C45   A    
C12   O3    A    
C46   H11   S    
C49   N3    T    
C32   N2    A    
C39   C40   A    
C53   N7    T    
C29   F2    S    
C2    C48   A    
C16   C29   A    
C2    C4    A    
C52   N6    T    
C18   F4    S    
C32   C53   S    
C26   F3    S    
C34   C45   S    
C24   C25   A    
Cu2   O2    S    
C31   C43   A    
C40   C41   A    
C40   H4    S    
C22   C27   A    
C15   C45   A    
C34   O8    A    
C37   N2    A    
C16   C25   A    
C41   F6    S    
C46   C47   A    
Cu1   O3    S    
C20   C50   S    
C16   C49   S    
C17   C28   A    
C24   C28   A    
C4    C5    A    
C10   C13   A    
C27   H3    S    
C5    C11   A    
C6    C7    A    
C3    C46   A    
C35   H7    S    
C9    H10   S    
C32   C33   A    
C36   C38   A    
C2    C3    A    
Cu2   O6    S    
C12   C44   S    
C17   C29   A    
C28   H2    S    
C38   C39   A    
C6    C55   S    
C34   O7    A    
C1    C30   S    
C33   C35   A    
C31   C39   A    
C37   C41   A    
C10   C11   A    
C50   N4    T    
C20   C21   A    
Cu1   Cu2   S    
Cu1   O7    S    
C21   C24   A    
C31   H5    S    
C54   N8    T    
C19   C51   S    
Cu2   O4    S    
C42   N1    A    
C44   C48   A    
C8    H12   S    
