data_mof_unit_47760.cif
_audit_creation_date              2012-10-26T19:40:44-0400
_audit_creation_method            fapswitch 2.2
_symmetry_space_group_name_H-M    P1
_symmetry_Int_Tables_number       1
_space_group_crystal_system       triclinic
_cell_length_a                    9.809749
_cell_length_b                    10.93167
_cell_length_c                    13.411309
_cell_angle_alpha                 88.732383
_cell_angle_beta                  72.501245
_cell_angle_gamma                 89.604873
_cell_volume                      1371.29768519

loop_
_atom_site_label
_atom_site_type_symbol
_atom_type_description
_atom_site_fract_x
_atom_site_fract_y
_atom_site_fract_z
_atom_type_partial_charge
C1    C     C_R   0.502617 0.733545 0.492437 0.561418
C2    C     C_R   0.378430 0.516282 0.813809 -0.008673
C3    C     C_2   0.613725 0.064990 0.458549 0.119853
C4    C     C_R   0.422974 0.499994 0.699932 0.573882
C5    C     C_2   0.495859 0.132781 0.503870 0.096782
C6    C     C_2   0.611918 0.933303 0.482015 -0.097644
C7    C     C_2   0.510286 0.862698 0.466853 -0.112126
C8    C     C_2   0.044006 0.533930 0.578775 0.293737
C9    C     C_2   0.898479 0.561599 0.565157 0.249886
C10   C     C_R   0.500694 0.265629 0.497852 0.574513
C11   C     C_R   0.577189 0.499413 0.300384 0.524919
C12   C     C_R   0.450965 0.524316 0.972943 -0.004303
C13   C     C_R   0.754372 0.368052 0.039280 -0.113803
C14   C     C_R   0.621148 0.484356 0.187234 0.008828
C15   C     C_R   0.275763 0.606737 0.852708 -0.089702
C16   C     C_R   0.260736 0.658603 0.949214 0.142021
C17   C     C_R   0.350239 0.619911 0.007389 -0.083734
C18   C     C_3   0.996419 0.452763 0.754121 -0.285512
C19   C     C_3   0.889303 0.295692 0.551343 -0.214633
C20   C     C_3   0.186184 0.866426 0.925344 -0.261827
C21   C     C_3   0.860977 0.044340 0.338945 -0.302652
C22   C     C_R   0.458845 0.466904 0.877517 0.008181
C23   C     C_R   0.544829 0.484915 0.030066 0.018102
C24   C     C_R   0.652208 0.396240 0.987355 0.035395
C25   C     C_R   0.647569 0.330259 0.899569 0.073955
C26   C     C_R   0.543810 0.360268 0.850082 0.101541
C27   C     C_R   0.530627 0.526273 0.131268 -0.106870
C28   C     C_R   0.738745 0.411824 0.138614 -0.130073
Cu1   Cu    Cu3+1 0.361370 0.499980 0.499980 1.058997
Cu2   Cu    Cu3+1 0.638630 0.500020 0.500020 1.004355
H1    H     H_    0.811535 0.380400 0.180571 0.127712
H2    H     H_    0.020217 0.468117 0.828732 0.160796
H3    H     H_    0.039957 0.362017 0.724602 0.194067
H4    H     H_    0.889981 0.359214 0.403261 0.285817
H5    H     H_    0.993340 0.273466 0.564191 0.161874
H6    H     H_    0.847195 0.210599 0.528142 0.188350
H7    H     H_    0.812857 0.325971 0.626080 0.181372
H8    H     H_    0.133737 0.767909 0.065676 0.258854
H9    H     H_    0.100563 0.933583 0.960174 0.167526
H10   H     H_    0.186505 0.851105 0.843723 0.183341
H11   H     H_    0.290588 0.905569 0.925070 0.177349
H12   H     H_    0.696327 0.894763 0.509843 0.179986
H13   H     H_    0.720882 0.189164 0.340428 0.250302
H14   H     H_    0.949183 0.102159 0.289349 0.148378
H15   H     H_    0.830610 0.976806 0.288630 0.160157
H16   H     H_    0.900940 0.996471 0.398525 0.174157
H17   H     H_    0.430687 0.900853 0.433527 0.136275
H18   H     H_    0.842833 0.307014 0.006868 0.152828
H19   H     H_    0.443448 0.583930 0.172237 0.136665
H20   H     H_    0.213665 0.643433 0.804626 0.144545
H21   H     H_    0.340883 0.669464 0.077576 0.115274
H22   H     H_    0.038884 0.634278 0.708241 0.256191
H23   H     H_    0.878881 0.454206 0.769428 0.153680
I1    I     I_    0.292827 0.061507 0.599887 -0.350441
I2    I     I_    0.149442 0.570508 0.353028 -0.299915
I3    I     I_    0.780270 0.703868 0.659460 -0.331912
I4    I     I_    0.784836 0.174282 0.849335 -0.395105
I5    I     I_    0.482003 0.221550 0.763723 -0.302350
N1    N     N_2   0.152660 0.501340 0.501130 -0.115434
N2    N     N_2   0.846520 0.501370 0.501160 -0.133004
N3    N     N_2   0.061955 0.547762 0.678973 -0.489047
N4    N     N_2   0.910719 0.389626 0.469444 -0.406089
N5    N     N_2   0.158819 0.753418 0.986427 -0.520485
N6    N     N_2   0.739852 0.121030 0.389097 -0.526600
O1    O     O_R   0.382960 0.678040 0.499980 -0.478906
O2    O     O_R   0.617100 0.678080 0.500020 -0.480370
O3    O     O_R   0.325800 0.499940 0.650950 -0.468749
O4    O     O_R   0.559930 0.499980 0.650990 -0.474559
O5    O     O_R   0.382900 0.321920 0.499980 -0.470400
O6    O     O_R   0.617040 0.321960 0.500020 -0.497656
O7    O     O_R   0.440070 0.500020 0.349010 -0.479062
O8    O     O_R   0.674200 0.500060 0.349050 -0.510227

loop_
_geom_bond_atom_site_label_1
_geom_bond_atom_site_label_2
_ccdc_geom_bond_type
C12   C17   A    
C2    C22   A    
C4    O3    A    
C2    C4    S    
C23   C24   A    
C13   C28   A    
C6    C7    D    
C16   N5    S    
C23   C27   A    
C14   C27   A    
C13   H18   S    
C21   H14   S    
C3    C6    S    
C21   H15   S    
C8    N3    S    
C19   H6    S    
C9    N2    D    
C17   H21   S    
C20   N5    S    
H8    N5    S    
C20   H11   S    
C20   H9    S    
C3    C5    D    
C5    C10   S    
C18   N3    S    
C9    I3    S    
C19   H5    S    
C3    N6    S    
C2    C15   A    
C26   I5    S    
C12   C23   A    
Cu1   Cu2   S    
C25   I4    S    
Cu1   O1    S    
Cu2   O2    S    
Cu2   O6    S    
H13   N6    S    
C1    O2    A    
I2    N1    S    
H22   N3    S    
C8    N1    D    
C22   C26   A    
C20   H10   S    
C18   H3    S    
C11   O7    A    
C18   H2    S    
C19   N4    S    
C15   C16   A    
C10   O5    A    
C10   O6    A    
C5    I1    S    
H4    N4    S    
C12   C22   A    
C24   C25   A    
N2    N4    S    
C21   H16   S    
C6    H12   S    
C15   H20   S    
C11   C14   S    
C4    O4    A    
Cu1   O5    S    
Cu1   N1    S    
C11   O8    A    
C8    C9    S    
C21   N6    S    
Cu1   O3    S    
C19   H7    S    
C18   H23   S    
C14   C28   A    
C25   C26   A    
C1    C7    S    
C1    O1    A    
C28   H1    S    
Cu2   O4    S    
Cu2   O8    S    
C27   H19   S    
C13   C24   A    
Cu2   N2    S    
C16   C17   A    
Cu1   O7    S    
C7    H17   S    
