data_mof_unit_46622.cif
_audit_creation_date              2012-10-26T20:02:58-0400
_audit_creation_method            fapswitch 2.2
_symmetry_space_group_name_H-M    P1
_symmetry_Int_Tables_number       1
_space_group_crystal_system       triclinic
_cell_length_a                    10.86728
_cell_length_b                    12.430672
_cell_length_c                    13.306643
_cell_angle_alpha                 117.098776
_cell_angle_beta                  75.244103
_cell_angle_gamma                 101.417829
_cell_volume                      1540.42877893

loop_
_atom_site_label
_atom_site_type_symbol
_atom_type_description
_atom_site_fract_x
_atom_site_fract_y
_atom_site_fract_z
_atom_type_partial_charge
C1    C     C_R   0.504451 0.855000 0.287499 0.539787
C2    C     C_R   0.473454 0.563274 0.014169 0.011280
C3    C     C_R   0.448021 0.645772 0.132020 -0.017228
C4    C     C_R   0.739502 0.998846 0.498716 0.565357
C5    C     C_R   0.446223 0.436266 0.982437 -0.018571
C6    C     C_R   0.380472 0.393190 0.066024 0.064531
C7    C     C_R   0.346807 0.477041 0.180014 -0.158053
C8    C     C_R   0.376672 0.600226 0.211491 -0.157477
C9    C     C_R   0.485560 0.350915 0.869823 -0.169211
C10   C     C_R   0.388124 0.184957 0.919011 -0.145171
C11   C     C_R   0.491185 0.771628 0.166018 0.013810
C12   C     C_3   0.117187 0.998016 0.509466 0.088153
C13   C     C_R   0.673782 0.322805 0.296128 0.241634
C14   C     C_R   0.328474 0.761204 0.649392 0.058542
C15   C     C_R   0.268751 0.655835 0.658210 -0.173149
C16   C     C_R   0.480577 0.144846 0.713728 0.542594
C17   C     C_R   0.321937 0.546976 0.585227 -0.101841
C18   C     C_R   0.444718 0.544492 0.517811 0.000847
C19   C     C_R   0.488184 0.649081 0.496909 0.109279
C20   C     C_R   0.518132 0.439931 0.461166 -0.084169
C21   C     C_R   0.613805 0.431421 0.363210 0.016167
C22   C     C_R   0.647604 0.532111 0.334875 0.235652
C23   C     C_3   0.055336 0.112150 0.614860 0.140327
C24   C     C_R   0.592644 0.641282 0.408334 -0.128175
C25   C     C_R   0.507849 0.348934 0.502801 0.391639
C26   C     C_R   0.652853 0.232258 0.336427 -0.015949
C27   C     C_R   0.258576 0.002140 0.505546 0.537422
C28   C     C_3   0.962534 0.985071 0.385851 -0.324054
C29   C     C_3   0.104571 0.007765 0.398487 -0.288669
C30   C     C_3   0.925011 0.123998 0.593884 0.071971
C31   C     C_3   0.892699 0.886104 0.522649 0.081646
C32   C     C_3   0.875770 0.998932 0.502871 0.003127
C33   C     C_3   0.065397 0.888681 0.701359 -0.230363
C34   C     C_3   0.038974 0.870251 0.502753 0.452450
C35   C     C_3   0.815870 0.303211 0.741962 -0.327359
C36   C     C_3   0.083553 0.204659 0.807177 -0.045573
C37   C     C_3   0.053591 0.184777 0.915601 -0.390996
C38   C     C_3   0.155047 0.231020 0.158974 -0.324125
C39   C     C_3   0.408050 0.988069 0.154248 -0.287633
C40   C     C_3   0.700236 0.550853 0.164969 0.015187
C41   C     C_3   0.804752 0.542404 0.061321 -0.393004
C42   C     C_3   0.701106 0.200444 0.101780 -0.015962
C43   C     C_3   0.708308 0.223328 0.997572 -0.372596
C44   C     C_3   0.336187 0.340653 0.645973 0.026881
C45   C     C_R   0.350686 0.266954 0.033829 0.136066
C46   C     C_3   0.270074 0.436300 0.759136 -0.420996
C47   C     C_3   0.761724 0.780330 0.641436 -0.323464
C48   C     C_3   0.041701 0.661142 0.355406 -0.025314
C49   C     C_3   0.045366 0.596953 0.226783 -0.358457
C50   C     C_R   0.453762 0.226997 0.836724 -0.042906
C51   C     C_R   0.525748 0.815829 0.080670 0.135439
C52   C     C_R   0.542725 0.734752 0.964814 -0.136628
C53   C     C_R   0.521338 0.610870 0.931834 -0.165176
Cu1   Cu    Cu3+1 0.529690 0.098270 0.475420 0.942693
Cu2   Cu    Cu3+1 0.470310 0.901730 0.524580 0.908354
H1    H     H_    0.943251 0.050762 0.357613 0.123519
H2    H     H_    0.292534 0.847326 0.707054 0.110738
H3    H     H_    0.260346 0.466463 0.575357 0.107905
H4    H     H_    0.179055 0.657173 0.717192 0.086991
H5    H     H_    0.633284 0.718721 0.392547 0.179416
H6    H     H_    0.159621 0.941321 0.319630 0.165868
H7    H     H_    0.144329 0.099295 0.403067 0.096406
H8    H     H_    0.945799 0.188202 0.552760 0.108989
H9    H     H_    0.118000 0.194745 0.617240 0.049785
H10   H     H_    0.849762 0.805750 0.455027 0.134619
H11   H     H_    0.026208 0.734761 0.562799 0.220727
H12   H     H_    0.363707 0.088507 0.893944 0.112687
H13   H     H_    0.075686 0.825362 0.735681 0.059244
H14   H     H_    0.973977 0.926558 0.751923 0.209259
H15   H     H_    0.148228 0.958125 0.716745 0.193442
H16   H     H_    0.826159 0.149865 0.763040 0.283731
H17   H     H_    0.746778 0.332895 0.824495 0.133193
H18   H     H_    0.778849 0.318586 0.679540 0.180758
H19   H     H_    0.908753 0.358446 0.756650 0.114899
H20   H     H_    0.039029 0.286158 0.825148 0.139532
H21   H     H_    0.188540 0.217954 0.785038 0.126180
H22   H     H_    0.121089 0.124679 0.909093 0.131040
H23   H     H_    0.296472 0.448737 0.246643 0.144220
H24   H     H_    0.063014 0.273327 0.991034 0.124536
H25   H     H_    0.955659 0.140135 0.927304 0.158339
H26   H     H_    0.313554 0.135713 0.094586 0.236103
H27   H     H_    0.100336 0.151512 0.101054 0.133022
H28   H     H_    0.126650 0.315661 0.166304 0.154033
H29   H     H_    0.129408 0.231576 0.245458 0.139833
H30   H     H_    0.584743 0.965440 0.046079 0.221208
H31   H     H_    0.419232 0.088490 0.195545 0.138124
H32   H     H_    0.352300 0.959292 0.221237 0.166933
H33   H     H_    0.353919 0.953942 0.083392 0.111116
H34   H     H_    0.543185 0.378641 0.805476 0.162337
H35   H     H_    0.667672 0.642854 0.203660 0.125048
H36   H     H_    0.619640 0.482457 0.134392 0.160443
H37   H     H_    0.864289 0.467806 0.035083 0.168319
H38   H     H_    0.760654 0.526413 0.988498 0.101851
H39   H     H_    0.866826 0.629157 0.081534 0.115272
H40   H     H_    0.598640 0.173525 0.127312 0.130155
H41   H     H_    0.758360 0.124182 0.076336 0.120487
H42   H     H_    0.686900 0.135937 0.924504 0.089993
H43   H     H_    0.636134 0.284503 0.015782 0.157636
H44   H     H_    0.804200 0.264610 0.973407 0.159196
H45   H     H_    0.534597 0.555724 0.840496 0.144388
H46   H     H_    0.328826 0.260024 0.660301 0.178277
H47   H     H_    0.283631 0.308997 0.574600 0.088458
H48   H     H_    0.315850 0.529139 0.775007 0.185808
H49   H     H_    0.167681 0.432335 0.757383 0.077941
H50   H     H_    0.276634 0.420570 0.833113 0.131258
H51   H     H_    0.764529 0.961363 0.683667 0.280235
H52   H     H_    0.660544 0.767460 0.633080 0.168719
H53   H     H_    0.763692 0.786330 0.726818 0.129680
H54   H     H_    0.809948 0.700104 0.574228 0.127375
H55   H     H_    0.943507 0.643528 0.398571 0.131037
H56   H     H_    0.570095 0.768081 0.899065 0.104910
H57   H     H_    0.109610 0.621122 0.375702 0.136645
H58   H     H_    0.143388 0.606137 0.178836 0.149118
H59   H     H_    0.012118 0.499187 0.200535 0.151407
H60   H     H_    0.982552 0.639903 0.205097 0.181492
H61   H     H_    0.943290 0.892646 0.317610 0.141548
H62   H     H_    0.334887 0.658174 0.298023 0.187882
H63   H     H_    0.698976 0.149291 0.285066 0.141507
N1    N     N_R   0.574690 0.246280 0.438200 -0.254877
N2    N     N_R   0.426100 0.754320 0.561190 -0.237027
N3    N     N_2   0.064114 0.822476 0.579427 -0.436526
N4    N     N_2   0.830338 0.175615 0.699054 -0.502659
N5    N     N_2   0.290987 0.221197 0.117090 -0.537775
N6    N     N_2   0.532221 0.941625 0.110405 -0.508061
N7    N     N_2   0.822354 0.892331 0.634566 -0.506610
O1    O     O_R   0.537340 0.972510 0.318130 -0.472083
O2    O     O_3   0.746640 0.529818 0.244150 -0.533946
O3    O     O_3   0.750488 0.304867 0.189845 -0.522938
O4    O     O_3   0.465530 0.382734 0.619864 -0.552699
O5    O     O_3   0.080366 0.786018 0.385579 -0.594892
O6    O     O_R   0.487200 0.806530 0.359650 -0.543676
O7    O     O_R   0.707380 0.082980 0.479220 -0.494742
O8    O     O_R   0.657240 0.917000 0.520740 -0.526289
O9    O     O_R   0.512800 0.193470 0.640350 -0.470158
O10   O     O_R   0.462660 0.027490 0.681870 -0.518653
O11   O     O_R   0.342760 0.083000 0.479260 -0.552354
O12   O     O_R   0.292620 0.917020 0.520780 -0.459627
O13   O     O_3   0.036041 0.100876 0.718562 -0.587792

loop_
_geom_bond_atom_site_label_1
_geom_bond_atom_site_label_2
_ccdc_geom_bond_type
C49   H58   S    
C35   H19   S    
C40   C41   S    
C6    C45   A    
C12   C29   S    
H16   N4    S    
C48   H55   S    
C1    C11   S    
C43   H43   S    
C39   H32   S    
C25   O4    S    
C28   H1    S    
C7    C8    A    
C4    O7    A    
C41   H39   S    
C10   H12   S    
C45   N5    S    
Cu1   O1    S    
C12   C23   S    
C27   O12   A    
H26   N5    S    
C42   H41   S    
C27   O11   A    
C28   C29   S    
C16   C50   S    
Cu1   N1    S    
C23   O13   S    
C5    C6    A    
C38   H28   S    
Cu2   O10   S    
C20   C25   A    
Cu1   O9    S    
C46   H50   S    
H30   N6    S    
C15   C17   A    
C18   C19   A    
C36   H21   S    
Cu1   Cu2   S    
C13   O3    S    
C41   H38   S    
C30   N4    S    
Cu2   O6    S    
C28   H61   S    
C38   N5    S    
C42   O3    S    
C17   H3    S    
C49   H59   S    
C16   O9    A    
C21   C22   A    
C38   H27   S    
C33   N3    S    
C51   N6    S    
C48   O5    S    
C39   H33   S    
C25   N1    A    
C44   C46   S    
C8    H62   S    
C47   N7    S    
Cu2   N2    S    
C53   H45   S    
C37   H25   S    
C29   H6    S    
C31   C34   S    
C12   C27   S    
C42   H40   S    
C23   C30   S    
C43   H42   S    
C28   C32   S    
C3    C11   A    
C1    O1    A    
C3    C8    A    
C9    H34   S    
C44   H47   S    
C52   H56   S    
C44   O4    S    
Cu2   O8    S    
C40   O2    S    
C37   H22   S    
C39   N6    S    
C51   C52   A    
C35   H18   S    
C48   H57   S    
C5    C9    A    
C36   H20   S    
C37   H24   S    
C31   C32   S    
H51   N7    S    
C24   H5    S    
Cu1   O11   S    
C10   C45   A    
C17   C18   A    
H11   N3    S    
C13   C21   A    
C26   N1    A    
C4    C32   S    
C33   H15   S    
C7    H23   S    
C23   H9    S    
C49   H60   S    
C35   H17   S    
C34   N3    S    
C14   N2    A    
C22   C24   A    
C13   C26   A    
C2    C5    A    
C42   C43   S    
C31   N7    S    
C12   C34   S    
C10   C50   A    
C52   C53   A    
C31   H10   S    
C14   H2    S    
C29   H7    S    
C36   C37   S    
C38   H29   S    
C15   H4    S    
C35   N4    S    
C9    C50   A    
C26   H63   S    
C43   H44   S    
C1    O6    A    
C2    C53   A    
C19   N2    A    
C44   H46   S    
C6    C7    A    
C33   H14   S    
Cu1   O7    S    
C46   H48   S    
C47   H52   S    
Cu2   O12   S    
C2    C3    A    
C47   H54   S    
C30   C32   S    
C22   O2    S    
C46   H49   S    
C48   C49   S    
C19   C24   A    
C18   C20   A    
C40   H36   S    
C11   C51   A    
C41   H37   S    
C20   C21   A    
C34   O5    S    
C47   H53   S    
C14   C15   A    
C39   H31   S    
C40   H35   S    
C30   H8    S    
C16   O10   A    
C36   O13   S    
C33   H13   S    
C4    O8    A    
