data_mof_unit_7867.cif
_audit_creation_date              2012-10-26T19:21:48-0400
_audit_creation_method            fapswitch 2.2
_symmetry_space_group_name_H-M    P1
_symmetry_Int_Tables_number       1
_space_group_crystal_system       triclinic
_cell_length_a                    23.581245
_cell_length_b                    11.145051
_cell_length_c                    9.963945
_cell_angle_alpha                 110.974917
_cell_angle_beta                  98.092164
_cell_angle_gamma                 92.576023
_cell_volume                      2407.8925605

loop_
_atom_site_label
_atom_site_type_symbol
_atom_type_description
_atom_site_fract_x
_atom_site_fract_y
_atom_site_fract_z
_atom_type_partial_charge
C1    C     C_R   0.493829 0.255972 0.441787 0.526153
C2    C     C_R   0.714523 0.551895 0.615588 -0.022210
C3    C     C_R   0.236724 0.411677 0.532479 0.052397
C4    C     C_R   0.773770 0.544972 0.604916 0.050761
C5    C     C_R   0.208137 0.500284 0.481929 0.142643
C6    C     C_R   0.789758 0.485286 0.466660 0.150033
C7    C     C_2   0.478376 0.121618 0.416164 -0.057918
C8    C     C_2   0.503597 0.885185 0.579664 0.024524
C9    C     C_2   0.515053 0.056820 0.476427 -0.125200
C10   C     C_2   0.496882 0.923429 0.461479 -0.035900
C11   C     C_2   0.508578 0.500540 0.076898 0.061229
C12   C     C_R   0.502458 0.745750 0.557421 0.579117
C13   C     C_2   0.492601 0.496806 0.922232 0.034067
C14   C     C_R   0.391312 0.499252 0.500459 0.488938
C15   C     C_R   0.608886 0.496346 0.497844 0.511161
C16   C     C_R   0.881312 0.606302 0.488200 0.417137
C17   C     C_R   0.111707 0.388560 0.380640 0.419664
C18   C     C_R   0.873483 0.375727 0.394031 0.406616
C19   C     C_R   0.122490 0.611367 0.532905 0.409790
C20   C     C_R   0.932072 0.376944 0.383585 0.026963
C21   C     C_R   0.062555 0.613160 0.514740 0.027248
C22   C     C_R   0.966806 0.495618 0.438595 -0.044528
C23   C     C_R   0.239794 0.588143 0.443158 -0.008263
C24   C     C_R   0.027075 0.496034 0.444935 -0.043599
C25   C     C_R   0.941505 0.613366 0.488776 0.034251
C26   C     C_R   0.051971 0.379535 0.383593 0.033426
C27   C     C_R   0.956794 0.261235 0.325859 -0.123685
C28   C     C_R   0.037773 0.729562 0.564321 -0.123996
C29   C     C_R   0.016063 0.260444 0.325919 -0.008481
C30   C     C_R   0.978002 0.731972 0.544380 -0.002492
C31   C     C_2   0.554134 0.679097 0.948287 0.456980
C32   C     C_2   0.445251 0.321140 0.052859 0.467585
C33   C     C_2   0.037771 0.131592 0.278336 0.309104
C34   C     C_R   0.747516 0.421759 0.344990 -0.002108
C35   C     C_2   0.957288 0.861482 0.582166 0.314002
C36   C     C_2   0.331537 0.698678 0.430483 0.315362
C37   C     C_2   0.648538 0.322675 0.229313 0.254931
C38   C     C_2   0.327961 0.307495 0.572210 0.333354
C39   C     C_2   0.697695 0.629137 0.756021 0.370850
C40   C     C_2   0.201994 0.323545 0.578792 0.378724
C41   C     C_2   0.820102 0.598654 0.735328 0.329909
C42   C     C_2   0.475019 0.837712 0.306462 0.296997
C43   C     C_2   0.576695 0.108730 0.537992 0.259575
C44   C     C_2   0.514861 0.983753 0.731219 0.275853
C45   C     C_R   0.299667 0.593326 0.456905 -0.021317
C46   C     C_2   0.417029 0.071717 0.351375 0.225742
C47   C     C_2   0.437325 0.428088 0.836756 0.295645
C48   C     C_2   0.566592 0.561265 0.156333 0.257242
C49   C     C_R   0.689222 0.414519 0.356539 -0.021225
C50   C     C_R   0.328633 0.501269 0.500139 -0.046394
C51   C     C_R   0.671562 0.487444 0.490536 -0.068541
C52   C     C_R   0.297145 0.408517 0.536171 0.014037
Cu1   Cu    Cu3+1 0.509980 0.521810 0.644910 1.041758
Cu2   Cu    Cu3+1 0.490020 0.478190 0.355090 1.120493
H1    H     H_    0.930065 0.169673 0.284704 0.181170
H2    H     H_    0.608475 0.281362 0.244174 0.131805
H3    H     H_    0.365318 0.274365 0.523505 0.101995
H4    H     H_    0.674135 0.711914 0.763310 0.179205
H5    H     H_    0.170049 0.361502 0.647227 0.110232
H6    H     H_    0.859804 0.553157 0.736977 0.109198
H7    H     H_    0.495030 0.851803 0.221329 0.128581
H8    H     H_    0.592959 0.204296 0.546854 0.130613
H9    H     H_    0.511392 0.085094 0.750249 0.098930
H10   H     H_    0.395225 0.998124 0.378933 0.169696
H11   H     H_    0.435964 0.342247 0.740559 0.104347
H12   H     H_    0.065131 0.820348 0.612660 0.176688
H13   H     H_    0.604057 0.519119 0.114417 0.141085
H14   H     H_    0.541695 0.737532 0.049844 0.100440
H15   H     H_    0.459487 0.258441 0.954759 0.026615
H16   H     H_    0.013502 0.052694 0.185625 0.115319
H17   H     H_    0.976314 0.938388 0.683854 0.109052
H18   H     H_    0.217130 0.654888 0.404185 0.208887
H19   H     H_    0.760876 0.373005 0.240883 0.209699
H20   H     H_    0.377740 0.718888 0.464191 0.130048
N1    N     N_R   0.849465 0.489119 0.448288 -0.422570
N2    N     N_R   0.146171 0.499860 0.465818 -0.423049
N3    N     N_2   0.475010 0.445410 0.137370 -0.229106
N4    N     N_2   0.524990 0.554590 0.862630 -0.284752
O1    O     O_R   0.505330 0.332340 0.577400 -0.567787
O2    O     O_2   0.135205 0.289153 0.291066 -0.398315
O3    O     O_2   0.841023 0.261740 0.353912 -0.453341
O4    O     O_2   0.156778 0.720308 0.616836 -0.451323
O5    O     O_2   0.592528 0.724046 0.904964 -0.427556
O6    O     O_2   0.403880 0.282242 0.092327 -0.366055
O7    O     O_2   0.080097 0.109607 0.348273 -0.396672
O8    O     O_2   0.922491 0.886248 0.495270 -0.396210
O9    O     O_2   0.306417 0.765845 0.372906 -0.432914
O10   O     O_2   0.660002 0.289243 0.106185 -0.467357
O11   O     O_2   0.313879 0.264141 0.660500 -0.411607
O12   O     O_R   0.494670 0.667660 0.422600 -0.438323
O13   O     O_2   0.708997 0.599090 0.862472 -0.409960
O14   O     O_2   0.205701 0.207379 0.532856 -0.354768
O15   O     O_2   0.815865 0.696383 0.838472 -0.419254
O16   O     O_2   0.431006 0.764004 0.272027 -0.459900
O17   O     O_2   0.610658 0.043032 0.576438 -0.432920
O18   O     O_2   0.527578 0.953193 0.836814 -0.437459
O19   O     O_2   0.389733 0.114706 0.268289 -0.411614
O20   O     O_2   0.392605 0.466719 0.876540 -0.425334
O21   O     O_2   0.573349 0.662728 0.261157 -0.471266
O22   O     O_R   0.488470 0.295500 0.332650 -0.460239
O23   O     O_R   0.511530 0.704500 0.667350 -0.432908
O24   O     O_R   0.426310 0.518390 0.622390 -0.515384
O25   O     O_R   0.573690 0.481610 0.377610 -0.511320
O26   O     O_R   0.409450 0.481550 0.377650 -0.440696
O27   O     O_R   0.590550 0.518450 0.622350 -0.472784
O28   O     O_2   0.854667 0.714796 0.531830 -0.399267

loop_
_geom_bond_atom_site_label_1
_geom_bond_atom_site_label_2
_ccdc_geom_bond_type
C18   N1    A    
C23   C45   A    
C10   C42   S    
C16   N1    A    
C37   O10   D    
C2    C4    A    
C6    N1    S    
Cu1   Cu2   S    
C38   O11   D    
C47   O20   D    
C30   C35   S    
C17   C26   A    
Cu2   O26   S    
C19   N2    A    
Cu1   O1    S    
C24   C26   A    
Cu2   O12   S    
C35   O8    D    
C27   H1    S    
C14   O24   A    
C27   C29   A    
C4    C41   S    
C29   C33   S    
C16   C25   A    
C18   O3    S    
C31   O5    D    
C33   O7    D    
C11   N3    D    
C32   N3    S    
C37   H2    S    
C14   O26   A    
C2    C39   S    
C41   O15   D    
Cu1   O23   S    
C49   C51   A    
C22   C25   A    
C17   N2    A    
C43   O17   D    
C15   C51   S    
C19   O4    S    
C9    C10   S    
C16   O28   S    
Cu2   N3    S    
C35   H17   S    
C44   H9    S    
C40   H5    S    
C1    C7    S    
Cu2   O22   S    
C11   C48   S    
C1    O22   A    
C39   O13   D    
C36   O9    D    
C31   H14   S    
C32   O6    D    
C9    C43   S    
C7    C46   S    
Cu2   O25   S    
C4    C6    A    
C13   C47   S    
C39   H4    S    
C17   O2    S    
C6    C34   A    
C46   H10   S    
C28   H12   S    
C44   O18   D    
C38   H3    S    
C37   C49   S    
C50   C52   A    
C5    C23   A    
Cu1   O24   S    
C8    C12   S    
C36   C45   S    
C40   O14   D    
C42   H7    S    
C36   H20   S    
C33   H16   S    
C46   O19   D    
C20   C22   A    
C3    C40   S    
C1    O1    A    
C22   C24   A    
C31   N4    S    
C12   O12   A    
C25   C30   A    
C7    C9    D    
C48   O21   D    
C13   N4    D    
C34   C49   A    
C19   C21   A    
C42   O16   D    
C23   H18   S    
C21   C28   A    
C8    C44   S    
C41   H6    S    
C3    C5    A    
C3    C52   A    
C32   H15   S    
C20   C27   A    
C15   O27   A    
C5    N2    S    
C28   C30   A    
Cu1   N4    S    
C12   O23   A    
C11   C13   S    
C14   C50   S    
C45   C50   A    
C18   C20   A    
C48   H13   S    
C2    C51   A    
C34   H19   S    
Cu1   O27   S    
C38   C52   S    
C26   C29   A    
C8    C10   D    
C21   C24   A    
C15   O25   A    
C47   H11   S    
C43   H8    S    
