data_mof_unit_43528.cif
_audit_creation_date              2012-12-11T14:07:44-0500
_audit_creation_method            fapswitch 2.2
_symmetry_space_group_name_H-M    P1
_symmetry_Int_Tables_number       1
_space_group_crystal_system       triclinic
_cell_length_a                    19.71793
_cell_length_b                    16.891695
_cell_length_c                    15.463599
_cell_angle_alpha                 90.274323
_cell_angle_beta                  53.791215
_cell_angle_gamma                 89.981188
_cell_volume                      4155.66242442

loop_
_atom_site_label
_atom_site_type_symbol
_atom_type_description
_atom_site_fract_x
_atom_site_fract_y
_atom_site_fract_z
_atom_type_partial_charge
C1    C     C_R   0.372395 0.197451 0.998323 -0.128267
C2    C     C_R   0.712341 0.855540 0.977742 0.145165
C3    C     C_3   0.060253 0.775351 0.856472 -0.895863
C4    C     C_R   0.153730 0.683784 0.069438 0.159440
C5    C     C_R   0.212342 0.355540 0.977740 0.145165
C6    C     C_R   0.606773 0.812088 0.699887 -0.009512
C7    C     C_R   0.620453 0.183399 0.692692 0.054310
C8    C     C_R   0.106772 0.312089 0.699887 -0.009518
C9    C     C_R   0.120414 0.683413 0.692714 0.054340
C10   C     C_3   0.192817 0.126012 0.513069 -0.443676
C11   C     C_3   0.238339 0.835731 0.465609 -0.471367
C12   C     C_3   0.692811 0.626012 0.513068 -0.443659
C13   C     C_R   0.339934 0.825906 0.049954 -0.113363
C14   C     C_3   0.738361 0.335676 0.465539 -0.471399
C15   C     C_3   0.151200 0.170944 0.619767 0.317088
C16   C     C_3   0.162625 0.797938 0.565686 0.306098
C17   C     C_3   0.651194 0.670942 0.619766 0.317074
C18   C     C_3   0.662658 0.297893 0.565632 0.306085
C19   C     C_3   0.307913 0.230946 0.441404 -0.427445
C20   C     C_3   0.347518 0.761926 0.472431 -0.449220
C21   C     C_3   0.807912 0.730939 0.441408 -0.427450
C22   C     C_3   0.847537 0.261983 0.472467 -0.449305
C23   C     C_3   0.692031 0.740261 0.414679 -0.418228
C24   C     C_R   0.872393 0.697450 0.998325 -0.128260
C25   C     C_3   0.786677 0.198312 0.386318 -0.424338
C26   C     C_3   0.192028 0.240258 0.414681 -0.418224
C27   C     C_3   0.286563 0.698369 0.386330 -0.424286
C28   C     C_3   0.251092 0.183476 0.419856 0.253328
C29   C     C_3   0.314445 0.777668 0.405589 0.262722
C30   C     C_3   0.751091 0.683474 0.419855 0.253323
C31   C     C_3   0.814499 0.277649 0.405570 0.262734
C32   C     C_3   0.660478 0.764103 0.599118 0.169924
C33   C     C_3   0.691814 0.220209 0.590400 0.173999
C34   C     C_3   0.160478 0.264104 0.599118 0.169918
C35   C     C_R   0.839932 0.325909 0.049959 -0.113365
C36   C     C_3   0.191767 0.720227 0.590420 0.173979
C37   C     C_3   0.756548 0.791868 0.533256 0.613246
C38   C     C_3   0.775370 0.231600 0.586029 0.587430
C39   C     C_3   0.256547 0.291874 0.533253 0.613241
C40   C     C_3   0.275342 0.731568 0.586012 0.587368
C41   C     C_R   0.394502 0.801037 0.208547 -0.154776
C42   C     C_R   0.350339 0.172696 0.218340 -0.140381
C43   C     C_R   0.894529 0.301029 0.208535 -0.154762
C44   C     C_R   0.850339 0.672696 0.218339 -0.140380
C45   C     C_3   0.629323 0.777647 0.526768 -0.512394
C46   C     C_R   0.670130 0.918620 0.049014 -0.142407
C47   C     C_3   0.716778 0.163316 0.493971 -0.531328
C48   C     C_3   0.129319 0.277643 0.526771 -0.512393
C49   C     C_3   0.216686 0.663361 0.493989 -0.531352
C50   C     C_2   0.193455 0.740911 0.096267 -0.206739
C51   C     C_2   0.286758 0.317381 0.955991 -0.171274
C52   C     C_2   0.693456 0.240911 0.096266 -0.206732
C53   C     C_2   0.786756 0.817380 0.955994 -0.171266
C54   C     C_2   0.711931 0.313659 0.053301 -0.194788
C55   C     C_2   0.811885 0.747881 0.904072 -0.180924
C56   C     C_2   0.211931 0.813659 0.053301 -0.194787
C57   C     C_R   0.634564 0.105532 0.103769 -0.154373
C58   C     C_2   0.311887 0.247882 0.904069 -0.180906
C59   C     C_R   0.329224 0.913704 0.952507 -0.146426
C60   C     C_R   0.365556 0.111274 0.896714 -0.142506
C61   C     C_R   0.829223 0.413704 0.952509 -0.146425
C62   C     C_R   0.865554 0.611274 0.896715 -0.142516
C63   C     C_R   0.359360 0.079287 0.313192 -0.141859
C64   C     C_R   0.405162 0.892189 0.303597 -0.157222
C65   C     C_R   0.859357 0.579284 0.313192 -0.141862
C66   C     C_R   0.905194 0.392180 0.303580 -0.157214
C67   C     C_R   0.346196 0.187706 0.934287 0.145183
C68   C     C_R   0.170130 0.418620 0.049013 -0.142405
C69   C     C_R   0.287342 0.852984 0.025818 0.150240
C70   C     C_R   0.846194 0.687705 0.934290 0.145192
C71   C     C_R   0.787341 0.352986 0.025822 0.150243
C72   C     C_R   0.379407 0.816198 0.305668 0.063013
C73   C     C_R   0.309101 0.139700 0.319593 0.055337
C74   C     C_R   0.879461 0.316179 0.305645 0.062994
C75   C     C_R   0.809100 0.639698 0.319592 0.055344
C76   C     C_R   0.627135 0.199429 0.006803 -0.131545
C77   C     C_R   0.661916 0.824045 0.951018 -0.131498
C78   C     C_R   0.127137 0.699429 0.006802 -0.131540
C79   C     C_R   0.134564 0.605532 0.103769 -0.154378
C80   C     C_R   0.161917 0.324046 0.951017 -0.131496
C81   C     C_R   0.593788 0.798149 0.797586 0.307898
C82   C     C_R   0.599910 0.199968 0.793993 0.284934
C83   C     C_R   0.093788 0.298149 0.797586 0.307903
C84   C     C_R   0.099893 0.699972 0.794004 0.284920
C85   C     C_R   0.596059 0.105593 0.695835 -0.219287
C86   C     C_R   0.591217 0.892056 0.698392 -0.190116
C87   C     C_R   0.096035 0.605602 0.695850 -0.219284
C88   C     C_R   0.091216 0.392056 0.698393 -0.190108
C89   C     C_3   0.792509 0.796725 0.599860 -0.949144
C90   C     C_R   0.653729 0.183784 0.069438 0.159438
C91   C     C_3   0.766603 0.291734 0.668479 -0.971695
C92   C     C_3   0.292511 0.296736 0.599854 -0.949127
C93   C     C_3   0.266614 0.791695 0.668444 -0.971666
C94   C     C_3   0.772680 0.876384 0.483387 -1.013465
C95   C     C_3   0.804546 0.152287 0.605662 -0.988395
C96   C     C_3   0.272673 0.376390 0.483384 -1.013477
C97   C     C_3   0.304488 0.652233 0.605644 -0.988356
C98   C     C_3   0.551935 0.726003 0.866395 -0.900928
C99   C     C_3   0.560256 0.275351 0.856447 -0.895860
C100  C     C_3   0.051933 0.226003 0.866395 -0.900929
Cl1   Cl    Cl    0.194390 0.128596 0.684030 -0.723019
Cl2   Cl    Cl    0.107050 0.873224 0.665844 -0.699651
Cl3   Cl    Cl    0.694378 0.628587 0.684033 -0.723033
Cl4   Cl    Cl    0.607069 0.373191 0.665765 -0.699658
H1    H     H_    0.378414 0.252723 0.028405 0.088635
H2    H     H_    0.617192 0.281123 0.548222 0.103998
H3    H     H_    0.606078 0.323178 0.833149 0.280263
H4    H     H_    0.510745 0.294912 0.848079 0.287894
H5    H     H_    0.527789 0.265022 0.943136 0.205700
H6    H     H_    0.022207 0.188982 0.838266 0.250002
H7    H     H_    0.096341 0.191213 0.872600 0.282201
H8    H     H_    0.000749 0.243465 0.949701 0.217432
H9    H     H_    0.106089 0.823164 0.833177 0.280266
H10   H     H_    0.010741 0.794929 0.848115 0.287902
H11   H     H_    0.027786 0.765012 0.943159 0.205700
H12   H     H_    0.083455 0.155413 0.669659 0.093894
H13   H     H_    0.117154 0.781200 0.548270 0.104013
H14   H     H_    0.339320 0.187948 0.461700 0.183143
H15   H     H_    0.376562 0.816705 0.477064 0.152577
H16   H     H_    0.839316 0.687939 0.461705 0.183143
H17   H     H_    0.876498 0.316797 0.477137 0.152617
H18   H     H_    0.728509 0.787194 0.354319 0.166736
H19   H     H_    0.840631 0.156249 0.341816 0.172529
H20   H     H_    0.228503 0.287192 0.354322 0.166737
H21   H     H_    0.330579 0.776798 0.099744 0.087086
H22   H     H_    0.340501 0.656283 0.341763 0.172486
H23   H     H_    0.656972 0.707709 0.389875 0.170022
H24   H     H_    0.762267 0.207461 0.337974 0.166486
H25   H     H_    0.156970 0.207702 0.389880 0.170019
H26   H     H_    0.262111 0.707584 0.338036 0.166480
H27   H     H_    0.566412 0.750105 0.565330 0.172591
H28   H     H_    0.661704 0.153204 0.492330 0.166647
H29   H     H_    0.066410 0.250096 0.565336 0.172590
H30   H     H_    0.161588 0.653267 0.492393 0.166652
H31   H     H_    0.620668 0.840485 0.515582 0.184769
H32   H     H_    0.878411 0.752722 0.028407 0.088634
H33   H     H_    0.736719 0.103743 0.501087 0.199242
H34   H     H_    0.120659 0.340480 0.515588 0.184767
H35   H     H_    0.236630 0.603780 0.501069 0.199232
H36   H     H_    0.359963 0.260684 0.366875 0.159593
H37   H     H_    0.400404 0.718612 0.428358 0.163750
H38   H     H_    0.859965 0.760676 0.366879 0.159595
H39   H     H_    0.900464 0.218723 0.428427 0.163767
H40   H     H_    0.391171 0.744554 0.178187 0.090551
H41   H     H_    0.332302 0.224917 0.196674 0.093590
H42   H     H_    0.891206 0.244547 0.178168 0.090551
H43   H     H_    0.830574 0.276805 0.099757 0.087090
H44   H     H_    0.832302 0.724916 0.196674 0.093590
H45   H     H_    0.220141 0.717587 0.135249 0.124027
H46   H     H_    0.307845 0.337766 0.003001 0.125025
H47   H     H_    0.720144 0.217585 0.135245 0.124030
H48   H     H_    0.807842 0.837764 0.003005 0.125027
H49   H     H_    0.682707 0.338282 0.018206 0.131432
H50   H     H_    0.793785 0.728735 0.853399 0.141715
H51   H     H_    0.182707 0.838281 0.018205 0.131433
H52   H     H_    0.293786 0.228735 0.853398 0.141719
H53   H     H_    0.307893 0.947737 0.913682 0.110599
H54   H     H_    0.143532 0.102915 0.505628 0.156964
H55   H     H_    0.363193 0.085764 0.834233 0.109466
H56   H     H_    0.807893 0.447736 0.913683 0.110596
H57   H     H_    0.863192 0.585764 0.834235 0.109461
H58   H     H_    0.352038 0.045570 0.377162 0.106961
H59   H     H_    0.406960 0.922334 0.364027 0.095092
H60   H     H_    0.852032 0.545562 0.377161 0.106965
H61   H     H_    0.906996 0.422330 0.364002 0.095091
H62   H     H_    0.624732 0.255556 0.976074 0.102919
H63   H     H_    0.674340 0.774542 0.899429 0.121512
H64   H     H_    0.124737 0.755556 0.976071 0.102919
H65   H     H_    0.220542 0.854361 0.412397 0.166095
H66   H     H_    0.174341 0.274543 0.899427 0.121516
H67   H     H_    0.593626 0.073562 0.637079 0.116276
H68   H     H_    0.589311 0.923853 0.639521 0.115953
H69   H     H_    0.093590 0.573574 0.637102 0.116276
H70   H     H_    0.089310 0.423852 0.639521 0.115954
H71   H     H_    0.691236 0.952595 0.088275 0.098498
H72   H     H_    0.638130 0.079300 0.164645 0.090674
H73   H     H_    0.191237 0.452596 0.088274 0.098497
H74   H     H_    0.138129 0.579300 0.164647 0.090675
H75   H     H_    0.225472 0.072244 0.511904 0.216036
H76   H     H_    0.643527 0.602918 0.505624 0.156968
H77   H     H_    0.256267 0.890274 0.488275 0.209066
H78   H     H_    0.725465 0.572242 0.511903 0.216041
H79   H     H_    0.756250 0.390254 0.488174 0.209099
H80   H     H_    0.794991 0.739963 0.632253 0.285361
H81   H     H_    0.858793 0.817308 0.548260 0.242368
H82   H     H_    0.757128 0.839972 0.666757 0.246095
H83   H     H_    0.739390 0.348707 0.667853 0.292286
H84   H     H_    0.731628 0.267064 0.750195 0.250545
H85   H     H_    0.829335 0.305513 0.649125 0.233889
H86   H     H_    0.295001 0.239976 0.632242 0.285360
H87   H     H_    0.720571 0.354234 0.412305 0.166088
H88   H     H_    0.358791 0.317327 0.548253 0.242375
H89   H     H_    0.257126 0.339980 0.666753 0.246094
H90   H     H_    0.239431 0.848684 0.667807 0.292257
H91   H     H_    0.231627 0.767037 0.750171 0.250535
H92   H     H_    0.329355 0.805433 0.649079 0.233890
H93   H     H_    0.841119 0.889508 0.431553 0.244769
H94   H     H_    0.751615 0.884094 0.431850 0.237955
H95   H     H_    0.743529 0.923490 0.545534 0.255493
H96   H     H_    0.859645 0.162421 0.607009 0.252846
H97   H     H_    0.754433 0.125653 0.683517 0.251804
H98   H     H_    0.583448 0.655416 0.669656 0.093888
H99   H     H_    0.825024 0.108028 0.541444 0.237183
H100  H     H_    0.341111 0.389515 0.431541 0.244770
H101  H     H_    0.251600 0.384099 0.431856 0.237955
H102  H     H_    0.243528 0.423496 0.545530 0.255501
H103  H     H_    0.359609 0.662340 0.606951 0.252845
H104  H     H_    0.254377 0.625616 0.683520 0.251816
H105  H     H_    0.324927 0.607973 0.541437 0.237167
H106  H     H_    0.522210 0.688982 0.838264 0.250007
H107  H     H_    0.596343 0.691214 0.872599 0.282198
H108  H     H_    0.500750 0.743464 0.949700 0.217433
N1    N     N_R   0.408680 0.130160 0.995800 -0.038992
N2    N     N_R   0.403730 0.078230 0.935950 -0.038753
N3    N     N_R   0.903730 0.421770 0.935950 -0.039695
N4    N     N_R   0.903730 0.578230 0.935950 -0.038751
N5    N     N_R   0.426630 0.075970 0.212960 -0.038493
N6    N     N_R   0.426630 0.924030 0.212960 -0.032584
N7    N     N_R   0.926630 0.575970 0.212960 -0.038495
N8    N     N_R   0.926630 0.424030 0.212960 -0.032586
N9    N     N_R   0.591320 0.134600 0.004200 -0.048319
N10   N     N_R   0.591320 0.865400 0.004200 -0.045668
N11   N     N_R   0.091320 0.634600 0.004200 -0.048316
N12   N     N_R   0.408680 0.869840 0.995800 -0.047563
N13   N     N_R   0.091320 0.365400 0.004200 -0.045667
N14   N     N_R   0.578320 0.867660 0.846880 -0.063323
N15   N     N_R   0.578320 0.132340 0.846880 -0.062096
N16   N     N_R   0.078320 0.367660 0.846880 -0.063324
N17   N     N_R   0.078320 0.632340 0.846880 -0.062100
N18   N     N_R   0.573370 0.074390 0.787040 -0.047209
N19   N     N_R   0.573370 0.925610 0.787040 -0.049961
N20   N     N_R   0.073370 0.574390 0.787040 -0.047214
N21   N     N_R   0.073370 0.425610 0.787040 -0.049961
N22   N     N_R   0.596270 0.927870 0.064040 -0.040604
N23   N     N_R   0.908680 0.630160 0.995800 -0.038991
N24   N     N_R   0.596270 0.072130 0.064040 -0.039407
N25   N     N_R   0.096270 0.427870 0.064040 -0.040602
N26   N     N_R   0.096270 0.572130 0.064040 -0.039406
N27   N     N_R   0.908680 0.369840 0.995800 -0.047563
N28   N     N_R   0.421680 0.867580 0.153120 -0.036522
N29   N     N_R   0.421680 0.132420 0.153120 -0.040174
N30   N     N_R   0.921680 0.367580 0.153120 -0.036525
N31   N     N_R   0.921680 0.632420 0.153120 -0.040175
N32   N     N_R   0.403730 0.921770 0.935950 -0.039696
Ni1   Ni    Ni4+2 0.500000 0.131190 0.000000 0.202714
Ni2   Ni    Ni4+2 0.500000 0.868810 0.000000 0.206159
Ni3   Ni    Ni4+2 0.000000 0.631190 0.000000 0.202715
Ni4   Ni    Ni4+2 0.000000 0.368810 0.000000 0.206160
Ni5   Ni    Ni4+2 0.488650 0.000000 0.862740 0.208590
Ni6   Ni    Ni4+2 0.988650 0.500000 0.862740 0.208583
Ni7   Ni    Ni4+2 0.511350 0.000000 0.137260 0.211744
Ni8   Ni    Ni4+2 0.011350 0.500000 0.137260 0.211743

loop_
_geom_bond_atom_site_label_1
_geom_bond_atom_site_label_2
_ccdc_geom_bond_type
C25   C31   S    
C63   H58   S    
C6    C32   S    
C49   H30   S    
N20   Ni6   S    
C100  H6    S    
C23   C45   S    
C10   C28   S    
C55   H50   S    
C8    C83   A    
N13   N25   A    
C89   H82   S    
C14   C18   S    
C52   C90   S    
C93   H90   S    
C11   H77   S    
C60   H55   S    
C80   H66   S    
C40   C93   S    
C91   H84   S    
C54   H49   S    
C18   H2    S    
C14   H79   S    
C24   C70   A    
C43   H42   S    
N1    N2    A    
C2    C46   A    
C99   H4    S    
C98   H106  S    
C85   H67   S    
C98   H107  S    
C97   H105  S    
C86   H68   S    
C86   N19   A    
C46   N22   A    
C25   H24   S    
C21   H38   S    
N17   N20   A    
C10   C15   S    
C5    C68   A    
C82   C99   S    
C20   C40   S    
C27   H22   S    
C62   H57   S    
C27   C29   S    
C81   C98   S    
C95   H99   S    
C87   N20   A    
C66   C74   A    
C68   H73   S    
C88   H70   S    
C62   C70   A    
C94   H95   S    
N6    Ni7   S    
C59   N32   A    
C13   C69   A    
C60   N2    A    
C66   N8    A    
C1    C67   A    
C12   H78   S    
C54   C71   S    
C59   H53   S    
C60   C67   A    
C92   H86   S    
C19   H36   S    
C38   C95   S    
N3    Ni6   S    
N25   Ni8   S    
C76   H62   S    
N6    N28   A    
C80   N13   A    
N18   Ni5   S    
C14   C31   S    
C15   C34   S    
C26   C48   S    
C78   N11   A    
C20   C29   S    
C29   C72   S    
C12   C30   S    
C61   C71   A    
C43   C74   A    
C35   C71   A    
C6    C81   A    
N28   Ni2   S    
C57   C90   A    
C7    C33   S    
C93   H91   S    
C26   H20   S    
C56   H51   S    
C92   H88   S    
C28   C73   S    
C96   H100  S    
N23   Ni3   S    
N32   Ni5   S    
C52   C54   D    
N21   Ni6   S    
N14   Ni2   S    
C23   H18   S    
N5    N29   A    
C83   N16   A    
C53   C55   D    
C43   N30   A    
C87   H69   S    
C45   H31   S    
C45   H27   S    
C22   C31   S    
C34   C39   S    
C2    C53   S    
C23   C30   S    
C48   H29   S    
C36   C40   S    
C35   N27   A    
C51   H46   S    
C41   H40   S    
C92   H89   S    
C3    H9    S    
C61   H56   S    
C40   C97   S    
C65   N7    A    
N12   N32   A    
C31   C74   S    
C35   H43   S    
C63   C73   A    
N11   Ni3   S    
C95   H96   S    
C98   H108  S    
C38   C91   S    
C3    H10   S    
N30   Ni4   S    
C4    C50   S    
N27   Ni4   S    
C8    C88   A    
C22   H39   S    
C44   C75   A    
C89   H80   S    
C4    C78   A    
C84   N17   A    
N15   Ni1   S    
C57   H72   S    
C91   H85   S    
C11   C16   S    
C77   N10   A    
C96   H102  S    
C47   H33   S    
N2    Ni5   S    
C18   Cl4   S    
C79   H74   S    
C21   C37   S    
C51   C58   D    
C8    C34   S    
C32   C37   S    
C15   Cl1   S    
C5    C80   A    
N1    Ni1   S    
C19   C28   S    
C25   H19   S    
C11   C29   S    
N16   N21   A    
C26   H25   S    
C19   C39   S    
C4    C79   A    
C41   C72   A    
C14   H87   S    
N12   Ni2   S    
C12   H76   S    
C59   C69   A    
C11   H65   S    
N31   Ni3   S    
N7    Ni8   S    
C49   H35   S    
N9    N24   A    
C1    N1    A    
C53   H48   S    
N29   Ni1   S    
C93   H92   S    
N3    N27   A    
N15   N18   A    
C10   H75   S    
N24   Ni7   S    
N8    N30   A    
N19   Ni5   S    
C39   C92   S    
C27   H26   S    
C57   N24   A    
C22   H17   S    
C23   H23   S    
C21   C30   S    
C16   Cl2   S    
C17   C32   S    
C10   H54   S    
C25   C47   S    
N10   N22   A    
C42   C73   A    
C66   H61   S    
N26   Ni8   S    
C15   H12   S    
C78   H64   S    
C20   H37   S    
C85   N18   A    
N11   N26   A    
C65   C75   A    
N22   Ni7   S    
C100  H8    S    
C83   C100  S    
N16   Ni4   S    
C64   N6    A    
C76   N9    A    
C77   H63   S    
C99   H3    S    
C82   N15   A    
C47   H28   S    
C42   N29   A    
C26   C28   S    
C33   C38   S    
C6    C86   A    
C48   H34   S    
C88   N21   A    
C68   N25   A    
C94   H93   S    
C89   H81   S    
N5    Ni7   S    
C63   N5    A    
C99   H5    S    
N8    Ni8   S    
C17   Cl3   S    
C13   H21   S    
C24   N23   A    
C3    H11   S    
C95   H97   S    
C9    C87   A    
C12   C17   S    
C9    C36   S    
C30   C75   S    
N10   Ni2   S    
C50   H45   S    
C24   H32   S    
C96   H101  S    
C7    C85   A    
N9    Ni1   S    
N13   Ni4   S    
C52   H47   S    
C33   C47   S    
C65   H60   S    
C62   N4    A    
C81   N14   A    
C44   H44   S    
C37   C89   S    
N7    N31   A    
C37   C94   S    
C64   C72   A    
C97   H104  S    
C22   C38   S    
C17   H98   S    
C32   C45   S    
C18   C33   S    
C50   C56   D    
C39   C96   S    
C55   C70   S    
C9    C84   A    
C58   H52   S    
N17   Ni3   S    
C27   C49   S    
C58   C67   S    
C7    C82   A    
C34   C48   S    
C97   H103  S    
C100  H7    S    
N4    Ni6   S    
C56   C69   S    
C76   C90   A    
C3    C84   S    
C19   H14   S    
N4    N23   A    
C2    C77   A    
C46   H71   S    
C5    C51   S    
C61   N3    A    
C13   N12   A    
C79   N26   A    
C94   H94   S    
C16   H13   S    
C42   H41   S    
C91   H83   S    
C21   H16   S    
C20   H15   S    
C16   C36   S    
C36   C49   S    
N14   N19   A    
C44   N31   A    
C1    H1    S    
C41   N28   A    
C64   H59   S    
