data_mof_unit_48930.cif
_audit_creation_date              2012-12-10T17:09:15-0500
_audit_creation_method            fapswitch 2.2
_symmetry_space_group_name_H-M    P1
_symmetry_Int_Tables_number       1
_space_group_crystal_system       triclinic
_cell_length_a                    18.050226
_cell_length_b                    18.676379
_cell_length_c                    11.688348
_cell_angle_alpha                 90.157403
_cell_angle_beta                  75.945912
_cell_angle_gamma                 90.006541
_cell_volume                      3822.3322961

loop_
_atom_site_label
_atom_site_type_symbol
_atom_type_description
_atom_site_fract_x
_atom_site_fract_y
_atom_site_fract_z
_atom_type_partial_charge
C1    C     C_R   0.402734 0.103384 0.521315 0.843110
C2    C     C_R   0.599792 0.898630 0.478180 0.844443
C3    C     C_R   0.597153 0.103443 0.478860 0.844058
C4    C     C_R   0.400616 0.898453 0.521300 0.834547
C5    C     C_R   0.902725 0.603393 0.521350 0.833493
C6    C     C_R   0.099801 0.398645 0.478192 0.848840
C7    C     C_R   0.096617 0.603712 0.479210 0.824718
C8    C     C_R   0.900223 0.398659 0.521643 0.847127
C9    C     C_R   0.536750 0.996473 0.961862 -0.084634
C10   C     C_R   0.463131 0.996749 0.038204 -0.082684
C11   C     C_R   0.036871 0.496860 0.961778 -0.081136
C12   C     C_R   0.963250 0.496404 0.038115 -0.088812
C13   C     C_R   0.409496 0.997669 0.865364 0.019339
C14   C     C_R   0.590452 0.996674 0.134583 0.021550
C15   C     C_R   0.909562 0.496418 0.865378 0.021882
C16   C     C_R   0.090493 0.497730 0.134645 0.015941
C17   C     C_R   0.399676 0.994053 0.987678 -0.330814
C18   C     C_R   0.600179 0.992744 0.012278 -0.318874
C19   C     C_R   0.899838 0.492508 0.987657 -0.317184
C20   C     C_R   0.100322 0.494098 0.012332 -0.310372
C21   C     C_R   0.544351 0.996865 0.837138 0.655414
C22   C     C_R   0.455569 0.996710 0.162941 0.652780
C23   C     C_R   0.044415 0.496944 0.837008 0.656387
C24   C     C_R   0.955653 0.496707 0.162843 0.655878
C25   C     C_R   0.646283 0.167331 0.465735 -0.239957
C26   C     C_R   0.344896 0.840168 0.534392 -0.256909
C27   C     C_R   0.353390 0.167153 0.534498 -0.240112
C28   C     C_R   0.657690 0.842020 0.463566 -0.236576
C29   C     C_R   0.145463 0.667611 0.467263 -0.262518
C30   C     C_R   0.842426 0.342033 0.536070 -0.234258
C31   C     C_R   0.853327 0.667155 0.534756 -0.243866
C32   C     C_R   0.157549 0.341911 0.463662 -0.235206
C33   C     C_R   0.248790 0.763987 0.659015 0.447741
C34   C     C_R   0.734357 0.251613 0.343868 0.434679
C35   C     C_R   0.763239 0.775214 0.339497 0.424841
C36   C     C_R   0.265169 0.251734 0.656216 0.434587
C37   C     C_R   0.737862 0.274648 0.660583 0.424162
C38   C     C_R   0.233774 0.751309 0.345385 0.447552
C39   C     C_R   0.262043 0.273980 0.339348 0.424433
C40   C     C_R   0.763955 0.750716 0.656844 0.434044
C41   C     C_R   0.313447 0.808264 0.645353 0.358266
C42   C     C_R   0.678821 0.197661 0.353819 0.373901
C43   C     C_R   0.696611 0.816661 0.350704 0.399654
C44   C     C_R   0.320730 0.197782 0.646365 0.372976
C45   C     C_R   0.804531 0.316065 0.648827 0.398674
C46   C     C_R   0.175043 0.700775 0.356751 0.369991
C47   C     C_R   0.195596 0.315726 0.350918 0.398238
C48   C     C_R   0.819787 0.697018 0.646897 0.377639
C49   C     C_R   0.319924 0.819092 0.435391 -0.267626
C50   C     C_R   0.660065 0.199146 0.566932 -0.311289
C51   C     C_R   0.678164 0.817243 0.564152 -0.291596
C52   C     C_R   0.339552 0.198535 0.433212 -0.310631
C53   C     C_R   0.820965 0.317866 0.435767 -0.288546
C54   C     C_R   0.164411 0.694928 0.567831 -0.300360
C55   C     C_R   0.178746 0.317801 0.564064 -0.288538
C56   C     C_R   0.840269 0.699295 0.433547 -0.323769
C57   C     C_R   0.259701 0.771179 0.445670 -0.083050
C58   C     C_R   0.717700 0.249890 0.558199 -0.048343
C59   C     C_R   0.740910 0.772435 0.555023 -0.067994
C60   C     C_R   0.281996 0.249367 0.441819 -0.048701
C61   C     C_R   0.758289 0.272949 0.445276 -0.068793
C62   C     C_R   0.223197 0.744433 0.558358 -0.052926
C63   C     C_R   0.241348 0.272784 0.554700 -0.069336
C64   C     C_R   0.782501 0.749934 0.442114 -0.046392
Cu1   Cu    Cu3+1 0.507800 0.000000 0.383250 0.979533
Cu2   Cu    Cu3+1 0.492200 0.000000 0.616750 0.982913
Cu3   Cu    Cu3+1 0.007800 0.500000 0.383250 0.981229
Cu4   Cu    Cu3+1 0.992200 0.500000 0.616750 0.979685
H1    H     H_    0.639929 0.995396 0.171407 0.190026
H2    H     H_    0.360025 0.996962 0.828494 0.187053
H3    H     H_    0.139959 0.496977 0.171530 0.186022
H4    H     H_    0.860091 0.494997 0.828538 0.189841
H5    H     H_    0.629061 0.181028 0.652861 0.209804
H6    H     H_    0.346682 0.841483 0.350001 0.246770
H7    H     H_    0.370506 0.180053 0.347275 0.210038
H8    H     H_    0.644645 0.833178 0.650304 0.235306
H9    H     H_    0.135750 0.674818 0.653512 0.213649
H10   H     H_    0.853665 0.334336 0.349566 0.237670
H11   H     H_    0.872071 0.681575 0.347618 0.210938
H12   H     H_    0.145955 0.334456 0.650270 0.238814
H13   H     H_    0.342196 0.988825 0.040600 0.175517
H14   H     H_    0.657519 0.986298 0.959176 0.176314
H15   H     H_    0.842523 0.485932 0.040705 0.176863
H16   H     H_    0.157813 0.488632 0.959483 0.174530
N1    N     N_R   0.519530 0.000000 0.207810 -0.235934
N2    N     N_R   0.480470 0.000000 0.792190 -0.231497
N3    N     N_R   0.019530 0.500000 0.207810 -0.232666
N4    N     N_R   0.980470 0.500000 0.792190 -0.235507
O1    O     O_R   0.430030 0.075530 0.417420 -0.595575
O2    O     O_R   0.569970 0.924470 0.582580 -0.552638
O3    O     O_R   0.569970 0.075530 0.582580 -0.593924
O4    O     O_R   0.430030 0.924470 0.417420 -0.552264
O5    O     O_R   0.930030 0.575530 0.417420 -0.586969
O6    O     O_R   0.069970 0.424470 0.582580 -0.555102
O7    O     O_R   0.069970 0.575530 0.582580 -0.589573
O8    O     O_R   0.930030 0.424470 0.417420 -0.556479
O9    O     O_R   0.416860 0.075510 0.614610 -0.541376
O10   O     O_R   0.583140 0.924490 0.385390 -0.547467
O11   O     O_R   0.583140 0.075510 0.385390 -0.540537
O12   O     O_R   0.416860 0.924490 0.614610 -0.552993
O13   O     O_R   0.916860 0.575510 0.614610 -0.540002
O14   O     O_R   0.083140 0.424490 0.385390 -0.546260
O15   O     O_R   0.083140 0.575510 0.385390 -0.551511
O16   O     O_R   0.916860 0.424490 0.614610 -0.546777
O17   O     O_3   0.385292 0.983509 0.239730 -0.570284
C65   C     C_3   0.337189 0.044076 0.251256 -0.330785
H17   H     H_    0.366601 0.093432 0.210940 0.135582
H18   H     H_    0.312151 0.054265 0.346193 0.202794
H19   H     H_    0.287864 0.032671 0.213247 0.143404
O18   O     O_3   0.614901 0.985533 0.759967 -0.572954
C66   C     C_3   0.661441 0.047037 0.751467 -0.341995
H20   H     H_    0.630243 0.095897 0.791115 0.139360
H21   H     H_    0.687898 0.057522 0.657147 0.204229
H22   H     H_    0.709869 0.036844 0.791991 0.143800
O19   O     O_3   0.885157 0.485077 0.239869 -0.573341
C67   C     C_3   0.838377 0.546496 0.249374 -0.336131
H23   H     H_    0.869443 0.595502 0.210753 0.139619
H24   H     H_    0.811790 0.556673 0.343857 0.204194
H25   H     H_    0.790075 0.536407 0.208459 0.141823
O20   O     O_3   0.114601 0.483807 0.759943 -0.573969
C68   C     C_3   0.163331 0.543736 0.750765 -0.344540
H26   H     H_    0.134891 0.592788 0.795002 0.151850
H27   H     H_    0.187637 0.555263 0.656214 0.206443
H28   H     H_    0.213189 0.530488 0.786388 0.143027
O21   O     O_3   0.659255 0.171955 0.253561 -0.547981
C69   C     C_3   0.609140 0.220709 0.217670 0.107389
H29   H     H_    0.642723 0.256117 0.148003 0.176803
H30   H     H_    0.575288 0.254298 0.291301 0.109283
C70   C     C_3   0.552701 0.180080 0.164092 -0.796908
H31   H     H_    0.516330 0.218489 0.129966 0.209489
H32   H     H_    0.583700 0.145961 0.090057 0.240587
H33   H     H_    0.515282 0.146289 0.232021 0.265099
O22   O     O_3   0.342473 0.823158 0.742173 -0.551654
C71   C     C_3   0.409929 0.782287 0.732950 0.058964
H34   H     H_    0.455204 0.797167 0.653628 0.138805
H35   H     H_    0.398487 0.723965 0.727652 0.110142
C72   C     C_3   0.440939 0.795402 0.841160 -0.724998
H36   H     H_    0.396955 0.782143 0.922666 0.248077
H37   H     H_    0.492055 0.761405 0.836546 0.202737
H38   H     H_    0.457723 0.852281 0.844770 0.255104
O23   O     O_3   0.340235 0.172384 0.746644 -0.548978
C73   C     C_3   0.390410 0.221199 0.782560 0.107414
H39   H     H_    0.356881 0.256682 0.852535 0.177336
H40   H     H_    0.424123 0.254712 0.709045 0.109133
C74   C     C_3   0.447034 0.180666 0.835617 -0.797197
H41   H     H_    0.483531 0.219135 0.869614 0.209475
H42   H     H_    0.416187 0.146728 0.909651 0.240812
H43   H     H_    0.484308 0.146696 0.767447 0.265110
O24   O     O_3   0.672637 0.835961 0.250934 -0.558313
C75   C     C_3   0.626466 0.780676 0.220740 0.043385
H44   H     H_    0.636952 0.726635 0.254124 0.102926
H45   H     H_    0.639853 0.776692 0.123059 0.176531
C76   C     C_3   0.541581 0.797657 0.262736 -0.735156
H46   H     H_    0.528976 0.850432 0.228503 0.273733
H47   H     H_    0.507969 0.756255 0.229224 0.200891
H48   H     H_    0.523706 0.797319 0.360501 0.211368
O25   O     O_3   0.149838 0.682393 0.257718 -0.542222
C77   C     C_3   0.079395 0.717412 0.263406 0.102698
H49   H     H_    0.083357 0.776072 0.278074 0.109220
H50   H     H_    0.033328 0.695599 0.335978 0.143768
C78   C     C_3   0.056238 0.706112 0.147870 -0.765056
H51   H     H_    0.000776 0.733030 0.151987 0.214937
H52   H     H_    0.100253 0.728973 0.073651 0.254418
H53   H     H_    0.049904 0.648123 0.131824 0.242966
O26   O     O_3   0.829642 0.334599 0.748083 -0.558514
C79   C     C_3   0.876771 0.279174 0.774979 0.044527
H54   H     H_    0.866254 0.225400 0.740208 0.102850
H55   H     H_    0.864503 0.274297 0.872434 0.176352
C80   C     C_3   0.961371 0.296779 0.731502 -0.737871
H56   H     H_    0.973918 0.349358 0.766915 0.274692
H57   H     H_    0.995838 0.255268 0.762707 0.199930
H58   H     H_    0.978239 0.297207 0.633691 0.212021
O27   O     O_3   0.838838 0.671208 0.747263 -0.547267
C81   C     C_3   0.888154 0.720190 0.784877 0.103309
H59   H     H_    0.853923 0.754877 0.855422 0.176291
H60   H     H_    0.921684 0.754554 0.712420 0.104846
C82   C     C_3   0.944999 0.679768 0.837604 -0.795306
H61   H     H_    0.980533 0.718311 0.873419 0.208195
H62   H     H_    0.914322 0.644826 0.910327 0.240627
H63   H     H_    0.983184 0.646868 0.768783 0.265514
O28   O     O_3   0.170934 0.334442 0.251496 -0.557661
C83   C     C_3   0.123919 0.279184 0.223460 0.046005
H64   H     H_    0.134184 0.225341 0.257793 0.102549
H65   H     H_    0.136574 0.274397 0.125919 0.176753
C84   C     C_3   0.039297 0.296977 0.266390 -0.738506
H66   H     H_    0.026986 0.349632 0.231398 0.274117
H67   H     H_    0.004946 0.255597 0.234350 0.200133
H68   H     H_    0.022069 0.297345 0.364191 0.212272
O29   O     O_3   0.684760 0.270354 0.768422 -0.566565
C85   C     C_3   0.706432 0.218947 0.842099 -0.328722
H69   H     H_    0.742222 0.174797 0.793288 0.118309
H70   H     H_    0.653842 0.194683 0.897315 0.177968
H71   H     H_    0.735316 0.245521 0.904152 0.204282
O30   O     O_3   0.271749 0.774223 0.233893 -0.562221
C86   C     C_3   0.241468 0.840542 0.209351 -0.304847
H72   H     H_    0.285651 0.868572 0.141740 0.205526
H73   H     H_    0.225487 0.876840 0.287411 0.146232
H74   H     H_    0.191675 0.831732 0.171144 0.180098
O31   O     O_3   0.315160 0.269237 0.231560 -0.565970
C87   C     C_3   0.293774 0.217067 0.158418 -0.329973
H75   H     H_    0.257839 0.173275 0.207614 0.117707
H76   H     H_    0.346497 0.192449 0.103925 0.178089
H77   H     H_    0.265101 0.242977 0.095695 0.203883
O32   O     O_3   0.728359 0.776793 0.767743 -0.572070
C88   C     C_3   0.755984 0.846418 0.781693 -0.351487
H78   H     H_    0.742442 0.859418 0.877205 0.197673
H79   H     H_    0.727651 0.887228 0.738395 0.214683
H80   H     H_    0.818958 0.851300 0.747368 0.123705
O33   O     O_3   0.204387 0.747217 0.770472 -0.577345
C89   C     C_3   0.242520 0.698359 0.828152 -0.307814
H81   H     H_    0.277100 0.658195 0.767108 0.118213
H82   H     H_    0.199179 0.668744 0.894590 0.180305
H83   H     H_    0.277768 0.727232 0.878740 0.228563
O34   O     O_3   0.768864 0.278304 0.233186 -0.570703
C90   C     C_3   0.740564 0.347915 0.221577 -0.348868
H84   H     H_    0.753447 0.361544 0.126453 0.198291
H85   H     H_    0.768903 0.388580 0.265477 0.212512
H86   H     H_    0.677615 0.352330 0.256864 0.124026
O35   O     O_3   0.817044 0.771396 0.232297 -0.569203
C91   C     C_3   0.796748 0.719499 0.157680 -0.335235
H87   H     H_    0.760674 0.675387 0.205563 0.120183
H88   H     H_    0.849944 0.695268 0.103954 0.177065
H89   H     H_    0.768629 0.745621 0.094451 0.203312
O36   O     O_3   0.230619 0.278810 0.766862 -0.570494
C92   C     C_3   0.259003 0.348427 0.778466 -0.348246
H90   H     H_    0.245278 0.362765 0.873469 0.199100
H91   H     H_    0.231474 0.388846 0.733215 0.212021
H92   H     H_    0.322065 0.352417 0.744470 0.123350

loop_
_geom_bond_atom_site_label_1
_geom_bond_atom_site_label_2
_ccdc_geom_bond_type
Cu1   O4    S    
C6    C32   S    
C85   H69   S    
C7    C29   S    
O22   C71   S    
Cu3   O14   S    
C80   H56   S    
C14   C18   A    
C30   C45   A    
C37   O29   S    
C66   H20   S    
C8    O8    A    
C47   O28   S    
C52   H7    S    
O36   C92   S    
C74   H43   S    
C71   C72   S    
C91   H88   S    
C21   O18   S    
Cu3   O15   S    
C57   C62   A    
Cu2   O2    S    
C88   H78   S    
C10   C22   A    
Cu1   O1    S    
C15   H4    S    
C72   H37   S    
C59   C64   A    
O26   C79   S    
C56   H11   S    
C60   C63   A    
Cu2   O9    S    
C32   C47   A    
C92   H90   S    
Cu1   O10   S    
C33   C62   A    
C90   H85   S    
C28   C51   A    
C84   H67   S    
C29   C54   A    
C10   C17   A    
O19   C67   S    
C86   H73   S    
C92   H92   S    
C49   C57   A    
C67   H23   S    
C3    O3    A    
C22   N1    A    
Cu2   O12   S    
C2    O2    A    
C81   H59   S    
C68   H28   S    
C5    C31   S    
C52   C60   A    
C85   H71   S    
C74   H42   S    
C25   C50   A    
C53   C61   A    
C27   C44   A    
O25   C77   S    
C40   O32   S    
C85   H70   S    
C87   H75   S    
C82   H62   S    
C75   C76   S    
C55   C63   A    
C13   N2    A    
C16   N3    A    
C69   H30   S    
C56   C64   A    
C35   C64   A    
C31   C56   A    
C76   H47   S    
C36   C63   A    
C35   C43   A    
C9    C10   A    
C36   O36   S    
C32   C55   A    
C17   H13   S    
C37   C58   A    
C77   C78   S    
C86   H74   S    
C58   C61   A    
O30   C86   S    
O31   C87   S    
C40   C59   A    
C7    O15   A    
C77   H50   S    
C80   H57   S    
C73   C74   S    
C16   H3    S    
C33   O33   S    
C70   H33   S    
C19   H15   S    
C18   H14   S    
C41   O22   S    
C91   H87   S    
C78   H52   S    
C74   H41   S    
C83   H65   S    
C88   H79   S    
C72   H38   S    
C5    O13   A    
C11   C20   A    
C34   C42   A    
Cu4   O7    S    
C68   H27   S    
Cu3   Cu4   S    
C50   C58   A    
C3    C25   S    
C79   H55   S    
C51   H8    S    
Cu1   O11   S    
C66   H21   S    
C34   O34   S    
C90   H86   S    
C1    O9    A    
O35   C91   S    
O34   C90   S    
C44   O23   S    
C84   H68   S    
C71   H35   S    
C54   C62   A    
C69   C70   S    
C6    O6    A    
O28   C83   S    
C46   O25   S    
C34   C61   A    
Cu4   O6    S    
C38   O30   S    
C35   O35   S    
C83   C84   S    
C77   H49   S    
C15   C19   A    
C90   H84   S    
C38   C57   A    
C4    C26   S    
C16   C20   A    
C82   H63   S    
O21   C69   S    
O33   C89   S    
O20   C68   S    
O18   C66   S    
C30   C53   A    
Cu4   O13   S    
C76   H48   S    
C8    O16   A    
C81   C82   S    
C68   H26   S    
C71   H34   S    
C79   C80   S    
C13   H2    S    
Cu1   Cu2   S    
C89   H82   S    
C23   N4    A    
C4    O12   A    
Cu3   O8    S    
Cu4   N4    S    
C14   H1    S    
C75   H45   S    
C26   C49   A    
C51   C59   A    
C37   C45   A    
C89   H83   S    
C23   O20   S    
C78   H53   S    
C27   C52   A    
C39   C47   A    
C70   H31   S    
O17   C65   S    
C88   H80   S    
C40   C48   A    
C39   O31   S    
C21   N2    A    
C1    O1    A    
C73   H39   S    
C42   O21   S    
Cu4   O16   S    
C14   N1    A    
C43   O24   S    
C25   C42   A    
Cu2   N2    S    
C5    O5    A    
C11   C12   A    
Cu1   N1    S    
Cu2   O3    S    
C22   O17   S    
C7    O7    A    
C72   H36   S    
C12   C24   A    
C28   C43   A    
Cu3   N3    S    
C75   H44   S    
C67   H25   S    
C13   C17   A    
C29   C46   A    
C31   C48   A    
C8    C30   S    
C54   H9    S    
C20   H16   S    
C53   H10   S    
C87   H77   S    
C33   C41   A    
C78   H51   S    
O24   C75   S    
Cu3   O5    S    
C55   H12   S    
C9    C21   A    
C84   H66   S    
C79   H54   S    
C65   H18   S    
C69   H29   S    
C39   C60   A    
C50   H5    S    
C12   C19   A    
C11   C23   A    
C92   H91   S    
C67   H24   S    
C48   O27   S    
C66   H22   S    
C73   H40   S    
C6    O14   A    
O29   C85   S    
C24   N3    A    
C81   H60   S    
C38   C46   A    
C36   C44   A    
C82   H61   S    
O27   C81   S    
C86   H72   S    
C3    O11   A    
C9    C18   A    
O32   C88   S    
C2    O10   A    
C24   O19   S    
C87   H76   S    
C89   H81   S    
C65   H17   S    
C1    C27   S    
C49   H6    S    
C2    C28   S    
C80   H58   S    
C70   H32   S    
C76   H46   S    
O23   C73   S    
C45   O26   S    
C91   H89   S    
C83   H64   S    
C26   C41   A    
C15   N4    A    
C4    O4    A    
C65   H19   S    
