data_mof_unit_42423.cif
_audit_creation_date              2012-12-11T15:35:20-0500
_audit_creation_method            fapswitch 2.2
_symmetry_space_group_name_H-M    P1
_symmetry_Int_Tables_number       1
_space_group_crystal_system       triclinic
_cell_length_a                    17.431253
_cell_length_b                    24.205288
_cell_length_c                    15.005637
_cell_angle_alpha                 90.397135
_cell_angle_beta                  125.291078
_cell_angle_gamma                 89.463706
_cell_volume                      5167.55100215

loop_
_atom_site_label
_atom_site_type_symbol
_atom_type_description
_atom_site_fract_x
_atom_site_fract_y
_atom_site_fract_z
_atom_type_partial_charge
C1    C     C_R   0.309428 0.124899 0.907294 -0.042440
C2    C     C_R   0.310154 0.874895 0.907162 -0.089994
C3    C     C_R   0.808964 0.623996 0.907882 -0.100032
C4    C     C_R   0.808424 0.378447 0.907656 -0.131673
C5    C     C_R   0.659397 0.147134 0.094003 -0.023916
C6    C     C_R   0.648538 0.848332 0.093111 -0.086253
C7    C     C_R   0.148724 0.651450 0.092771 -0.038649
C8    C     C_R   0.147257 0.347916 0.092526 -0.085692
C9    C     C_R   0.555991 0.845743 0.913603 -0.038549
C10   C     C_R   0.571796 0.147638 0.911734 -0.019950
C11   C     C_R   0.051965 0.345189 0.913044 -0.048555
C12   C     C_R   0.052793 0.654257 0.913075 -0.053591
C13   C     C_R   0.437006 0.000301 0.635772 -0.269286
C14   C     C_R   0.024585 0.499521 0.697565 -0.251132
C15   C     C_R   0.825056 0.999142 0.287938 0.116990
C16   C     C_R   0.325149 0.499242 0.287651 0.118526
C17   C     C_R   0.638712 0.175356 0.004206 0.083053
C18   C     C_R   0.615561 0.813755 0.004741 0.037507
C19   C     C_R   0.114379 0.685729 0.003813 0.072884
C20   C     C_R   0.112010 0.313188 0.003776 0.046675
C21   C     C_3   0.041187 0.006610 0.580205 -0.492099
C22   C     C_3   0.082795 0.046166 0.456875 -0.471474
C23   C     C_3   0.542411 0.507546 0.579555 -0.492343
C24   C     C_3   0.583637 0.545565 0.454848 -0.481101
C25   C     C_3   0.937953 0.012805 0.485522 0.432267
C26   C     C_3   0.978865 0.044544 0.356851 0.372298
C27   C     C_3   0.439204 0.513977 0.485084 0.430521
C28   C     C_3   0.479416 0.543953 0.355094 0.367757
C29   C     C_3   0.076861 0.943180 0.473899 -0.341459
C30   C     C_3   0.576954 0.442828 0.474040 -0.342161
C31   C     C_3   0.102387 0.998854 0.536965 0.167713
C32   C     C_3   0.603235 0.498832 0.536046 0.165552
C33   C     C_3   0.925730 0.998736 0.375175 -0.083188
C34   C     C_3   0.426146 0.498864 0.374688 -0.085316
C35   C     C_R   0.403180 0.872202 0.090929 -0.075306
C36   C     C_R   0.402235 0.127409 0.090942 -0.128420
C37   C     C_R   0.902165 0.375379 0.091645 -0.074605
C38   C     C_R   0.901918 0.625817 0.091759 -0.084508
C39   C     C_3   0.971607 0.941778 0.383467 -0.336602
C40   C     C_3   0.471531 0.441537 0.384140 -0.331609
C41   C     C_R   0.170277 0.803617 0.898586 -0.109761
C42   C     C_R   0.162806 0.191624 0.898949 -0.123120
C43   C     C_R   0.763558 0.270504 0.946827 -0.101224
C44   C     C_R   0.661819 0.689368 0.900579 -0.121831
C45   C     C_R   0.722449 0.224050 0.950871 -0.169455
C46   C     C_R   0.611651 0.732897 0.902651 -0.165686
C47   C     C_R   0.119426 0.761370 0.900667 -0.177437
C48   C     C_R   0.110576 0.233898 0.900872 -0.168986
C49   C     C_R   0.678303 0.225808 0.003802 -0.090036
C50   C     C_R   0.635638 0.754535 0.002802 -0.018010
C51   C     C_R   0.137674 0.743544 0.000080 -0.053488
C52   C     C_R   0.132504 0.254251 0.000902 -0.024984
C53   C     C_R   0.672424 0.274626 0.051617 0.564354
C54   C     C_R   0.693273 0.722054 0.098097 0.461053
C55   C     C_R   0.192247 0.777588 0.093534 0.560529
C56   C     C_R   0.190391 0.221628 0.095764 0.461979
C57   C     C_R   0.246875 0.818859 0.091667 -0.268563
C58   C     C_R   0.245987 0.180385 0.093796 -0.297923
C59   C     C_R   0.716581 0.321416 0.049181 -0.288049
C60   C     C_R   0.747381 0.679862 0.095936 -0.286318
C61   C     C_R   0.241350 0.828542 0.996119 0.061646
C62   C     C_R   0.238186 0.169262 0.997085 0.091185
C63   C     C_R   0.760856 0.318757 0.996248 0.052464
C64   C     C_R   0.737827 0.667420 0.998678 0.087680
C65   C     C_R   0.392932 0.010810 0.451842 0.080226
C66   C     C_R   0.555565 0.990198 0.602933 -0.155332
C67   C     C_R   0.097539 0.449800 0.616779 -0.044353
C68   C     C_R   0.098263 0.548729 0.618906 -0.061523
C69   C     C_R   0.419819 0.011825 0.382163 -0.218313
C70   C     C_R   0.582160 0.990529 0.533070 -0.094547
C71   C     C_R   0.107480 0.449614 0.531849 -0.136723
C72   C     C_R   0.107646 0.549323 0.533547 -0.122412
C73   C     C_R   0.514016 0.001674 0.423958 0.071816
C74   C     C_R   0.099000 0.499624 0.480460 0.160142
C75   C     C_R   0.534233 0.046361 0.295053 -0.095671
C76   C     C_R   0.534462 0.954536 0.295528 -0.087838
C77   C     C_R   0.047967 0.545665 0.302955 -0.092898
C78   C     C_R   0.047748 0.454275 0.302302 -0.099899
C79   C     C_R   0.461261 0.000240 0.561372 0.196472
C80   C     C_R   0.074719 0.499303 0.645302 0.140467
C81   C     C_R   0.245874 0.953611 0.696889 -0.113497
C82   C     C_R   0.244818 0.045525 0.695638 -0.085212
C83   C     C_R   0.746939 0.453541 0.696199 -0.093563
C84   C     C_R   0.745497 0.545493 0.695137 -0.075437
C85   C     C_R   0.312691 0.139978 0.998854 0.044483
C86   C     C_R   0.314181 0.859254 0.998616 0.064316
C87   C     C_R   0.812120 0.638217 0.999885 0.069250
C88   C     C_R   0.813473 0.363696 0.999468 0.071895
C89   C     C_R   0.538595 0.000831 0.350501 0.101726
C90   C     C_R   0.064423 0.499923 0.366168 0.112831
C91   C     C_R   0.199478 0.999206 0.633688 0.066390
C92   C     C_R   0.700560 0.499155 0.632736 0.080279
C93   C     C_R   0.450649 0.045766 0.697066 0.431472
C94   C     C_R   0.451935 0.954827 0.696818 0.466512
C95   C     C_R   0.997734 0.546152 0.729265 0.460143
C96   C     C_R   0.998127 0.453315 0.729347 0.467843
C97   C     C_R   0.768390 0.952911 0.254002 0.020256
C98   C     C_R   0.769229 0.046070 0.258074 -0.058613
C99   C     C_R   0.268461 0.452963 0.254129 0.016687
C100  C     C_R   0.269108 0.546199 0.257004 -0.056732
H1    H     H_    0.251401 0.128735 0.822738 0.087132
H2    H     H_    0.252116 0.871102 0.822642 0.101121
H3    H     H_    0.750710 0.627811 0.823417 0.093714
H4    H     H_    0.751329 0.370656 0.823576 0.119195
H5    H     H_    0.062773 0.043892 0.633395 0.154303
H6    H     H_    0.095883 0.086993 0.497501 0.157863
H7    H     H_    0.564474 0.545047 0.632245 0.155071
H8    H     H_    0.597295 0.586620 0.494858 0.154870
H9    H     H_    0.918859 0.057156 0.482404 0.032746
H10   H     H_    0.947730 0.085576 0.352529 0.036681
H11   H     H_    0.420754 0.558511 0.481218 0.038249
H12   H     H_    0.448564 0.585199 0.350080 0.045902
H13   H     H_    0.092390 0.907307 0.527671 0.167453
H14   H     H_    0.118015 0.937744 0.438986 0.224519
H15   H     H_    0.592613 0.407369 0.528771 0.167102
H16   H     H_    0.617618 0.436688 0.438679 0.221336
H17   H     H_    0.940592 0.908403 0.402905 0.217343
H18   H     H_    0.959323 0.930083 0.304536 0.234167
H19   H     H_    0.440503 0.408755 0.404818 0.217469
H20   H     H_    0.458685 0.429024 0.305285 0.234009
H21   H     H_    0.159698 0.811882 0.821589 0.135789
H22   H     H_    0.149597 0.181407 0.821092 0.126170
H23   H     H_    0.800334 0.268324 0.908255 0.145103
H24   H     H_    0.646804 0.677888 0.822355 0.126973
H25   H     H_    0.726373 0.186303 0.914187 0.166509
H26   H     H_    0.561857 0.752680 0.825436 0.168470
H27   H     H_    0.073799 0.739256 0.824998 0.184091
H28   H     H_    0.061247 0.254292 0.824145 0.176626
H29   H     H_    0.294971 0.842261 0.165180 0.170255
H30   H     H_    0.296819 0.158386 0.168204 0.154169
H31   H     H_    0.716575 0.359523 0.087507 0.186831
H32   H     H_    0.798560 0.658194 0.170632 0.160086
H33   H     H_    0.320077 0.017750 0.421046 0.154344
H34   H     H_    0.607761 0.982180 0.688996 0.137393
H35   H     H_    0.100872 0.411049 0.653013 0.191126
H36   H     H_    0.102670 0.587179 0.657360 0.190530
H37   H     H_    0.430257 0.863929 0.174768 0.112871
H38   H     H_    0.428885 0.135487 0.174767 0.104721
H39   H     H_    0.930306 0.365273 0.175358 0.122127
H40   H     H_    0.928711 0.632112 0.176306 0.099125
H41   H     H_    0.367787 0.019762 0.296016 0.143357
H42   H     H_    0.654641 0.982422 0.563243 0.174239
H43   H     H_    0.112197 0.410250 0.500840 0.129840
H44   H     H_    0.112324 0.588769 0.503710 0.130538
H45   H     H_    0.542387 0.088963 0.320935 0.116643
H46   H     H_    0.542252 0.912091 0.321532 0.121736
H47   H     H_    0.066065 0.587953 0.330384 0.098201
H48   H     H_    0.065619 0.411831 0.328684 0.106883
H49   H     H_    0.232956 0.910819 0.673068 0.155389
H50   H     H_    0.228774 0.088004 0.669438 0.155607
H51   H     H_    0.735582 0.410676 0.672115 0.139782
H52   H     H_    0.729306 0.588055 0.669369 0.138778
H53   H     H_    0.788867 0.909996 0.268695 0.105716
H54   H     H_    0.791590 0.088363 0.279513 0.079654
H55   H     H_    0.288914 0.410029 0.268765 0.104496
H56   H     H_    0.291001 0.588722 0.276214 0.091747
H57   H     H_    0.701957 0.160957 0.177841 0.138369
H58   H     H_    0.689880 0.837167 0.177752 0.190576
H59   H     H_    0.192189 0.662774 0.177577 0.169547
H60   H     H_    0.189383 0.336610 0.177190 0.187497
H61   H     H_    0.507534 0.829879 0.833411 0.194285
H62   H     H_    0.537377 0.162118 0.829502 0.195422
H63   H     H_    0.998383 0.329264 0.833813 0.184007
H64   H     H_    0.999608 0.670529 0.833932 0.186324
H65   H     H_    0.052124 0.970315 0.631716 0.229851
H66   H     H_    0.132090 0.042547 0.432720 0.230529
H67   H     H_    0.553081 0.471578 0.631633 0.231450
H68   H     H_    0.632616 0.541305 0.430330 0.227348
N1    N     N_R   0.392140 0.102630 0.941800 -0.025408
N2    N     N_R   0.392140 0.897370 0.941800 -0.045099
N3    N     N_R   0.892140 0.602630 0.941800 -0.043955
N4    N     N_R   0.892140 0.397370 0.941800 -0.049773
N5    N     N_R   0.450890 0.896450 0.057150 -0.051310
N6    N     N_R   0.450890 0.103550 0.057150 -0.044269
N7    N     N_R   0.950890 0.396450 0.057150 -0.049385
N8    N     N_R   0.950890 0.603550 0.057150 -0.048877
N9    N     N_R   0.525160 0.027960 0.206160 -0.056173
N10   N     N_R   0.525160 0.972040 0.206160 -0.056742
N11   N     N_R   0.025160 0.527960 0.206160 -0.054104
N12   N     N_R   0.025160 0.472040 0.206160 -0.052863
N13   N     N_R   0.317870 0.971120 0.792790 -0.058086
N14   N     N_R   0.317870 0.028880 0.792790 -0.053866
N15   N     N_R   0.817870 0.471120 0.792790 -0.052179
N16   N     N_R   0.817870 0.528880 0.792790 -0.050013
N17   N     N_R   0.473480 0.027920 0.793480 -0.131495
N18   N     N_R   0.473480 0.972080 0.793480 -0.138806
N19   N     N_R   0.973480 0.527920 0.793480 -0.117087
N20   N     N_R   0.973480 0.472080 0.793480 -0.124608
N21   N     N_R   0.681610 0.971120 0.207570 -0.048220
N22   N     N_R   0.681610 0.028880 0.207570 -0.044724
N23   N     N_R   0.181610 0.471120 0.207570 -0.049515
N24   N     N_R   0.181610 0.528880 0.207570 -0.044920
N25   N     N_R   0.605410 0.102620 0.056870 -0.067253
N26   N     N_R   0.605410 0.897380 0.056870 -0.069978
N27   N     N_R   0.105410 0.602620 0.056870 -0.068505
N28   N     N_R   0.105410 0.397380 0.056870 -0.069791
N29   N     N_R   0.549680 0.896430 0.944180 -0.053937
N30   N     N_R   0.549680 0.103570 0.944180 -0.045559
N31   N     N_R   0.049680 0.396430 0.944180 -0.062955
N32   N     N_R   0.049680 0.603570 0.944180 -0.060251
Ni1   Ni    Ni4+2 0.433410 0.064680 0.868830 0.302607
Ni2   Ni    Ni4+2 0.433410 0.935320 0.868830 0.285098
Ni3   Ni    Ni4+2 0.933410 0.564680 0.868830 0.282848
Ni4   Ni    Ni4+2 0.933410 0.435320 0.868830 0.277768
Ni5   Ni    Ni4+2 0.565650 0.934380 0.131170 0.266910
Ni6   Ni    Ni4+2 0.565650 0.065620 0.131170 0.260309
Ni7   Ni    Ni4+2 0.065650 0.434380 0.131170 0.259290
Ni8   Ni    Ni4+2 0.065650 0.565620 0.131170 0.248450
S1    S     S_3+6 0.865255 0.976243 0.516167 -0.054289
O1    O     O_2   0.902202 0.986907 0.633320 -0.259498
O2    O     O_2   0.765931 0.997493 0.445219 -0.322481
O3    O     O_3   0.866493 0.907737 0.497939 -0.544135
H69   H     H_    0.816174 0.892885 0.502624 0.387709
S2    S     S_3+6 0.970388 0.038253 0.231179 -0.005711
O4    O     O_2   0.870452 0.028388 0.136174 -0.264051
O5    O     O_2   0.002616 0.091426 0.211947 -0.225113
O6    O     O_3   0.038040 0.986025 0.237904 -0.502027
H70   H     H_    0.099287 0.002857 0.264146 0.363929
S3    S     S_3+6 0.366414 0.478737 0.516900 -0.051679
O7    O     O_2   0.404246 0.489634 0.634250 -0.247920
O8    O     O_2   0.268103 0.501341 0.446528 -0.334089
O9    O     O_3   0.364832 0.410114 0.498089 -0.540405
H71   H     H_    0.311852 0.396511 0.498964 0.383832
S4    S     S_3+6 0.470137 0.536504 0.229114 0.003214
O10   O     O_2   0.369803 0.527188 0.134636 -0.257569
O11   O     O_2   0.503382 0.588970 0.208974 -0.220691
O12   O     O_3   0.536281 0.483346 0.235841 -0.494229
H72   H     H_    0.597893 0.499498 0.261739 0.372507
S5    S     S_3+6 0.608947 0.279175 0.110420 -0.032205
O13   O     O_2   0.670586 0.259238 0.226425 -0.311445
O14   O     O_2   0.580758 0.338156 0.109645 -0.237059
O15   O     O_3   0.511756 0.240068 0.039711 -0.535806
H73   H     H_    0.485617 0.240678 0.083350 0.373935
S6    S     S_3+6 0.694153 0.727834 0.216402 -0.010716
O16   O     O_2   0.605617 0.755476 0.189710 -0.258820
O17   O     O_2   0.700411 0.671149 0.260610 -0.207673
O18   O     O_3   0.788141 0.764336 0.312888 -0.528704
H74   H     H_    0.843111 0.743962 0.325399 0.345200
S7    S     S_3+6 0.188609 0.774366 0.208769 -0.050958
O19   O     O_2   0.274093 0.743986 0.299229 -0.318052
O20   O     O_2   0.189333 0.832107 0.246777 -0.258192
O21   O     O_3   0.090410 0.742508 0.177208 -0.553602
H75   H     H_    0.099024 0.737385 0.247917 0.371170
S8    S     S_3+6 0.190165 0.226487 0.213396 -0.009643
O22   O     O_2   0.101869 0.254505 0.186628 -0.265201
O23   O     O_2   0.194954 0.169448 0.255472 -0.208577
O24   O     O_3   0.284485 0.262131 0.311639 -0.520176
H76   H     H_    0.339346 0.241347 0.324760 0.347207
S9    S     S_3+6 0.396615 0.109995 0.637992 -0.056094
O25   O     O_2   0.462243 0.143970 0.626651 -0.287633
O26   O     O_2   0.307577 0.100617 0.526596 -0.281878
O27   O     O_3   0.369914 0.144081 0.714830 -0.589465
H77   H     H_    0.339749 0.178946 0.675064 0.386447
S10   S     S_3+6 0.411096 0.888914 0.638014 -0.058790
O28   O     O_2   0.493112 0.854064 0.662989 -0.307378
O29   O     O_2   0.361813 0.861586 0.681123 -0.355462
O30   O     O_3   0.335174 0.895347 0.501809 -0.515579
H78   H     H_    0.318145 0.856986 0.474029 0.415793
S11   S     S_3+6 0.944360 0.606068 0.648007 -0.054318
O31   O     O_2   0.015121 0.651271 0.683876 -0.354051
O32   O     O_2   0.901910 0.592077 0.530490 -0.240851
O33   O     O_3   0.858841 0.628766 0.659046 -0.580453
H79   H     H_    0.829572 0.660359 0.608003 0.390824
S12   S     S_3+6 0.945951 0.393264 0.648437 -0.067689
O34   O     O_2   0.017407 0.347620 0.686478 -0.356210
O35   O     O_2   0.868108 0.374223 0.655934 -0.330014
O36   O     O_3   0.900621 0.408138 0.517400 -0.508749
H80   H     H_    0.874756 0.372780 0.477634 0.390127

loop_
_geom_bond_atom_site_label_1
_geom_bond_atom_site_label_2
_ccdc_geom_bond_type
C68   C80   A    
C38   C87   A    
C99   N23   A    
C29   H14   S    
C98   H54   S    
C58   C62   A    
C65   C79   A    
C43   H23   S    
C63   C88   S    
N14   Ni1   S    
C96   N20   A    
C37   C88   A    
S7    O19   D    
C18   C50   S    
C41   C61   A    
C98   N22   A    
S11   O33   S    
S4    O10   D    
C60   H32   S    
C13   C79   S    
C82   N14   A    
C53   C59   A    
C43   C63   A    
C54   C60   A    
N13   N14   A    
C44   C64   A    
C95   S11   S    
C83   C92   A    
C21   C31   S    
C59   H31   S    
S9    O25   D    
C33   C39   S    
C8    C20   A    
C34   C40   S    
C36   N6    A    
C5    N25   A    
C24   H68   S    
C58   H30   S    
C28   H12   S    
S5    O15   S    
C76   N10   A    
C94   S10   S    
C65   C69   A    
C35   C86   A    
S2    O5    D    
N26   N29   A    
C12   H64   S    
C2    H2    S    
C10   C17   A    
N17   Ni1   S    
N25   N30   A    
N10   Ni5   S    
N19   Ni3   S    
S1    O3    S    
C21   H65   S    
S8    O22   D    
N18   Ni2   S    
O30   H78   S    
C57   H29   S    
C41   H21   S    
N4    Ni4   S    
S8    O23   D    
S10   O29   D    
C21   H5    S    
C16   C34   S    
C66   H34   S    
N22   Ni6   S    
N27   Ni8   S    
N13   Ni2   S    
N21   Ni5   S    
S12   O34   D    
S9    O27   S    
C8    N28   A    
C99   H55   S    
N1    N6    A    
C69   C73   A    
C24   H8    S    
C23   C27   S    
C28   S4    S    
S7    O21   S    
N12   Ni7   S    
C77   H47   S    
C64   C87   S    
C51   C55   A    
C37   N7    A    
C7    H59   S    
N4    N7    A    
C25   H9    S    
C42   C62   A    
C100  H56   S    
C81   N13   A    
C97   N21   A    
C56   S8    S    
C76   H46   S    
N32   Ni3   S    
C10   H62   S    
N16   Ni3   S    
O18   H74   S    
C1    C85   A    
N24   Ni8   S    
C100  N24   A    
S6    O17   D    
C15   C97   A    
N28   N31   A    
C14   C95   A    
C27   S3    S    
C10   N30   A    
C14   C96   A    
C6    H58   S    
C11   N31   A    
C9    N29   A    
O21   H75   S    
C83   H51   S    
C30   H15   S    
C27   C34   S    
C41   C47   A    
C6    C18   A    
C62   C85   S    
C11   C20   A    
S9    O26   D    
C70   H42   S    
C22   C31   S    
C95   N19   A    
N23   N24   A    
C35   N5    A    
C94   N18   A    
C68   H36   S    
C93   S9    S    
C72   C74   A    
C93   N17   A    
C17   C49   S    
S3    O7    D    
S2    O4    D    
C16   C100  A    
N23   Ni7   S    
C44   C46   A    
S10   O30   S    
O6    H70   S    
C39   H17   S    
C3    C87   A    
C97   H53   S    
N20   Ni4   S    
C75   H45   S    
C82   C91   A    
C30   H16   S    
C13   C93   A    
S6    O18   S    
C81   C91   A    
C42   C48   A    
C67   H35   S    
N15   N16   A    
C24   C32   S    
S5    O13   D    
C66   C79   A    
C45   H25   S    
C48   H28   S    
C26   C33   S    
C38   N8    A    
O12   H72   S    
C32   C92   S    
C84   N16   A    
C68   C72   A    
C23   H7    S    
C29   C39   S    
C70   C73   A    
C11   H63   S    
S1    O1    D    
C12   N32   A    
C30   C40   S    
N29   Ni2   S    
S7    O20   D    
C77   N11   A    
C9    H61   S    
C43   C45   A    
C82   H50   S    
C2    N2    A    
C23   H67   S    
C26   H10   S    
C84   H52   S    
S12   O35   D    
C40   H20   S    
C7    C19   A    
C14   C80   S    
C55   C57   A    
C37   H39   S    
N31   Ni4   S    
S5    O14   D    
C78   N12   A    
S6    O16   D    
N15   Ni4   S    
C15   C98   A    
C7    N27   A    
S11   O31   D    
C25   S1    S    
S4    O12   S    
C1    H1    S    
N1    Ni1   S    
C6    N26   A    
C42   H22   S    
C71   H43   S    
N27   N32   A    
C3    H3    S    
C72   H44   S    
N26   Ni5   S    
C21   C25   S    
N11   Ni8   S    
C83   N15   A    
N7    Ni7   S    
C38   H40   S    
N25   Ni6   S    
C4    N4    A    
C59   C63   A    
C46   H26   S    
C67   C80   A    
C24   C28   S    
C31   C91   S    
S11   O32   D    
S2    O6    S    
S4    O11   D    
C71   C74   A    
C47   C51   A    
O36   H80   S    
C16   C99   A    
C57   C61   A    
O33   H79   S    
C4    C88   A    
C78   H48   S    
C36   C85   A    
C39   H18   S    
C20   C52   S    
N3    N8    A    
C46   C50   A    
C96   S12   S    
C5    H57   S    
S8    O24   S    
C60   C64   A    
C13   C94   A    
C26   S2    S    
C23   C32   S    
N8    Ni8   S    
S10   O28   D    
N9    Ni6   S    
C73   C89   S    
N19   N20   A    
C50   C54   A    
C22   H6    S    
C35   H37   S    
S3    O9    S    
C30   C32   S    
C3    N3    A    
N17   N18   A    
C66   C70   A    
C36   H38   S    
C47   H27   S    
C78   C90   A    
S12   O36   S    
C81   H49   S    
C74   C90   S    
C4    H4    S    
C12   C19   A    
C1    N1    A    
O15   H73   S    
S1    O2    D    
C56   C58   A    
C45   C49   A    
C2    C86   A    
N30   Ni1   S    
C67   C71   A    
S3    O8    D    
C28   C34   S    
N28   Ni7   S    
N3    Ni3   S    
N21   N22   A    
C75   N9    A    
C29   H13   S    
N2    Ni2   S    
C49   C53   A    
C25   C33   S    
C61   C86   S    
C75   C89   A    
C27   H11   S    
N11   N12   A    
C22   H66   S    
C19   C51   S    
C9    C18   A    
C48   C52   A    
C40   H19   S    
C5    C17   A    
O3    H69   S    
C29   C31   S    
N9    N10   A    
C22   C26   S    
C44   H24   S    
N6    Ni6   S    
C77   C90   A    
C54   S6    S    
C76   C89   A    
N5    Ni5   S    
C84   C92   A    
C55   S7    S    
C69   H41   S    
O9    H71   S    
C15   C33   S    
C65   H33   S    
C52   C56   A    
O24   H76   S    
C53   S5    S    
O27   H77   S    
N2    N5    A    
C8    H60   S    
