data_mof_unit_5185.cif
_audit_creation_date              2013-03-05T16:10:40-0500
_audit_creation_method            fapswitch 2.2
_symmetry_space_group_name_H-M    P1
_symmetry_Int_Tables_number       1
_space_group_crystal_system       triclinic
_cell_length_a                    9.84452
_cell_length_b                    10.688541
_cell_length_c                    15.417411
_cell_angle_alpha                 91.028038
_cell_angle_beta                  68.261667
_cell_angle_gamma                 90.217523
_cell_volume                      1506.65706821

loop_
_atom_site_label
_atom_site_type_symbol
_atom_site_description
_atom_site_fract_x
_atom_site_fract_y
_atom_site_fract_z
_atom_type_partial_charge
O1    O     O_R   0.385370 0.683250 0.500010 -0.598559
O2    O     O_R   0.614630 0.316750 0.499990 -0.602719
O3    O     O_R   0.614700 0.683220 0.500000 -0.607849
O4    O     O_R   0.385300 0.316780 0.500000 -0.587411
C1    C     C_R   0.498925 0.739817 0.502124 1.050766
C2    C     C_R   0.500406 0.260097 0.499103 1.056727
O5    O     O_R   0.319830 0.500020 0.632250 -0.605295
O6    O     O_R   0.680170 0.499980 0.367750 -0.611044
O7    O     O_R   0.549160 0.499990 0.632240 -0.531562
O8    O     O_R   0.450840 0.500010 0.367760 -0.528555
C3    C     C_R   0.408992 0.494085 0.676182 1.005372
C4    C     C_R   0.591379 0.501250 0.323255 0.988099
Zn1   Zn    Zn3+2 0.346870 0.500020 0.500000 1.101746
Zn2   Zn    Zn3+2 0.653130 0.499980 0.500000 1.095649
C5    C     C_R   0.356635 0.459501 0.774991 -0.309055
C6    C     C_R   0.650639 0.497395 0.220170 -0.311312
C7    C     C_R   0.218640 0.325390 0.903041 -0.206099
C8    C     C_R   0.844541 0.532008 0.069785 -0.201790
C9    C     C_R   0.240694 0.373744 0.815064 0.219706
C10   C     C_R   0.794543 0.537596 0.167223 0.243346
C11   C     C_R   0.446916 0.492316 0.823712 0.626030
C12   C     C_R   0.561697 0.449719 0.173806 0.645881
C13   C     C_R   0.444866 0.422147 0.900005 -0.004909
C14   C     C_R   0.615321 0.437590 0.075952 -0.012355
C15   C     C_R   0.321977 0.345967 0.944284 -0.018577
C16   C     C_R   0.753807 0.488362 0.024373 -0.046781
C17   C     C_R   0.558764 0.428780 0.935466 -0.069277
C18   C     C_R   0.527781 0.389498 0.027811 -0.046424
C19   C     C_R   0.412534 0.302362 0.066920 0.379983
C20   C     C_R   0.704143 0.467376 0.882042 0.413468
C21   C     C_R   0.309029 0.284147 0.025700 -0.180248
C22   C     C_R   0.799221 0.497560 0.927790 -0.152297
H1    H     H_    0.221027 0.217846 0.055341 0.193200
H2    H     H_    0.908972 0.529535 0.887798 0.191262
H3    H     H_    0.128502 0.261787 0.934975 0.205519
H4    H     H_    0.952189 0.568148 0.029415 0.194386
C23   C     C_R   0.552749 0.939109 0.563054 0.131559
C24   C     C_R   0.442332 0.060481 0.441497 0.138052
C25   C     C_R   0.556014 0.068028 0.558725 0.592002
C26   C     C_R   0.441215 0.931869 0.444681 0.584329
C27   C     C_R   0.501099 0.127602 0.498472 -0.424335
C28   C     C_R   0.496877 0.872197 0.504357 -0.433597
C29   C     C_R   0.947738 0.399432 0.465499 0.016606
C30   C     C_R   0.052852 0.601147 0.533491 0.040656
H5    H     H_    0.909340 0.318994 0.437714 0.162456
H6    H     H_    0.091415 0.681770 0.560969 0.162374
C31   C     C_R   0.091482 0.399490 0.465532 0.059136
C32   C     C_R   0.909028 0.601068 0.533529 0.074549
H7    H     H_    0.161512 0.319233 0.437750 0.195883
H8    H     H_    0.839136 0.681545 0.561050 0.184993
N1    N     N_R   0.142780 0.500030 0.500020 -0.108140
N2    N     N_R   0.857220 0.499970 0.499980 -0.105828
F1    F     F_    0.418190 0.426465 0.223557 -0.604227
F2    F     F_    0.537933 0.591976 0.795267 -0.593145
N3    N     N_R   0.887101 0.593785 0.210269 0.236406
O9    O     O_R   0.840224 0.689441 0.266924 -0.338645
O10   O     O_R   0.025695 0.565844 0.179329 -0.340867
N4    N     N_R   0.154390 0.324671 0.764984 0.243056
O11   O     O_R   0.219318 0.267817 0.685084 -0.351337
O12   O     O_R   0.016062 0.303149 0.809744 -0.353418
N5    N     N_R   0.414349 0.216345 0.136979 0.267867
O13   O     O_R   0.538391 0.171250 0.134495 -0.309619
O14   O     O_R   0.293291 0.165378 0.191511 -0.274987
N6    N     N_R   0.763718 0.458985 0.781713 0.262776
O15   O     O_R   0.728653 0.365836 0.738662 -0.303015
O16   O     O_R   0.870990 0.531518 0.734426 -0.375171
N7    N     N_R   0.598606 0.877846 0.629960 0.252999
O17   O     O_R   0.516438 0.792601 0.683452 -0.331638
O18   O     O_R   0.713124 0.917095 0.645332 -0.268654
N8    N     N_R   0.387946 0.121320 0.378597 0.266778
O19   O     O_R   0.462715 0.210161 0.325477 -0.336684
O20   O     O_R   0.267809 0.082768 0.370185 -0.254758
F3    F     F_    0.603467 0.135862 0.617486 -0.568635
F4    F     F_    0.393300 0.864557 0.385879 -0.574803

loop_
_geom_bond_atom_site_label_1
_geom_bond_atom_site_label_2
_geom_bond_distance
_ccdc_geom_bond_type
C9    N4    1.435660 S    
C15   C21   1.392504 A    
C5    C9    1.419394 A    
O7    Zn2   1.912735 S    
C21   H1    1.084099 S    
C16   C22   1.392355 A    
N8    O19   1.300111 A    
C20   N6    1.438077 S    
C31   N1    1.366332 A    
C29   H5    1.081597 S    
C5    C11   1.399959 A    
C8    C16   1.397873 A    
O5    Zn1   1.956054 S    
C11   F2    1.359524 S    
O6    C4    1.295934 A    
C17   C18   1.412484 A    
C7    C15   1.400018 A    
N6    O15   1.301680 A    
N3    O9    1.301619 A    
C25   F3    1.360888 S    
C3    C5    1.469732 S    
C23   C25   1.380438 A    
C6    C10   1.417486 A    
C17   C20   1.425276 A    
C20   C22   1.398639 A    
O7    C3    1.294386 A    
C14   C16   1.411497 A    
N6    O16   1.300597 A    
C4    C6    1.476128 S    
O2    C2    1.279545 A    
O3    Zn2   1.996183 S    
C8    H4    1.084710 S    
C10   N3    1.435585 S    
O1    C1    1.279636 A    
O8    C4    1.296977 A    
C30   N1    1.366382 A    
C32   H8    1.080974 S    
C18   C19   1.422523 A    
C24   C26   1.376283 A    
C26   F4    1.361180 S    
O5    C3    1.294452 A    
C12   F1    1.359222 S    
C8    C10   1.397086 A    
C13   C17   1.418907 A    
N3    O10   1.301610 A    
C11   C13   1.400146 A    
Zn1   N1    2.009055 S    
N5    O13   1.301589 A    
O2    Zn2   1.993394 S    
C19   N5    1.436093 S    
C29   N2    1.366500 A    
O4    C2    1.282428 A    
O1    Zn1   1.993394 S    
C24   N8    1.435202 S    
N4    O12   1.300299 A    
N7    O17   1.300715 A    
C23   N7    1.438074 S    
C32   N2    1.366204 A    
C13   C15   1.411847 A    
C1    C28   1.414794 S    
C25   C27   1.398741 A    
C24   C27   1.404166 A    
C31   H7    1.080367 S    
C12   C14   1.405378 A    
N7    O18   1.301487 A    
C23   C28   1.405513 A    
N5    O14   1.301233 A    
C7    H3    1.084337 S    
C2    C27   1.416067 S    
C6    C12   1.408712 A    
O6    Zn2   1.956055 S    
C7    C9    1.400055 A    
N4    O11   1.299292 A    
C19   C21   1.397762 A    
C29   C31   1.415278 A    
N8    O20   1.301294 A    
C30   H6    1.081553 S    
Zn2   N2    2.009054 S    
C30   C32   1.415651 A    
O4    Zn1   1.996183 S    
C14   C18   1.419341 A    
C26   C28   1.396678 A    
O3    C1    1.281764 A    
O8    Zn1   1.912738 S    
C22   H2    1.084269 S    
