data_mof_unit_27101.cif
_audit_creation_date              2013-03-05T16:06:21-0500
_audit_creation_method            fapswitch 2.2
_symmetry_space_group_name_H-M    P1
_symmetry_Int_Tables_number       1
_space_group_crystal_system       triclinic
_cell_length_a                    15.0737
_cell_length_b                    15.205781
_cell_length_c                    17.110268
_cell_angle_alpha                 89.70389
_cell_angle_beta                  100.066772
_cell_angle_gamma                 99.63556
_cell_volume                      3805.77446288

loop_
_atom_site_label
_atom_site_type_symbol
_atom_site_description
_atom_site_fract_x
_atom_site_fract_y
_atom_site_fract_z
_atom_type_partial_charge
O1    O     O_R   0.615140 0.606020 0.522930 -0.569024
O2    O     O_R   0.384860 0.393980 0.477070 -0.555229
O3    O     O_R   0.468580 0.639400 0.493740 -0.618494
O4    O     O_R   0.531420 0.360600 0.506260 -0.603838
C1    C     C_R   0.557888 0.663038 0.512278 0.919184
C2    C     C_R   0.441581 0.336997 0.489525 0.936846
O5    O     O_R   0.581950 0.481350 0.400520 -0.550916
O6    O     O_R   0.418050 0.518650 0.599480 -0.590281
O7    O     O_R   0.435380 0.514730 0.371330 -0.609131
O8    O     O_R   0.564620 0.485270 0.628670 -0.620007
C3    C     C_R   0.509448 0.495203 0.350760 0.957730
C4    C     C_R   0.490358 0.503733 0.649351 0.955535
Zn1   Zn    Zn3+2 0.597860 0.477710 0.519490 1.019416
Zn2   Zn    Zn3+2 0.402140 0.522290 0.480510 1.013134
C5    C     C_R   0.510639 0.487937 0.267131 -0.108341
C6    C     C_R   0.488743 0.500216 0.733284 -0.091130
C7    C     C_R   0.436610 0.438087 0.214661 -0.071353
C8    C     C_R   0.568299 0.535890 0.787801 -0.080846
C9    C     C_R   0.438790 0.439338 0.132931 0.113136
C10   C     C_R   0.578105 0.505015 0.865701 0.113877
C11   C     C_R   0.514017 0.490464 0.105825 0.081704
C12   C     C_R   0.504911 0.447166 0.889629 0.077544
C13   C     C_R   0.587489 0.538177 0.158965 0.200191
C14   C     C_R   0.424283 0.416279 0.835970 0.207582
C15   C     C_R   0.585320 0.536258 0.239415 -0.297285
C16   C     C_R   0.417517 0.441878 0.757561 -0.319481
C17   C     C_2   0.513854 0.500723 0.021592 -0.144679
C18   C     C_2   0.507286 0.430681 0.973453 -0.115920
H1    H     H_    0.357852 0.413334 0.715194 0.203754
H2    H     H_    0.641358 0.574482 0.280261 0.200906
H3    H     H_    0.498513 0.362840 0.994165 0.172610
H4    H     H_    0.523441 0.568183 0.999282 0.159722
C19   C     C_R   0.593586 0.758005 0.508785 -0.074881
C20   C     C_R   0.401049 0.242292 0.484153 -0.092514
C21   C     C_R   0.676248 0.871945 0.438003 0.185878
C22   C     C_R   0.271935 0.123193 0.489991 0.239030
C23   C     C_R   0.666634 0.787193 0.470428 -0.250170
C24   C     C_R   0.309131 0.214510 0.489849 -0.184461
C25   C     C_R   0.538943 0.817834 0.524769 -0.230626
C26   C     C_R   0.453012 0.179635 0.469319 -0.251030
C27   C     C_R   0.531762 0.893237 0.478202 0.036358
C28   C     C_R   0.416634 0.088570 0.464890 0.036848
C29   C     C_R   0.603201 0.922059 0.433721 0.014198
C30   C     C_R   0.331007 0.059265 0.487497 0.011580
C31   C     C_R   0.457419 0.941274 0.475926 -0.001842
C32   C     C_R   0.468563 0.026894 0.443480 -0.035901
C33   C     C_R   0.529622 0.049177 0.388958 -0.085402
C34   C     C_R   0.372933 0.909587 0.504055 -0.065130
C35   C     C_R   0.597520 0.996750 0.384357 -0.076117
C36   C     C_R   0.308906 0.968244 0.506891 -0.085001
H5    H     H_    0.523081 0.202064 0.462013 0.186571
H6    H     H_    0.499305 0.800190 0.570699 0.184197
H7    H     H_    0.266887 0.264429 0.494035 0.206086
H8    H     H_    0.714981 0.743985 0.463996 0.188237
N1    N     N_R   0.271750 0.551950 0.454510 -0.138142
N2    N     N_R   0.728250 0.448050 0.545490 -0.143829
C37   C     C_R   0.161738 0.609748 0.357355 0.072202
C38   C     C_R   0.824338 0.354579 0.619917 0.084770
C39   C     C_R   0.252445 0.599477 0.387340 0.244351
C40   C     C_R   0.739400 0.382778 0.599318 0.275335
C41   C     C_R   0.204942 0.513045 0.494059 0.045205
C42   C     C_R   0.798622 0.489704 0.511806 0.050678
C43   C     C_R   0.111143 0.512059 0.461305 -0.150105
C44   C     C_R   0.880765 0.453957 0.519716 -0.134795
C45   C     C_R   0.089890 0.561840 0.391838 0.046843
C46   C     C_R   0.895417 0.386842 0.576925 0.011511
C47   C     C_R   0.037542 0.464250 0.495338 0.063306
C48   C     C_R   0.949111 0.484398 0.473219 0.076023
C49   C     C_R   0.928598 0.523872 0.399388 -0.310157
C50   C     C_R   0.046679 0.390881 0.544152 -0.279814
C51   C     C_R   0.996780 0.559042 0.357104 0.254148
C52   C     C_R   0.979724 0.354443 0.587402 0.229282
H9    H     H_    0.858457 0.520914 0.370312 0.183724
H10   H     H_    0.103168 0.355995 0.544939 0.191008
C53   C     C_2   0.357776 0.383998 0.243773 0.408621
H11   H     H_    0.289311 0.378695 0.209560 0.046781
O9    O     O_2   0.368962 0.342049 0.304675 -0.582403
C54   C     C_2   0.641700 0.603358 0.763519 0.390912
H12   H     H_    0.712069 0.608704 0.793339 0.066740
O10   O     O_2   0.623810 0.655382 0.710794 -0.582124
C55   C     C_2   0.509564 0.117567 0.328062 0.390459
H13   H     H_    0.439289 0.126604 0.308167 0.082924
O11   O     O_2   0.569963 0.166771 0.302506 -0.504667
C56   C     C_2   0.345589 0.814380 0.524252 0.288803
H14   H     H_    0.359658 0.761182 0.489420 0.120019
O12   O     O_2   0.311676 0.794374 0.583086 -0.545204
N3    N     N_2   0.969997 0.587122 0.278209 -0.280092
H15   H     H_    0.909477 0.612005 0.268985 0.219625
C57   C     C_3   0.972866 0.522399 0.217387 -0.772496
H16   H     H_    0.956725 0.551430 0.157975 0.232890
H17   H     H_    0.921836 0.461374 0.221263 0.239479
H18   H     H_    0.042053 0.504067 0.223821 0.246476
N4    N     N_2   0.996836 0.282113 0.637712 -0.310668
H19   H     H_    0.989404 0.222480 0.606902 0.224363
C58   C     C_3   0.078950 0.298346 0.697685 -0.788176
H20   H     H_    0.075208 0.245647 0.742680 0.250196
H21   H     H_    0.085803 0.364138 0.728076 0.241085
H22   H     H_    0.140558 0.296604 0.670821 0.247276
C59   C     C_2   0.794224 0.579589 0.480171 0.405150
H23   H     H_    0.848085 0.634738 0.502784 0.037489
O13   O     O_2   0.735045 0.591705 0.424997 -0.601962
C60   C     C_2   0.232849 0.477270 0.572672 0.448776
H24   H     H_    0.220125 0.509088 0.625283 0.053867
O14   O     O_2   0.264918 0.408530 0.578683 -0.627959
N5    N     N_2   0.665998 0.348578 0.639082 -0.247564
H25   H     H_    0.673574 0.373499 0.696231 0.216983
C61   C     C_3   0.632733 0.253377 0.631208 -0.707383
H26   H     H_    0.558052 0.240788 0.631076 0.237432
H27   H     H_    0.666126 0.218342 0.682309 0.233444
H28   H     H_    0.645550 0.225473 0.575100 0.235202
N6    N     N_2   0.322338 0.626978 0.341832 -0.244821
H29   H     H_    0.311599 0.591916 0.288570 0.204080
C62   C     C_3   0.353601 0.721680 0.334503 -0.809265
H30   H     H_    0.311627 0.763016 0.360324 0.227811
H31   H     H_    0.350174 0.738618 0.270881 0.217790
H32   H     H_    0.425876 0.739118 0.364486 0.256113
N7    N     N_2   0.143060 0.666998 0.292273 -0.271432
H33   H     H_    0.182144 0.668789 0.248383 0.231387
C63   C     C_3   0.118946 0.751934 0.311060 -0.756787
H34   H     H_    0.055978 0.761757 0.269973 0.251185
H35   H     H_    0.174427 0.807396 0.303093 0.213099
H36   H     H_    0.106352 0.755212 0.373052 0.230874
N8    N     N_2   0.835130 0.295187 0.684114 -0.294803
H37   H     H_    0.851539 0.233975 0.672999 0.249742
C64   C     C_3   0.872541 0.336660 0.761320 -0.749899
H38   H     H_    0.875730 0.284639 0.807007 0.237259
H39   H     H_    0.828335 0.383131 0.776597 0.221327
H40   H     H_    0.942231 0.374462 0.761935 0.251977
N9    N     N_2   0.664140 0.587994 0.131478 -0.306303
H41   H     H_    0.689482 0.647700 0.162180 0.220104
C65   C     C_3   0.735507 0.536693 0.126340 -0.752837
H42   H     H_    0.765304 0.516693 0.186510 0.238607
H43   H     H_    0.790241 0.577770 0.099826 0.232663
H44   H     H_    0.707863 0.475853 0.088401 0.271556
N10   N     N_2   0.349793 0.359607 0.860794 -0.303397
H45   H     H_    0.321988 0.306534 0.821902 0.230859
C66   C     C_3   0.280240 0.406613 0.880002 -0.768253
H46   H     H_    0.246349 0.436748 0.825913 0.232896
H47   H     H_    0.310735 0.459975 0.925582 0.260536
H48   H     H_    0.227874 0.359178 0.904056 0.235660
N11   N     N_2   0.660664 0.531551 0.921105 -0.296498
H49   H     H_    0.688495 0.598248 0.921054 0.223253
C67   C     C_3   0.726821 0.472671 0.921509 -0.812489
H50   H     H_    0.788385 0.496733 0.966717 0.240515
H51   H     H_    0.747833 0.471127 0.862518 0.220568
H52   H     H_    0.697356 0.404047 0.936576 0.255958
N12   N     N_2   0.364773 0.392292 0.077197 -0.311322
H53   H     H_    0.302992 0.412969 0.076974 0.206606
C68   C     C_3   0.358127 0.296105 0.074360 -0.755350
H54   H     H_    0.325812 0.270498 0.013686 0.253652
H55   H     H_    0.315095 0.264655 0.116719 0.228582
H56   H     H_    0.426688 0.276141 0.088790 0.251344
C69   C     C_2   0.654757 0.013151 0.321754 0.539388
H57   H     H_    0.651001 0.961487 0.277203 0.021980
O15   O     O_2   0.710095 0.081796 0.322524 -0.508324
C70   C     C_2   0.223180 0.934466 0.537079 0.527812
H58   H     H_    0.176593 0.876928 0.508344 0.038116
O16   O     O_2   0.206761 0.967951 0.596549 -0.524837
N13   N     N_2   0.758453 0.904760 0.409292 -0.324028
H59   H     H_    0.789306 0.855778 0.389109 0.220170
C71   C     C_3   0.822614 0.968301 0.462789 -0.712046
H60   H     H_    0.881988 0.994837 0.434203 0.238115
H61   H     H_    0.847494 0.935390 0.518599 0.232131
H62   H     H_    0.790094 0.025213 0.477062 0.261317
N14   N     N_2   0.175577 0.095107 0.485401 -0.279139
H63   H     H_    0.145142 0.051430 0.438749 0.201699
C72   C     C_3   0.118970 0.156772 0.505285 -0.742984
H64   H     H_    0.050169 0.119445 0.509625 0.236573
H65   H     H_    0.110926 0.206985 0.458324 0.227833
H66   H     H_    0.149190 0.190164 0.563683 0.255014

loop_
_geom_bond_atom_site_label_1
_geom_bond_atom_site_label_2
_geom_bond_distance
_ccdc_geom_bond_type
C67   H52   1.111167 S    
N3    H15   1.031936 S    
C43   C45   1.423794 A    
N4    H19   1.031006 S    
N1    C39   1.368476 A    
C27   C29   1.433881 A    
N8    C64   1.445667 S    
C58   H20   1.109813 S    
O7    Zn2   2.025533 S    
C65   H44   1.110626 S    
C71   H60   1.110456 S    
C58   H22   1.109961 S    
N10   H45   1.031789 S    
C33   C35   1.411092 A    
C31   C32   1.408315 A    
O5    C3    1.309030 A    
N5    C61   1.449332 S    
C38   N8    1.423050 S    
N14   H63   1.031594 S    
O1    C1    1.312831 A    
C44   C48   1.425364 A    
C12   C14   1.401403 A    
C35   C69   1.483986 S    
C70   H58   1.085541 S    
N12   C68   1.449685 S    
C56   O12   1.221441 D    
C62   H30   1.106465 S    
C68   H55   1.109801 S    
C54   O10   1.221210 D    
C5    C15   1.392157 A    
C38   C40   1.404196 A    
C67   H50   1.109818 S    
C13   N9    1.422416 S    
N10   C66   1.446321 S    
C28   C32   1.405690 A    
O4    Zn1   1.884995 S    
C49   C51   1.391989 A    
C42   C44   1.418753 A    
N12   H53   1.030954 S    
C55   O11   1.219692 D    
C3    C5    1.439224 S    
C70   O16   1.221272 D    
C38   C46   1.423232 A    
C46   C52   1.420849 A    
C4    C6    1.441139 S    
C36   C70   1.486212 S    
C48   C49   1.403374 A    
C1    C19   1.458981 S    
C50   H10   1.074135 S    
C64   H40   1.108197 S    
C39   N6    1.423760 S    
C61   H26   1.109451 S    
N13   C71   1.446925 S    
C49   H9    1.080653 S    
C57   H17   1.111486 S    
C21   C29   1.431978 A    
C8    C54   1.491836 S    
C62   H32   1.108930 S    
C34   C36   1.426294 A    
Zn2   N1    2.062363 S    
C11   C17   1.448486 S    
N14   C72   1.447633 S    
C12   C18   1.449999 S    
C61   H27   1.110281 S    
O2    C2    1.307523 A    
N11   H49   1.030653 S    
C28   C30   1.412219 A    
C71   H61   1.111599 S    
C55   H13   1.085853 S    
C72   H66   1.110138 S    
C21   N13   1.424437 S    
C63   H35   1.109846 S    
C11   C13   1.401941 A    
C6    C16   1.394788 A    
C66   H48   1.110221 S    
C43   C47   1.431749 A    
C47   C48   1.404675 A    
N8    H37   1.029085 S    
C56   H14   1.077555 S    
O4    C2    1.321917 A    
C68   H56   1.111857 S    
C37   C45   1.416514 A    
C72   H64   1.110255 S    
C54   H12   1.083717 S    
C29   C35   1.417037 A    
C33   C55   1.497463 S    
C65   H43   1.109979 S    
C45   C51   1.418986 A    
C9    N12   1.426137 S    
C2    C20   1.463791 S    
C72   H65   1.110809 S    
N11   C67   1.446550 S    
C44   C46   1.427579 A    
C53   H11   1.084290 S    
C64   H39   1.109996 S    
C66   H47   1.110974 S    
N13   H59   1.032009 S    
O6    C4    1.312700 A    
C41   C43   1.424568 A    
N6    C62   1.450203 S    
C19   C25   1.383136 A    
N9    C65   1.445066 S    
C57   H18   1.111010 S    
C60   O14   1.219609 D    
C53   O9    1.220197 D    
O3    Zn2   1.884992 S    
O8    C4    1.304528 A    
C51   N3    1.424353 S    
C23   H8    1.078867 S    
C14   N10   1.422247 S    
C59   O13   1.216441 D    
C10   C12   1.409958 A    
O7    C3    1.306894 A    
C64   H38   1.110096 S    
C61   H28   1.111527 S    
N2    C42   1.357795 A    
C22   C30   1.429371 A    
C69   O15   1.220794 D    
C52   N4    1.422929 S    
C7    C9    1.404486 A    
C65   H42   1.111304 S    
C71   H62   1.111258 S    
C37   N7    1.428141 S    
N9    H41   1.031893 S    
C66   H46   1.111829 S    
C31   C34   1.446424 A    
C30   C36   1.419939 A    
C15   H2    1.083171 S    
C67   H51   1.110918 S    
C32   C33   1.422923 A    
O6    Zn2   2.009202 S    
N6    H29   1.032242 S    
C21   C23   1.395645 A    
C17   H4    1.088324 S    
C20   C24   1.399481 A    
C10   N11   1.426053 S    
C18   H3    1.083586 S    
C14   C16   1.386316 A    
O3    C1    1.316054 A    
O8    Zn1   2.025533 S    
C63   H34   1.109303 S    
C58   H21   1.110808 S    
C5    C7    1.414013 A    
C26   H5    1.082878 S    
N5    H25   1.031073 S    
C59   H23   1.085214 S    
C47   C50   1.400994 A    
Zn1   N2    2.062363 S    
N7    C63   1.451134 S    
C41   C60   1.467443 S    
C57   H16   1.110087 S    
N7    H33   1.029980 S    
N2    C40   1.361576 A    
C22   C24   1.407920 A    
N4    C58   1.449929 S    
C24   H7    1.079388 S    
N1    C41   1.362592 A    
C26   C28   1.398653 A    
C22   N14   1.432156 S    
C63   H36   1.112530 S    
C25   H6    1.074651 S    
C8    C10   1.402402 A    
C13   C15   1.382666 A    
C60   H24   1.084948 S    
O2    Zn2   1.924482 S    
C19   C23   1.387862 A    
C37   C39   1.408019 A    
C42   C59   1.474991 S    
C34   C56   1.493317 S    
O5    Zn1   2.009202 S    
O1    Zn1   1.924479 S    
C25   C27   1.401114 A    
C16   H1    1.080469 S    
C6    C8    1.413807 A    
C17   C18   1.329598 D    
C7    C53   1.487359 S    
N3    C57   1.447077 S    
C27   C31   1.431533 A    
C20   C26   1.381125 A    
C50   C52   1.393881 A    
C62   H31   1.111731 S    
C69   H57   1.085200 S    
C68   H54   1.109298 S    
C40   N5    1.422835 S    
C9    C11   1.410789 A    
