data_mof_unit_45199.cif
_audit_creation_date              2012-10-26T19:06:29-0400
_audit_creation_method            fapswitch 2.2
_symmetry_space_group_name_H-M    P1
_symmetry_Int_Tables_number       1
_space_group_crystal_system       triclinic
_cell_length_a                    12.346956
_cell_length_b                    13.162077
_cell_length_c                    14.342917
_cell_angle_alpha                 78.367186
_cell_angle_beta                  101.093287
_cell_angle_gamma                 116.342948
_cell_volume                      2031.81567998

loop_
_atom_site_label
_atom_site_type_symbol
_atom_type_description
_atom_site_fract_x
_atom_site_fract_y
_atom_site_fract_z
_atom_type_partial_charge
C1    C     C_R   0.854710 0.286485 0.508820 0.528277
C2    C     C_R   0.436080 0.980439 0.486058 0.012339
C3    C     C_R   0.395255 0.059000 0.423995 0.062620
C4    C     C_R   0.000113 0.499691 0.668805 0.542589
C5    C     C_R   0.481920 0.162789 0.384409 -0.142867
C6    C     C_R   0.604934 0.191823 0.409415 -0.129138
C7    C     C_R   0.349352 0.869282 0.511177 -0.150279
C8    C     C_R   0.185748 0.916243 0.425053 -0.130837
C9    C     C_R   0.771794 0.163897 0.520375 -0.004778
C10   C     C_R   0.345590 0.330104 0.652287 -0.154944
C11   C     C_R   0.757254 0.649332 0.376905 0.161450
C12   C     C_1   0.999403 0.500475 0.228724 -0.059589
C13   C     C_R   0.676015 0.698469 0.368586 -0.125970
C14   C     C_R   0.583253 0.654840 0.426044 -0.009508
C15   C     C_R   0.561327 0.548754 0.485166 -0.008396
C16   C     C_R   0.144897 0.713473 0.488806 0.541642
C17   C     C_R   0.656248 0.509609 0.503053 0.151839
C18   C     C_R   0.452241 0.482023 0.529769 -0.014531
C19   C     C_R   0.448784 0.392075 0.603927 0.029570
C20   C     C_R   0.547262 0.363450 0.628102 -0.171162
C21   C     C_R   0.647478 0.419118 0.577319 -0.094338
C22   C     C_R   0.343154 0.496211 0.500199 0.028808
C23   C     C_R   0.268514 0.028956 0.399162 0.018672
C24   C     C_R   0.245725 0.356440 0.625661 0.040895
C25   C     C_R   0.999858 0.500287 0.331200 0.534787
C26   C     C_1   0.000473 0.499612 0.771272 -0.047332
C27   C     C_1   0.000325 0.499745 0.856680 -0.048172
C28   C     C_1   0.999946 0.500027 0.957285 -0.008840
C29   C     C_1   0.999623 0.500270 0.042645 -0.010910
C30   C     C_1   0.999373 0.500465 0.143278 -0.056665
C31   C     C_3   0.843767 0.699818 0.300546 -0.226405
C32   C     C_3   0.785811 0.639940 0.211026 -0.428986
C33   C     C_3   0.528414 0.735891 0.432674 -0.283959
C34   C     C_R   0.226748 0.835512 0.476615 -0.022394
C35   C     C_3   0.453854 0.758433 0.338828 -0.436360
C36   C     C_3   0.218278 0.113467 0.344734 -0.285176
C37   C     C_3   0.237433 0.203641 0.406377 -0.417886
C38   C     C_R   0.813480 0.088778 0.582855 -0.135740
C39   C     C_R   0.732142 0.979156 0.614373 -0.147492
C40   C     C_R   0.608090 0.943350 0.585571 -0.132727
C41   C     C_R   0.562593 0.014259 0.518117 0.032490
C42   C     C_R   0.647068 0.124136 0.482285 0.024895
Cu1   Cu    Cu3+1 0.098280 0.475420 0.520190 0.907807
Cu2   Cu    Cu3+1 0.901720 0.524580 0.479810 0.897782
H1    H     H_    0.089454 0.890312 0.401898 0.113709
H2    H     H_    0.550926 0.859933 0.618438 0.101237
H3    H     H_    0.764906 0.923050 0.665026 0.120048
H4    H     H_    0.666431 0.268425 0.370075 0.145644
H5    H     H_    0.166734 0.310736 0.664129 0.121760
H6    H     H_    0.755667 0.546058 0.228995 0.174376
H7    H     H_    0.705550 0.656977 0.177451 0.134814
H8    H     H_    0.852771 0.672906 0.158314 0.134517
H9    H     H_    0.864559 0.792062 0.278925 0.083371
H10   H     H_    0.934389 0.702442 0.323610 0.197273
H11   H     H_    0.515213 0.817870 0.285243 0.141612
H12   H     H_    0.545306 0.294677 0.684984 0.113134
H13   H     H_    0.393537 0.678383 0.307618 0.148261
H14   H     H_    0.397149 0.798799 0.352093 0.156003
H15   H     H_    0.475073 0.708109 0.494098 0.142287
H16   H     H_    0.604125 0.819132 0.448384 0.158671
H17   H     H_    0.192027 0.161856 0.472408 0.161411
H18   H     H_    0.335633 0.255113 0.427073 0.161782
H19   H     H_    0.197320 0.262414 0.365474 0.146868
H20   H     H_    0.259846 0.154737 0.277102 0.133180
H21   H     H_    0.118825 0.068850 0.322950 0.134410
H22   H     H_    0.342346 0.262210 0.710339 0.093918
H23   H     H_    0.332377 0.551313 0.436656 0.137246
H24   H     H_    0.687956 0.775115 0.318230 0.105058
H25   H     H_    0.716781 0.389107 0.599909 0.182698
H26   H     H_    0.456340 0.221605 0.331230 0.110260
H27   H     H_    0.375341 0.804593 0.553353 0.122578
H28   H     H_    0.908395 0.116860 0.611945 0.124184
N1    N     N_R   0.246290 0.438200 0.550780 -0.231147
N2    N     N_R   0.754310 0.561180 0.449760 -0.223298
O1    O     O_R   0.972510 0.318130 0.525390 -0.498990
O2    O     O_R   0.806530 0.359650 0.491290 -0.519947
O3    O     O_R   0.083010 0.479240 0.641000 -0.477841
O4    O     O_R   0.917030 0.520750 0.606900 -0.491507
O5    O     O_R   0.193470 0.640350 0.508710 -0.499369
O6    O     O_R   0.027490 0.681870 0.474610 -0.510210
O7    O     O_R   0.082970 0.479250 0.393100 -0.480805
O8    O     O_R   0.916990 0.520760 0.359000 -0.498277

loop_
_geom_bond_atom_site_label_1
_geom_bond_atom_site_label_2
_ccdc_geom_bond_type
Cu1   N1    S    
C15   C18   A    
C41   C42   A    
C3    C23   A    
C19   C20   A    
C20   H12   S    
C14   C33   S    
C37   H18   S    
C40   H2    S    
C9    C42   A    
C29   C30   S    
C6    H4    S    
C35   H14   S    
C36   C37   S    
Cu2   O8    S    
C7    H27   S    
C5    C6    A    
C24   N1    A    
C2    C41   A    
Cu1   O5    S    
C8    C23   A    
C18   C19   A    
Cu2   O2    S    
C8    H1    S    
C32   H8    S    
C16   C34   S    
C2    C7    A    
C11   C31   S    
C33   H15   S    
C13   C14   A    
C25   O7    A    
C37   H19   S    
C10   H22   S    
Cu1   O1    S    
C38   H28   S    
C35   H11   S    
C1    O1    A    
Cu2   O6    S    
C1    C9    S    
C39   C40   A    
C36   H21   S    
C10   C24   A    
C17   C21   A    
C21   H25   S    
C16   O6    A    
Cu1   Cu2   S    
C32   H7    S    
C4    O4    A    
C5    H26   S    
C37   H17   S    
C31   C32   S    
C10   C19   A    
C26   C27   T    
C8    C34   A    
C31   H9    S    
Cu2   N2    S    
C32   H6    S    
C40   C41   A    
C33   H16   S    
C25   O8    A    
Cu1   O7    S    
C7    C34   A    
C39   H3    S    
C24   H5    S    
C15   C17   A    
C28   C29   T    
C12   C30   T    
C17   N2    A    
C18   C22   A    
C1    O2    A    
C3    C5    A    
C11   N2    A    
C4    C26   S    
Cu1   O3    S    
C12   C25   S    
C35   H13   S    
C16   O5    A    
Cu2   O4    S    
C2    C3    A    
C4    O3    A    
C11   C13   A    
C38   C39   A    
C9    C38   A    
C33   C35   S    
C31   H10   S    
C22   H23   S    
C20   C21   A    
C23   C36   S    
C6    C42   A    
C27   C28   S    
C14   C15   A    
C22   N1    A    
C36   H20   S    
C13   H24   S    
