data_mof_unit_14672.cif
_audit_creation_date              2012-12-11T15:14:56-0500
_audit_creation_method            fapswitch 2.2
_symmetry_space_group_name_H-M    P1
_symmetry_Int_Tables_number       1
_space_group_crystal_system       triclinic
_cell_length_a                    11.087417
_cell_length_b                    11.080882
_cell_length_c                    18.491765
_cell_angle_alpha                 89.485237
_cell_angle_beta                  90.571608
_cell_angle_gamma                 119.764205
_cell_volume                      1972.03405889

loop_
_atom_site_label
_atom_site_type_symbol
_atom_type_description
_atom_site_fract_x
_atom_site_fract_y
_atom_site_fract_z
_atom_type_partial_charge
C1    C     C_R   0.538738 0.428945 0.637563 0.567048
C2    C     C_R   0.458505 0.519534 0.353975 0.550016
C3    C     C_R   0.460528 0.890042 0.137140 0.519899
C4    C     C_R   0.064643 0.542361 0.355480 0.548533
C5    C     C_3   0.374962 0.960625 0.482687 0.204913
C6    C     C_3   0.585147 0.472280 0.039053 0.254950
C7    C     C_3   0.006932 0.388428 0.480758 0.224658
C8    C     C_3   0.449803 0.060078 0.038460 0.281651
C9    C     C_3   0.627664 0.580685 0.470786 0.210684
C10   C     C_3   0.932930 0.411293 0.037102 0.297966
C11   C     C_3   0.019777 0.399265 0.978073 0.280306
C12   C     C_R   0.937595 0.479062 0.854884 0.537015
C13   C     C_3   0.549520 0.600127 0.532470 0.269064
C14   C     C_3   0.392210 0.978508 0.968943 0.287565
C15   C     C_3   0.101492 0.491638 0.537135 0.234538
C16   C     C_3   0.628373 0.588137 0.983050 0.275061
C17   C     C_3   0.420364 0.887274 0.537658 0.231454
C18   C     C_3   0.476458 0.101734 0.515173 -0.182420
C19   C     C_3   0.473824 0.367204 0.986853 -0.124413
C20   C     C_3   0.881683 0.388338 0.514308 -0.139940
C21   C     C_3   0.594908 0.144556 0.004562 -0.140858
C22   C     C_3   0.597501 0.439652 0.502291 -0.198931
C23   C     C_R   0.544825 0.064562 0.644648 0.576287
C24   C     C_3   0.896320 0.501506 0.987867 -0.066424
C25   C     C_3   0.148544 0.529000 0.006293 -0.199853
C26   C     C_3   0.413385 0.528450 0.488643 -0.039792
C27   C     C_3   0.426270 0.867645 0.996088 -0.190729
C28   C     C_3   0.126312 0.613560 0.486808 -0.058872
C29   C     C_3   0.524617 0.626723 0.013281 -0.159090
C30   C     C_3   0.533209 0.898340 0.485747 -0.058757
C31   C     C_3   0.521826 0.025862 0.569218 0.026801
C32   C     C_3   0.516282 0.485545 0.931062 -0.000542
C33   C     C_3   0.979686 0.496162 0.569629 0.027209
C34   C     C_R   0.523155 0.454875 0.856058 0.549450
C35   C     C_3   0.536311 0.059550 0.935142 -0.002417
C36   C     C_3   0.517715 0.460365 0.563736 0.040143
C37   C     C_3   0.988087 0.492012 0.928657 -0.017248
C38   C     C_3   0.058838 0.541711 0.064225 0.010496
C39   C     C_3   0.492902 0.505556 0.427425 0.037691
C40   C     C_3   0.485295 0.951725 0.065488 0.012956
C41   C     C_3   0.026141 0.508309 0.430968 0.003775
C42   C     C_3   0.480438 0.507580 0.068563 0.036257
C43   C     C_3   0.488929 0.975284 0.430820 0.038464
C44   C     C_3   0.637485 0.040271 0.517923 -0.113311
C45   C     C_R   0.936267 0.480525 0.644705 0.557230
C46   C     C_3   0.411963 0.522705 0.959853 -0.210065
C47   C     C_3   0.000962 0.617398 0.519912 -0.108760
C48   C     C_3   0.572403 0.949851 0.962192 -0.165621
C49   C     C_3   0.380503 0.385623 0.520579 -0.119138
C50   C     C_3   0.115547 0.622701 0.956230 -0.177947
C51   C     C_3   0.025468 0.634917 0.015539 -0.059249
C52   C     C_3   0.460185 0.365069 0.458427 -0.197791
C53   C     C_3   0.631419 0.033889 0.032107 -0.085312
C54   C     C_3   0.902462 0.510322 0.463858 -0.169327
C55   C     C_3   0.367117 0.403874 0.016480 -0.124925
C56   C     C_R   0.574173 0.116543 0.862665 0.543033
C57   C     C_3   0.591816 0.116051 0.462504 -0.180276
C58   C     C_R   0.454030 0.521145 0.143913 0.542600
C59   C     C_R   0.478765 0.934968 0.355575 0.547571
C60   C     C_R   0.110788 0.572149 0.137687 0.531863
Cr1   Cr    Cr6+3 0.769930 0.543130 0.750000 1.038799
Cr2   Cr    Cr6+3 0.773200 0.230070 0.750000 1.043374
Cr3   Cr    Cr6+3 0.456870 0.226800 0.750000 1.029110
Cr4   Cr    Cr6+3 0.543130 0.769930 0.250000 1.078142
Cr5   Cr    Cr6+3 0.230070 0.773200 0.250000 1.094202
Cr6   Cr    Cr6+3 0.226800 0.456870 0.250000 1.062106
H1    H     H_    0.745276 0.069390 0.534038 0.185106
H2    H     H_    0.825508 0.512487 0.426272 0.188058
H3    H     H_    0.259180 0.326328 0.031802 0.207660
H4    H     H_    0.658354 0.207506 0.428111 0.141837
H5    H     H_    0.443198 0.172385 0.537001 0.130574
H6    H     H_    0.447755 0.263011 0.968278 0.179370
H7    H     H_    0.788754 0.299577 0.536755 0.120693
H8    H     H_    0.656912 0.258156 0.003613 0.154398
H9    H     H_    0.660361 0.392764 0.515931 0.098124
H10   H     H_    0.793348 0.481969 0.970534 0.181923
H11   H     H_    0.243850 0.542759 0.031396 0.107083
H12   H     H_    0.346625 0.544289 0.921983 0.131407
H13   H     H_    0.346181 0.572699 0.475511 0.141946
H14   H     H_    0.369358 0.755432 0.992439 0.098664
H15   H     H_    0.225790 0.694272 0.464938 0.169859
H16   H     H_    0.555990 0.732965 0.030828 0.129978
H17   H     H_    0.557147 0.818430 0.466793 0.174974
H18   H     H_    0.197515 0.940816 0.504794 0.312571
H19   H     H_    0.613985 0.380088 0.120261 0.318139
H20   H     H_    0.103695 0.301003 0.441739 0.342702
H21   H     H_    0.436881 0.149273 0.124185 0.323136
H22   H     H_    0.813554 0.732180 0.483149 0.318819
H23   H     H_    0.000214 0.711884 0.538478 0.137148
H24   H     H_    0.826822 0.349810 0.124900 0.354216
H25   H     H_    0.084896 0.302874 0.918667 0.326294
H26   H     H_    0.692532 0.749214 0.588129 0.320370
H27   H     H_    0.263997 0.922547 0.888725 0.330567
H28   H     H_    0.145005 0.390250 0.607377 0.331839
H29   H     H_    0.755652 0.748923 0.928484 0.333409
H30   H     H_    0.276338 0.799967 0.608289 0.319930
H31   H     H_    0.623129 0.903329 0.930130 0.159087
H32   H     H_    0.279434 0.303191 0.541851 0.160860
H33   H     H_    0.186381 0.699465 0.916485 0.149056
H34   H     H_    0.028080 0.731793 0.032962 0.224066
H35   H     H_    0.423998 0.271079 0.424420 0.165327
H36   H     H_    0.729568 0.051212 0.057787 0.230140
O1    O     O_R   0.913270 0.574260 0.668550 -0.532331
O2    O     O_R   0.574260 0.913270 0.331450 -0.501395
O3    O     O_R   0.086730 0.660990 0.168550 -0.496481
O4    O     O_R   0.339010 0.425740 0.331450 -0.526517
O5    O     O_R   0.640160 0.530400 0.673300 -0.487496
O6    O     O_R   0.890240 0.359840 0.826700 -0.499219
O7    O     O_R   0.469600 0.109760 0.673300 -0.532493
O8    O     O_R   0.640160 0.530400 0.826700 -0.491704
O9    O     O_R   0.890240 0.359840 0.673300 -0.516077
O10   O     O_R   0.469600 0.109760 0.826700 -0.504620
O11   O     O_R   0.530400 0.640160 0.173300 -0.500623
O12   O     O_R   0.660990 0.086730 0.831450 -0.489734
O13   O     O_R   0.359840 0.890240 0.326700 -0.465712
O14   O     O_R   0.109760 0.469600 0.173300 -0.473593
O15   O     O_R   0.530400 0.640160 0.326700 -0.469514
O16   O     O_R   0.359840 0.890240 0.173300 -0.486020
O17   O     O_R   0.109760 0.469600 0.326700 -0.498498
O18   O     O_3   0.666667 0.333333 0.750000 -0.320858
O19   O     O_3   0.333333 0.666667 0.250000 -0.338753
O20   O     O_3   0.239555 0.923967 0.461752 -0.680067
O21   O     O_3   0.674381 0.452257 0.085054 -0.714614
O22   O     O_3   0.008038 0.268558 0.458953 -0.686417
O23   O     O_R   0.425740 0.339010 0.668550 -0.505998
O24   O     O_3   0.380488 0.111904 0.079611 -0.656738
O25   O     O_3   0.751864 0.685226 0.441336 -0.675979
O26   O     O_3   0.848509 0.304929 0.084914 -0.683794
O27   O     O_3   0.014564 0.275812 0.957275 -0.650419
O28   O     O_3   0.594214 0.717836 0.575776 -0.644026
O29   O     O_3   0.266759 0.956098 0.938457 -0.651615
O30   O     O_3   0.197565 0.481176 0.582306 -0.650602
O31   O     O_3   0.764446 0.686845 0.964443 -0.670422
O32   O     O_3   0.340029 0.775368 0.583481 -0.622988
O33   O     O_R   0.913270 0.574260 0.831450 -0.491484
O34   O     O_R   0.660990 0.086730 0.668550 -0.501082
O35   O     O_R   0.425740 0.339010 0.831450 -0.503327
O36   O     O_R   0.574260 0.913270 0.168550 -0.507576
O37   O     O_R   0.086730 0.660990 0.331450 -0.468797
O38   O     O_R   0.339010 0.425740 0.168550 -0.512611

loop_
_geom_bond_atom_site_label_1
_geom_bond_atom_site_label_2
_ccdc_geom_bond_type
C27   C48   S    
C28   C47   S    
C13   C26   S    
C37   C50   S    
C60   O3    A    
C29   C42   S    
C33   C45   S    
H24   O26   S    
Cr3   O35   S    
H29   O31   S    
C7    O22   S    
C42   C58   S    
Cr4   O36   S    
C48   H31   S    
C50   H33   S    
C9    O25   S    
Cr6   O14   S    
C23   O34   A    
C25   H11   S    
C59   O2    A    
C6    O21   S    
C22   C52   S    
Cr1   O1    S    
C1    O23   A    
Cr2   O12   S    
H22   O25   S    
C42   C55   S    
C16   O31   S    
C9    C22   S    
Cr2   O6    S    
C4    C41   S    
Cr1   O8    S    
H18   O20   S    
Cr4   O19   S    
C28   C41   S    
C9    C39   S    
Cr2   O34   S    
C30   H17   S    
C11   C37   S    
C9    C13   S    
C25   C50   S    
C45   O1    A    
C49   H32   S    
C6    C42   S    
C2    C39   S    
C15   O30   S    
C35   C48   S    
C12   O33   A    
C46   C55   S    
C58   O11   A    
C13   O28   S    
C4    O17   A    
Cr5   O19   S    
C14   C27   S    
C53   H36   S    
Cr2   O18   S    
C43   C59   S    
C24   C51   S    
C7    C15   S    
C39   C52   S    
C5    C43   S    
Cr1   O18   S    
C17   C30   S    
Cr5   O13   S    
C30   C44   S    
C19   H6    S    
C22   H9    S    
Cr6   O4    S    
C10   O26   S    
C19   C32   S    
C11   O27   S    
Cr5   O3    S    
C2    O15   A    
C50   C51   S    
C14   O29   S    
C48   C53   S    
C23   O7    A    
C52   H35   S    
C31   C44   S    
Cr2   O9    S    
C13   C36   S    
C20   C54   S    
C27   H14   S    
C26   C49   S    
C14   C35   S    
C12   O6    A    
C24   H10   S    
H30   O32   S    
C38   C51   S    
C10   C24   S    
C16   C29   S    
C21   H8    S    
C2    O4    A    
H28   O30   S    
Cr4   O15   S    
C32   C34   S    
Cr3   O7    S    
H26   O28   S    
C6    C19   S    
C3    O16   A    
C25   C38   S    
C18   C57   S    
C44   C57   S    
Cr5   O16   S    
C49   C52   S    
C24   C37   S    
Cr6   O19   S    
Cr6   O38   S    
C3    O36   A    
Cr3   O23   S    
C7    C20   S    
C55   H3    S    
C1    O5    A    
C47   C54   S    
H25   O27   S    
C20   C33   S    
C8    O24   S    
C3    C40   S    
C47   H23   S    
Cr6   O17   S    
H20   O22   S    
C33   C47   S    
C38   C60   S    
C30   C43   S    
C60   O14   A    
Cr1   O33   S    
C46   H12   S    
C58   O38   A    
C18   H5    S    
Cr4   O2    S    
C8    C14   S    
Cr4   O11   S    
C27   C40   S    
C35   C56   S    
Cr3   O10   S    
C32   C46   S    
C8    C21   S    
C45   O9    A    
C5    C18   S    
C19   C55   S    
C16   C32   S    
C22   C36   S    
C34   O35   A    
C26   H13   S    
C10   C38   S    
C29   C46   S    
C51   H34   S    
C21   C35   S    
C28   H15   S    
C29   H16   S    
C4    O37   A    
C21   C53   S    
Cr3   O18   S    
C15   C28   S    
C17   C31   S    
C5    O20   S    
C54   H2    S    
C15   C33   S    
C20   H7    S    
H19   O21   S    
C7    C41   S    
C26   C39   S    
C41   C54   S    
C10   C11   S    
C43   C57   S    
C57   H4    S    
C6    C16   S    
Cr5   O37   S    
C56   O12   A    
C5    C17   S    
C59   O13   A    
C40   C53   S    
C12   C37   S    
Cr1   O5    S    
C17   O32   S    
C11   C25   S    
C44   H1    S    
C18   C31   S    
C8    C40   S    
C34   O8    A    
H27   O29   S    
C56   O10   A    
H21   O24   S    
C36   C49   S    
C1    C36   S    
C23   C31   S    
