data_mof_unit_53486.cif
_audit_creation_date              2012-12-10T16:51:28-0500
_audit_creation_method            fapswitch 2.2
_symmetry_space_group_name_H-M    P1
_symmetry_Int_Tables_number       1
_space_group_crystal_system       triclinic
_cell_length_a                    7.836668
_cell_length_b                    8.562645
_cell_length_c                    12.084525
_cell_angle_alpha                 92.66723
_cell_angle_beta                  100.896718
_cell_angle_gamma                 94.237489
_cell_volume                      792.588340055

loop_
_atom_site_label
_atom_site_type_symbol
_atom_type_description
_atom_site_fract_x
_atom_site_fract_y
_atom_site_fract_z
_atom_type_partial_charge
C1    C     C_R   0.043905 0.794559 0.495733 0.991647
C2    C     C_R   0.154226 0.482998 0.829416 -0.103163
C3    C     C_2   0.066459 0.958221 0.492873 -0.344345
C4    C     C_R   0.106301 0.508592 0.710380 0.913062
C5    C     C_2   0.931542 0.041406 0.502989 -0.359601
C6    C     C_R   0.955196 0.205247 0.502377 0.964277
C7    C     C_R   0.892866 0.486400 0.289619 0.867980
C8    C     C_R   0.862308 0.630067 0.006249 -0.177339
C9    C     C_R   0.839957 0.483238 0.167779 -0.094409
C10   C     C_R   0.056768 0.360648 0.867923 -0.175307
C11   C     C_R   0.140711 0.260917 0.942976 -0.120814
C12   C     C_R   0.413327 0.427296 0.961825 0.053935
C13   C     C_R   0.319543 0.286800 0.982038 -0.140191
C14   C     C_1   0.589037 0.303510 0.180178 0.138821
C15   C     C_R   0.326381 0.528195 0.884274 0.044450
C16   C     C_R   0.591234 0.469565 0.012317 0.027436
C17   C     C_R   0.684887 0.590202 0.964657 0.114439
C18   C     C_R   0.597160 0.684701 0.886344 -0.235945
C19   C     C_R   0.417607 0.664550 0.855560 0.104578
C20   C     C_R   0.674449 0.413875 0.116071 -0.051458
C21   C     C_R   0.939899 0.576885 0.108280 -0.195837
H1    H     H_    0.070586 0.624845 0.146885 0.166818
H2    H     H_    0.193667 0.009728 0.483544 0.188093
H3    H     H_    0.804326 0.989891 0.512295 0.184173
H4    H     H_    0.469670 0.373328 0.417267 0.208067
H5    H     H_    0.530456 0.626043 0.583478 0.205530
H6    H     H_    0.666156 0.785478 0.858574 0.169829
H7    H     H_    0.935632 0.716305 0.966813 0.156681
H8    H     H_    0.922928 0.326972 0.826817 0.161129
H9    H     H_    0.381962 0.190196 0.021057 0.164598
H10   H     H_    0.070400 0.155201 0.962349 0.154441
I1    I     I_    0.295276 0.859532 0.782443 -0.457072
N1    N     N_2   0.434800 0.456690 0.470850 -0.167134
N2    N     N_2   0.565200 0.543310 0.529150 -0.168796
N3    N     N_1   0.523135 0.215341 0.232197 -0.226746
O1    O     O_R   0.893060 0.738880 0.507150 -0.609374
O2    O     O_R   0.172250 0.711130 0.488470 -0.614615
O3    O     O_R   0.944700 0.520730 0.667600 -0.614691
O4    O     O_R   0.223890 0.492980 0.648920 -0.596615
O5    O     O_R   0.827750 0.288870 0.511530 -0.623402
O6    O     O_R   0.106940 0.261120 0.492850 -0.608618
O7    O     O_R   0.776110 0.507020 0.351080 -0.607064
O8    O     O_R   0.055300 0.479270 0.332400 -0.618436
Zn1   Zn    Zn3+2 0.813580 0.518530 0.512470 0.962696
Zn2   Zn    Zn3+2 0.186420 0.481470 0.487530 0.968291

loop_
_geom_bond_atom_site_label_1
_geom_bond_atom_site_label_2
_ccdc_geom_bond_type
C2    C4    S    
C4    O4    A    
O3    Zn1   S    
C7    O8    A    
C11   C13   A    
C9    C20   A    
C3    H2    S    
C8    C17   A    
C12   C15   A    
C16   C20   A    
O4    Zn2   S    
C1    O2    A    
C8    C21   A    
C11   H10   S    
C21   H1    S    
C15   C19   A    
C2    C15   A    
O8    Zn2   S    
C10   H8    S    
C9    C21   A    
C5    H3    S    
O7    Zn1   S    
C19   I1    S    
C4    O3    A    
N1    N2    D    
C5    C6    S    
C8    H7    S    
C6    O5    A    
O1    Zn1   S    
C10   C11   A    
O2    Zn2   S    
C2    C10   A    
C14   C20   S    
C13   H9    S    
O5    Zn1   S    
N1    Zn2   S    
C12   C13   A    
C17   C18   A    
C18   C19   A    
C7    O7    A    
C14   N3    T    
C7    C9    S    
N2    Zn1   S    
O6    Zn2   S    
C3    C5    D    
H5    N2    S    
C18   H6    S    
C12   C16   A    
C1    O1    A    
H4    N1    S    
C16   C17   A    
C1    C3    S    
C6    O6    A    
