data_mof_unit_15341.cif
_audit_creation_date              2012-10-26T18:59:23-0400
_audit_creation_method            fapswitch 2.2
_symmetry_space_group_name_H-M    P1
_symmetry_Int_Tables_number       1
_space_group_crystal_system       triclinic
_cell_length_a                    10.840558
_cell_length_b                    19.361774
_cell_length_c                    18.093111
_cell_angle_alpha                 90.36973
_cell_angle_beta                  90.726683
_cell_angle_gamma                 89.885091
_cell_volume                      3797.21558241

loop_
_atom_site_label
_atom_site_type_symbol
_atom_type_description
_atom_site_fract_x
_atom_site_fract_y
_atom_site_fract_z
_atom_type_partial_charge
C1    C     C_R   0.497976 0.367493 0.499810 0.535601
C2    C     C_R   0.419929 0.187629 0.561225 0.232486
C3    C     C_R   0.461524 0.852286 0.504860 0.043473
C4    C     C_R   0.462133 0.148096 0.500811 0.056712
C5    C     C_R   0.493001 0.816395 0.570005 0.104873
C6    C     C_R   0.509459 0.181421 0.437742 0.095739
C7    C     C_R   0.506718 0.744717 0.567472 -0.154601
C8    C     C_R   0.521100 0.253361 0.437834 -0.157435
C9    C     C_R   0.488622 0.708244 0.501116 -0.057213
C10   C     C_R   0.486537 0.292220 0.499595 -0.061740
C11   C     C_R   0.351970 0.964452 0.519188 -0.140818
C12   C     C_R   0.498149 0.632636 0.500203 0.552070
C13   C     C_R   0.571752 0.035257 0.493636 -0.092359
C14   C     C_R   0.352086 0.036375 0.518054 -0.103194
C15   C     C_R   0.571126 0.963403 0.493552 -0.082615
C16   C     C_R   0.261818 0.504776 0.499656 0.591936
C17   C     C_R   0.737914 0.494423 0.500454 0.544917
C18   C     C_R   0.461947 0.072163 0.504926 0.080525
C19   C     C_R   0.461096 0.927908 0.505623 0.080018
C20   C     C_R   0.456580 0.443859 0.720135 0.064521
C21   C     C_R   0.540812 0.556555 0.279748 0.049110
C22   C     C_R   0.458622 0.441011 0.797733 0.214915
C23   C     C_R   0.872459 0.487840 0.501176 -0.054785
C24   C     C_R   0.547203 0.557335 0.201764 0.228096
C25   C     C_R   0.498269 0.499510 0.838828 0.036603
C26   C     C_R   0.503053 0.499592 0.161279 0.071986
C27   C     C_R   0.536693 0.558321 0.799756 0.185492
C28   C     C_R   0.460079 0.441571 0.200069 0.192907
C29   C     C_R   0.540584 0.556392 0.722156 0.016771
C30   C     C_R   0.462594 0.442784 0.278143 0.016300
C31   C     C_R   0.607177 0.515377 0.961565 -0.096395
C32   C     C_R   0.392185 0.485445 0.038410 -0.069776
C33   C     C_R   0.609059 0.514088 0.039046 -0.113440
C34   C     C_R   0.126936 0.507958 0.499342 -0.012942
C35   C     C_R   0.391068 0.485253 0.960790 -0.120815
C36   C     C_R   0.501420 0.499738 0.078510 0.111471
C37   C     C_R   0.498548 0.500180 0.921508 0.058802
C38   C     C_R   0.204645 0.629088 0.297013 -0.081257
C39   C     C_R   0.853592 0.383675 0.731739 -0.089773
C40   C     C_R   0.148344 0.603269 0.360438 0.260910
C41   C     C_R   0.880608 0.402625 0.658838 0.265484
C42   C     C_R   0.110726 0.533304 0.362610 0.081836
C43   C     C_R   0.886632 0.473104 0.640590 0.110660
C44   C     C_R   0.123248 0.492378 0.299080 -0.145514
C45   C     C_R   0.938959 0.493670 0.568516 -0.026268
C46   C     C_R   0.854087 0.523182 0.693323 -0.153454
C47   C     C_R   0.171501 0.520022 0.234564 -0.118502
C48   C     C_R   0.825789 0.503736 0.765311 -0.126455
C49   C     C_R   0.213399 0.588125 0.232312 0.254773
C50   C     C_R   0.829143 0.433917 0.785459 0.248856
C51   C     C_R   0.936201 0.483952 0.433200 0.213885
C52   C     C_R   0.064670 0.508166 0.567186 0.238186
C53   C     C_3   0.255953 0.679531 0.150548 0.025448
C54   C     C_3   0.120432 0.698941 0.135290 -0.288174
C55   C     C_3   0.109965 0.770121 0.100066 -0.492452
C56   C     C_R   0.059924 0.503967 0.431998 -0.037549
C57   C     C_3   0.890629 0.431463 0.907479 -0.007409
C58   C     C_3   0.997826 0.379609 0.905743 -0.260421
C59   C     C_3   0.082175 0.388236 0.973375 -0.482403
C60   C     C_3   0.509528 0.341412 0.859703 0.013484
C61   C     C_3   0.568155 0.297263 0.798621 -0.261916
C62   C     C_3   0.664985 0.247915 0.830135 -0.473900
C63   C     C_3   0.702234 0.637533 0.187556 0.005068
C64   C     C_3   0.747457 0.696166 0.138546 -0.241083
C65   C     C_3   0.771424 0.672191 0.059510 -0.415237
C66   C     C_3   0.466547 0.661387 0.841677 0.003659
C67   C     C_R   0.457517 0.744131 0.436448 -0.098019
C68   C     C_3   0.494113 0.720075 0.896154 -0.248379
C69   C     C_3   0.382568 0.767468 0.905130 -0.493089
C70   C     C_3   0.313813 0.355547 0.179351 -0.003952
C71   C     C_3   0.325033 0.279566 0.200529 -0.256841
C72   C     C_3   0.199673 0.249711 0.220696 -0.495047
C73   C     C_3   0.015596 0.668025 0.430397 -0.004590
C74   C     C_3   0.995923 0.738220 0.393681 -0.273783
C75   C     C_3   0.863661 0.763708 0.403315 -0.480133
C76   C     C_3   0.813844 0.307641 0.591746 0.006096
C77   C     C_3   0.853557 0.233704 0.609543 -0.278524
C78   C     C_R   0.436648 0.259286 0.560884 -0.138303
C79   C     C_3   0.754748 0.181673 0.586755 -0.479590
C80   C     C_3   0.828550 0.399720 0.367272 0.049924
C81   C     C_3   0.921546 0.346784 0.338439 -0.290334
C82   C     C_3   0.869578 0.273633 0.341820 -0.490307
C83   C     C_3   0.112192 0.590349 0.655353 0.006888
C84   C     C_3   0.232093 0.630547 0.645992 -0.234557
C85   C     C_3   0.222001 0.703269 0.678380 -0.511882
C86   C     C_3   0.298748 0.877114 0.369514 0.016018
C87   C     C_3   0.236724 0.859398 0.295511 -0.263073
C88   C     C_3   0.112006 0.895577 0.287534 -0.496915
C89   C     C_R   0.442109 0.815699 0.437791 0.236922
C90   C     C_3   0.253856 0.177370 0.639762 -0.005185
C91   C     C_3   0.252026 0.213777 0.715175 -0.252482
C92   C     C_3   0.121442 0.233765 0.737356 -0.484211
C93   C     C_3   0.408003 0.877153 0.676180 -0.301770
C94   C     C_3   0.448679 0.116043 0.329009 -0.306034
Cu1   Cu    Cu3+1 0.499960 0.500000 0.573360 0.926934
Cu2   Cu    Cu3+1 0.500040 0.500000 0.426640 0.935505
H1    H     H_    0.531453 0.717572 0.617726 0.120671
H2    H     H_    0.434526 0.397494 0.308040 0.136054
H3    H     H_    0.194709 0.130683 0.642528 0.139512
H4    H     H_    0.210921 0.211438 0.596893 0.121198
H5    H     H_    0.292590 0.179200 0.757884 0.173574
H6    H     H_    0.307684 0.261599 0.713168 0.165013
H7    H     H_    0.082311 0.271385 0.697337 0.186508
H8    H     H_    0.123607 0.258385 0.792966 0.152382
H9    H     H_    0.061664 0.187313 0.739324 0.131092
H10   H     H_    0.580737 0.829722 0.672118 0.243372
H11   H     H_    0.418146 0.933273 0.687425 0.171821
H12   H     H_    0.399092 0.849854 0.729651 0.115456
H13   H     H_    0.691172 0.527442 0.932754 0.142062
H14   H     H_    0.321601 0.868696 0.643589 0.141465
H15   H     H_    0.614727 0.167077 0.344035 0.242691
H16   H     H_    0.487431 0.085374 0.282697 0.141944
H17   H     H_    0.393304 0.159198 0.305870 0.133718
H18   H     H_    0.387771 0.081780 0.361164 0.156184
H19   H     H_    0.307429 0.474956 0.067207 0.120349
H20   H     H_    0.695011 0.523892 0.068277 0.107930
H21   H     H_    0.306045 0.474359 0.931102 0.131048
H22   H     H_    0.240663 0.680880 0.299662 0.100286
H23   H     H_    0.854322 0.329825 0.747190 0.111265
H24   H     H_    0.098258 0.438640 0.299637 0.117512
H25   H     H_    0.852772 0.577374 0.679129 0.094970
H26   H     H_    0.178409 0.487847 0.185705 0.110255
H27   H     H_    0.558447 0.278820 0.389875 0.116847
H28   H     H_    0.802193 0.542999 0.805562 0.136018
H29   H     H_    0.443933 0.716663 0.384618 0.146930
H30   H     H_    0.410328 0.289400 0.608634 0.125327
H31   H     H_    0.308439 0.688580 0.099150 0.173043
H32   H     H_    0.299809 0.713711 0.192669 0.123514
H33   H     H_    0.077856 0.660084 0.097407 0.172140
H34   H     H_    0.068389 0.699343 0.187773 0.138890
H35   H     H_    0.156293 0.809492 0.135515 0.144571
H36   H     H_    0.011231 0.784369 0.093301 0.145192
H37   H     H_    0.153346 0.769732 0.044772 0.143795
H38   H     H_    0.266595 0.937236 0.528957 0.080550
H39   H     H_    0.848478 0.429993 0.963106 0.149621
H40   H     H_    0.925245 0.485120 0.900163 0.113788
H41   H     H_    0.961049 0.326057 0.904574 0.162468
H42   H     H_    0.052438 0.387641 0.854937 0.171435
H43   H     H_    0.111742 0.442850 0.979375 0.136176
H44   H     H_    0.165177 0.355060 0.967340 0.161467
H45   H     H_    0.033035 0.372796 0.024160 0.135537
H46   H     H_    0.469544 0.306230 0.901284 0.150205
H47   H     H_    0.581103 0.372104 0.889643 0.186897
H48   H     H_    0.495977 0.266455 0.769905 0.163068
H49   H     H_    0.657562 0.062125 0.484133 0.116894
H50   H     H_    0.612273 0.331058 0.757366 0.160141
H51   H     H_    0.738578 0.277008 0.859964 0.180037
H52   H     H_    0.707496 0.218118 0.784365 0.139474
H53   H     H_    0.621630 0.211119 0.868784 0.142419
H54   H     H_    0.769463 0.593903 0.185341 0.126124
H55   H     H_    0.700525 0.658512 0.244810 0.103367
H56   H     H_    0.678050 0.738510 0.137832 0.169981
H57   H     H_    0.834596 0.717156 0.162540 0.106892
H58   H     H_    0.839943 0.629463 0.059066 0.125993
H59   H     H_    0.808541 0.715825 0.027127 0.123262
H60   H     H_    0.266318 0.064034 0.525913 0.108515
H61   H     H_    0.684342 0.654622 0.032716 0.191579
H62   H     H_    0.384019 0.632911 0.861689 0.133077
H63   H     H_    0.445311 0.683725 0.786370 0.124093
H64   H     H_    0.519102 0.698034 0.950893 0.176683
H65   H     H_    0.573493 0.750702 0.876166 0.163355
H66   H     H_    0.355413 0.790192 0.851114 0.139338
H67   H     H_    0.405973 0.809981 0.944294 0.143257
H68   H     H_    0.303456 0.738167 0.927470 0.141331
H69   H     H_    0.253108 0.359820 0.129624 0.138561
H70   H     H_    0.266928 0.383680 0.224868 0.103447
H71   H     H_    0.656083 0.935388 0.483878 0.105005
H72   H     H_    0.363480 0.249693 0.153451 0.171539
H73   H     H_    0.389167 0.274677 0.248630 0.159105
H74   H     H_    0.162820 0.276649 0.270143 0.144618
H75   H     H_    0.209429 0.193945 0.233353 0.137233
H76   H     H_    0.133228 0.255445 0.173878 0.144745
H77   H     H_    0.998431 0.673608 0.490554 0.138538
H78   H     H_    0.945658 0.630543 0.408781 0.136113
H79   H     H_    0.060620 0.776344 0.418837 0.164704
H80   H     H_    0.015395 0.733977 0.333670 0.151380
H81   H     H_    0.797523 0.726847 0.377252 0.149725
H82   H     H_    0.420793 0.400218 0.689248 0.144622
H83   H     H_    0.852243 0.814744 0.376427 0.146826
H84   H     H_    0.842224 0.769378 0.462932 0.147189
H85   H     H_    0.791585 0.310874 0.531808 0.139278
H86   H     H_    0.726692 0.320157 0.621449 0.124286
H87   H     H_    0.940310 0.221311 0.580084 0.169031
H88   H     H_    0.870913 0.228995 0.669853 0.146766
H89   H     H_    0.668737 0.191732 0.617701 0.175019
H90   H     H_    0.787159 0.128610 0.599598 0.141893
H91   H     H_    0.735744 0.185006 0.526456 0.151499
H92   H     H_    0.745945 0.398735 0.330269 0.162857
H93   H     H_    0.567815 0.601590 0.311181 0.129892
H94   H     H_    0.796298 0.383024 0.422463 0.123956
H95   H     H_    0.943589 0.358616 0.280076 0.153812
H96   H     H_    0.007470 0.349131 0.372522 0.161149
H97   H     H_    0.849086 0.259599 0.399833 0.145242
H98   H     H_    0.938296 0.236436 0.319889 0.147545
H99   H     H_    0.783712 0.269638 0.307898 0.140599
H100  H     H_    0.088443 0.590656 0.714917 0.144568
H101  H     H_    0.036354 0.618221 0.625511 0.094619
H102  H     H_    0.308464 0.602897 0.674543 0.190089
H103  H     H_    0.253339 0.634404 0.586274 0.195945
H104  H     H_    0.574274 0.600893 0.692947 0.135786
H105  H     H_    0.148620 0.732880 0.649081 0.148451
H106  H     H_    0.310932 0.730588 0.671963 0.154622
H107  H     H_    0.200822 0.701051 0.738232 0.132506
H108  H     H_    0.306149 0.934208 0.374008 0.150267
H109  H     H_    0.238090 0.858490 0.414711 0.108346
H110  H     H_    0.297033 0.875492 0.249493 0.171992
H111  H     H_    0.222848 0.802734 0.291611 0.151588
H112  H     H_    0.050782 0.881488 0.333752 0.143763
H113  H     H_    0.066686 0.879764 0.234780 0.144358
H114  H     H_    0.124608 0.952498 0.287341 0.142770
N1    N     N_R   0.499990 0.500020 0.683620 -0.284907
N2    N     N_R   0.500010 0.499980 0.316380 -0.279494
N3    N     N_2   0.516049 0.852420 0.637652 -0.515161
N4    N     N_2   0.548199 0.142837 0.374786 -0.525421
O1    O     O_R   0.499950 0.400180 0.561980 -0.522082
O2    O     O_3   0.797340 0.413216 0.855630 -0.609938
O3    O     O_3   0.412020 0.382821 0.831636 -0.603038
O4    O     O_3   0.582874 0.616329 0.164219 -0.562221
O5    O     O_3   0.570881 0.617783 0.837234 -0.597895
O6    O     O_3   0.431739 0.381463 0.161131 -0.585877
O7    O     O_3   0.139287 0.645787 0.421975 -0.594093
O8    O     O_3   0.913296 0.353253 0.606848 -0.587533
O9    O     O_3   0.877102 0.468027 0.366461 -0.563195
O10   O     O_3   0.127631 0.520343 0.633272 -0.538874
O11   O     O_3   0.419468 0.848997 0.371391 -0.575658
O12   O     O_R   0.500050 0.599820 0.438020 -0.508432
O13   O     O_3   0.375571 0.155090 0.623648 -0.578168
O14   O     O_R   0.500010 0.400190 0.438070 -0.522875
O15   O     O_R   0.499990 0.599810 0.561930 -0.527617
O16   O     O_R   0.319610 0.500000 0.561950 -0.447236
O17   O     O_R   0.680390 0.500000 0.438050 -0.464502
O18   O     O_R   0.319670 0.500010 0.438050 -0.498095
O19   O     O_R   0.680330 0.499990 0.561950 -0.504905
O20   O     O_3   0.270411 0.608694 0.167462 -0.569208

loop_
_geom_bond_atom_site_label_1
_geom_bond_atom_site_label_2
_ccdc_geom_bond_type
C66   C68   S    
C87   C88   S    
C27   O5    S    
Cu2   N2    S    
C62   H53   S    
C86   H108  S    
C27   C29   A    
Cu1   O1    S    
C73   C74   S    
C14   C18   A    
Cu1   Cu2   S    
H15   N4    S    
C13   H49   S    
C77   H88   S    
C9    C67   A    
C81   C82   S    
C17   O17   A    
C12   O15   A    
C39   C41   A    
C38   C49   A    
C53   C54   S    
C15   C19   A    
C11   C19   A    
C17   C23   S    
C79   H91   S    
C13   C18   A    
C64   H56   S    
C23   C45   A    
Cu2   O14   S    
C63   O4    S    
C79   H90   S    
C91   H5    S    
C70   H70   S    
C93   H12   S    
C30   N2    A    
C11   C14   A    
Cu2   O17   S    
C44   H24   S    
C63   H54   S    
C67   C89   A    
C33   C36   A    
C51   C56   A    
C20   N1    A    
C16   O16   A    
C73   H78   S    
H10   N3    S    
C88   H113  S    
C81   H95   S    
C82   H97   S    
C34   C52   A    
C53   H31   S    
C92   H7    S    
C25   C37   S    
C23   C51   A    
C51   O9    S    
C68   C69   S    
C22   C25   A    
C1    O1    A    
C31   C33   A    
C46   H25   S    
C3    C19   S    
C70   C71   S    
C50   O2    S    
C83   H101  S    
C75   H83   S    
C41   O8    S    
C44   C47   A    
C85   H105  S    
C93   H14   S    
C4    C18   S    
C58   H42   S    
C7    H1    S    
C48   C50   A    
C28   O6    S    
C88   H114  S    
Cu1   O16   S    
C74   H79   S    
C41   C43   A    
C15   H71   S    
C42   C44   A    
C88   H112  S    
C76   H86   S    
C86   H109  S    
C90   H4    S    
C66   H63   S    
C43   C46   A    
C94   H17   S    
C2    O13   S    
C29   N1    A    
C76   C77   S    
C77   C79   S    
C84   H103  S    
C10   C78   A    
C54   H34   S    
C46   C48   A    
C94   N4    S    
C74   C75   S    
C93   N3    S    
C94   H18   S    
C32   C35   A    
C69   H67   S    
C90   O13   S    
C84   C85   S    
C65   H61   S    
C70   H69   S    
C91   C92   S    
C5    C7    A    
C85   H107  S    
C86   C87   S    
C80   C81   S    
C47   H26   S    
C6    C8    A    
C45   C52   A    
C84   H102  S    
C58   C59   S    
C68   H65   S    
C64   H57   S    
C16   O18   A    
C70   O6    S    
C31   C37   A    
C60   C61   S    
Cu2   O12   S    
C60   H46   S    
C2    C4    A    
C61   H50   S    
C72   H75   S    
C81   H96   S    
C74   H80   S    
C49   O20   S    
C2    C78   A    
C53   H32   S    
C61   H48   S    
C12   O12   A    
C83   C84   S    
C6    N4    S    
C57   O2    S    
C59   H43   S    
C29   H104  S    
C5    N3    S    
C71   H73   S    
C80   H92   S    
C57   H40   S    
C69   H66   S    
C42   C56   S    
C75   H84   S    
C43   C45   S    
C63   H55   S    
C82   H99   S    
C85   H106  S    
C83   O10   S    
C1    O14   A    
C26   C36   S    
C22   O3    S    
C20   C22   A    
C52   O10   S    
C55   H35   S    
C71   H72   S    
C13   C15   A    
C11   H38   S    
C4    C6    A    
C91   H6    S    
C90   C91   S    
C76   H85   S    
C78   H30   S    
C72   H76   S    
C90   H3    S    
C66   H62   S    
C58   H41   S    
C80   H94   S    
C87   H110  S    
C35   C37   A    
C7    C9    A    
C54   H33   S    
C30   H2    S    
C54   C55   S    
C33   H20   S    
C79   H89   S    
C14   H60   S    
C83   H100  S    
C21   H93   S    
C31   H13   S    
C1    C10   S    
Cu1   O15   S    
C89   O11   S    
C40   C42   A    
C3    C5    A    
C48   H28   S    
C20   H82   S    
C32   C36   A    
C8    H27   S    
C17   O19   A    
C25   C27   A    
C34   C56   A    
C26   C28   A    
C21   N2    A    
C73   O7    S    
C40   O7    S    
C3    C89   A    
C16   C34   S    
C76   O8    S    
C64   C65   S    
C67   H29   S    
Cu1   N1    S    
C28   C30   A    
C65   H59   S    
C55   H37   S    
C47   C49   A    
C93   H11   S    
C80   O9    S    
C38   C40   A    
C24   C26   A    
C57   C58   S    
C59   H44   S    
C39   H23   S    
C62   H51   S    
C94   H16   S    
C77   H87   S    
C66   O5    S    
C87   H111  S    
Cu2   O18   S    
C32   H19   S    
C73   H77   S    
C61   C62   S    
C75   H81   S    
C9    C12   S    
C60   H47   S    
C82   H98   S    
C35   H21   S    
C92   H8    S    
C63   C64   S    
C38   H22   S    
C92   H9    S    
C71   C72   S    
C39   C50   A    
C59   H45   S    
C8    C10   A    
C55   H36   S    
C21   C24   A    
C86   O11   S    
C57   H39   S    
C62   H52   S    
Cu1   O19   S    
C65   H58   S    
C60   O3    S    
C53   O20   S    
C68   H64   S    
C69   H68   S    
C72   H74   S    
C24   O4    S    
