data_mof_unit_13251.cif
_audit_creation_date              2012-12-10T20:26:25-0500
_audit_creation_method            fapswitch 2.2
_symmetry_space_group_name_H-M    P1
_symmetry_Int_Tables_number       1
_space_group_crystal_system       triclinic
_cell_length_a                    10.597235
_cell_length_b                    10.651932
_cell_length_c                    9.909214
_cell_angle_alpha                 91.140292
_cell_angle_beta                  89.495732
_cell_angle_gamma                 90.674456
_cell_volume                      1118.22219524

loop_
_atom_site_label
_atom_site_type_symbol
_atom_type_description
_atom_site_fract_x
_atom_site_fract_y
_atom_site_fract_z
_atom_type_partial_charge
C1    C     C_R   0.501497 0.260593 0.498946 0.859362
C2    C     C_R   0.503932 0.128897 0.495072 -0.107622
C3    C     C_R   0.415458 0.063737 0.416234 -0.179082
C4    C     C_R   0.410690 0.934066 0.417663 0.410060
C5    C     C_R   0.493274 0.871343 0.502888 -0.143813
C6    C     C_R   0.585397 0.937856 0.574683 0.021554
C7    C     C_3   0.625540 0.938931 0.720510 -0.185531
C8    C     C_3   0.640351 0.081460 0.708102 -0.466397
C9    C     C_R   0.434948 0.409327 0.069900 0.159317
C10   C     C_R   0.576767 0.579402 0.071842 0.446799
C11   C     C_R   0.577219 0.578332 0.928301 -0.063373
C12   C     C_R   0.261551 0.501203 0.500119 0.875809
C13   C     C_R   0.431327 0.413637 0.928558 0.036443
C14   C     C_3   0.292985 0.385839 0.922365 -0.303377
C15   C     C_3   0.296769 0.378086 0.077430 0.081308
C16   C     C_R   0.496544 0.739389 0.501325 0.989002
C17   C     C_R   0.735582 0.480026 0.498899 0.956914
C18   C     C_2   0.935387 0.422036 0.387941 -0.091117
C19   C     C_2   0.858658 0.420204 0.497646 -0.351506
C20   C     C_2   0.070676 0.421398 0.409054 -0.300577
C21   C     C_2   0.126886 0.501145 0.496930 0.315722
C22   C     C_R   0.594489 0.065286 0.566402 0.049801
H1    H     H_    0.739675 0.116040 0.710519 0.243553
H2    H     H_    0.637871 0.642813 0.874300 0.172621
H3    H     H_    0.243046 0.452443 0.132659 0.161118
H4    H     H_    0.126112 0.357570 0.346472 0.185542
H5    H     H_    0.345217 0.113562 0.361446 0.228738
H6    H     H_    0.574973 0.137550 0.772980 0.248281
N1    N     N_R   0.499170 0.499140 0.142800 -0.155905
N2    N     N_R   0.499170 0.499180 0.857150 -0.118085
O1    O     O_R   0.500020 0.316790 0.614690 -0.640928
O2    O     O_R   0.500000 0.316760 0.385350 -0.584328
O3    O     O_R   0.319080 0.500020 0.614640 -0.588232
O4    O     O_R   0.319070 0.499980 0.385300 -0.627522
O5    O     O_R   0.500000 0.683240 0.614650 -0.604012
O6    O     O_R   0.499980 0.683210 0.385310 -0.543393
O7    O     O_R   0.680930 0.500020 0.614700 -0.580636
O8    O     O_R   0.680920 0.499980 0.385360 -0.569967
Zn1   Zn    Zn3+2 0.500010 0.500020 0.653130 1.030119
Zn2   Zn    Zn3+2 0.499990 0.499980 0.346870 1.084327
C23   C     C_2   0.893366 0.434800 0.246511 1.063351
O9    O     O_2   0.806026 0.370092 0.203161 -0.590049
O10   O     O_R   0.958765 0.515897 0.160783 -0.733276
H7    H     H_    0.921046 0.516976 0.067166 0.388705
Cl1   Cl    Cl    0.676769 0.686951 0.155618 -0.460884
C24   C     C_2   0.211276 0.494950 0.882916 0.976492
O11   O     O_2   0.097294 0.479215 0.873585 -0.514277
O12   O     O_R   0.263612 0.614834 0.866121 -0.767039
H8    H     H_    0.197834 0.679442 0.844076 0.378911
C25   C     C_2   0.270903 0.265762 0.839602 1.062519
O13   O     O_2   0.331430 0.171409 0.862204 -0.563718
O14   O     O_R   0.187232 0.264748 0.731557 -0.754243
H9    H     H_    0.186414 0.181457 0.680171 0.365395
Cl2   Cl    Cl    0.266565 0.226243 0.143801 -0.531586
C26   C     C_2   0.896962 0.352198 0.621391 1.026410
O15   O     O_2   0.876444 0.397619 0.733402 -0.471282
O16   O     O_R   0.951619 0.233545 0.611233 -0.749376
H10   H     H_    0.956571 0.199276 0.515267 0.319680
Cl3   Cl    Cl    0.048857 0.622536 0.587539 -0.481633
Cl4   Cl    Cl    0.291955 0.855500 0.323748 -0.466894
C27   C     C_2   0.523894 0.905487 0.822876 0.970964
O17   O     O_2   0.550291 0.902573 0.942674 -0.521120
O18   O     O_R   0.399156 0.884658 0.782552 -0.751367
H11   H     H_    0.340207 0.868844 0.861640 0.387950
C28   C     C_2   0.748639 0.872085 0.742050 0.943632
O19   O     O_2   0.784150 0.790872 0.661837 -0.560342
O20   O     O_R   0.820997 0.902422 0.855638 -0.699377
H12   H     H_    0.900679 0.850950 0.860085 0.381468

loop_
_geom_bond_atom_site_label_1
_geom_bond_atom_site_label_2
_ccdc_geom_bond_type
C2    C22   A    
C8    C22   S    
O10   H7    S    
C6    C7    S    
C7    C28   S    
C23   O9    D    
C13   N2    A    
O5    Zn1   S    
C9    N1    A    
C26   O15   D    
C4    Cl4   S    
C10   Cl1   S    
C3    H5    S    
C2    C3    A    
C9    C15   S    
C7    C8    S    
O7    Zn1   S    
C26   O16   S    
O3    Zn1   S    
C13   C14   S    
C16   O6    A    
C28   O19   D    
O8    Zn2   S    
C4    C5    A    
C23   O10   S    
C10   N1    A    
O16   H10   S    
C14   C25   S    
C20   H4    S    
O4    Zn2   S    
C5    C6    A    
N1    Zn2   S    
O12   H8    S    
C17   C19   S    
O1    Zn1   S    
N2    Zn1   S    
C21   Cl3   S    
C18   C20   S    
C17   O8    A    
O2    Zn2   S    
C16   O5    A    
C27   O17   D    
C8    H6    S    
C24   O12   S    
C15   H3    S    
C28   O20   S    
C10   C11   A    
C12   O4    A    
O20   H12   S    
C6    C22   A    
C15   Cl2   S    
C11   H2    S    
C1    O1    A    
C8    H1    S    
C20   C21   D    
C14   C24   S    
C1    C2    S    
C18   C23   S    
C19   C26   S    
C25   O14   S    
C27   O18   S    
C9    C13   A    
C14   C15   S    
C18   C19   D    
O6    Zn2   S    
C17   O7    A    
C25   O13   D    
C12   O3    A    
C24   O11   D    
C12   C21   S    
C1    O2    A    
C7    C27   S    
C3    C4    A    
C11   N2    A    
O14   H9    S    
O18   H11   S    
C5    C16   S    
