data_mof_unit_24508.cif
_audit_creation_date              2012-12-10T17:03:24-0500
_audit_creation_method            fapswitch 2.2
_symmetry_space_group_name_H-M    P1
_symmetry_Int_Tables_number       1
_space_group_crystal_system       triclinic
_cell_length_a                    15.088954
_cell_length_b                    11.038969
_cell_length_c                    9.81703
_cell_angle_alpha                 110.982398
_cell_angle_beta                  98.397004
_cell_angle_gamma                 91.088428
_cell_volume                      1505.88798206

loop_
_atom_site_label
_atom_site_type_symbol
_atom_type_description
_atom_site_fract_x
_atom_site_fract_y
_atom_site_fract_z
_atom_type_partial_charge
C1    C     C_R   0.493461 0.254138 0.440727 0.869209
C2    C     C_R   0.506539 0.745862 0.559273 0.869208
C3    C     C_R   0.022502 0.448839 0.235042 -0.254550
C4    C     C_R   0.977497 0.551157 0.764958 -0.254549
C5    C     C_2   0.489845 0.114936 0.407290 -0.355960
C6    C     C_2   0.510155 0.885064 0.592710 -0.355960
C7    C     C_2   0.501758 0.069535 0.516716 -0.153977
C8    C     C_2   0.498242 0.930465 0.483284 -0.153976
C9    C     C_2   0.507726 0.510244 0.081385 -0.077184
C10   C     C_2   0.492274 0.489756 0.918615 -0.077184
C11   C     C_R   0.328647 0.499690 0.500916 0.813207
C12   C     C_R   0.671353 0.500310 0.499083 0.813207
C13   C     C_R   0.827196 0.525266 0.630277 -0.223377
C14   C     C_R   0.172804 0.474732 0.369722 -0.223376
C15   C     C_R   0.768087 0.500615 0.498026 -0.079546
C16   C     C_R   0.231913 0.499384 0.501974 -0.079546
C17   C     C_R   0.801385 0.476142 0.365705 -0.254395
C18   C     C_R   0.198615 0.523858 0.634295 -0.254397
C19   C     C_R   0.894091 0.474394 0.363189 0.089635
C20   C     C_R   0.105909 0.525604 0.636811 0.089632
C21   C     C_R   0.953380 0.499880 0.498568 0.021438
C22   C     C_R   0.046619 0.500116 0.501431 0.021439
C23   C     C_R   0.919377 0.525448 0.631583 0.085812
C24   C     C_R   0.080622 0.474548 0.368416 0.085813
C25   C     C_R   0.929369 0.448378 0.229959 0.155632
C26   C     C_R   0.070631 0.551619 0.770040 0.155633
Cu1   Cu    Cu3+1 0.515770 0.521810 0.644910 0.937122
Cu2   Cu    Cu3+1 0.484230 0.478190 0.355090 0.937122
H1    H     H_    0.754107 0.458130 0.265489 0.169081
H2    H     H_    0.245893 0.541871 0.734510 0.169083
H3    H     H_    0.050043 0.427834 0.133692 0.133102
H4    H     H_    0.949957 0.572163 0.866308 0.133103
H5    H     H_    0.522610 0.950954 0.707666 0.149980
H6    H     H_    0.477390 0.049046 0.292334 0.149980
H7    H     H_    0.439625 0.417936 0.845427 0.157894
H8    H     H_    0.560375 0.582064 0.154573 0.157894
N1    N     N_2   0.460520 0.445420 0.137370 -0.286825
N2    N     N_2   0.539480 0.554580 0.862630 -0.286825
O1    O     O_R   0.508410 0.332340 0.577400 -0.578898
O2    O     O_R   0.491590 0.667660 0.422600 -0.578898
O3    O     O_R   0.481780 0.295500 0.332650 -0.574798
O4    O     O_R   0.518220 0.704500 0.667350 -0.574797
O5    O     O_R   0.383570 0.518390 0.622380 -0.586235
O6    O     O_R   0.616430 0.481610 0.377620 -0.586235
O7    O     O_R   0.356940 0.481550 0.377630 -0.581198
O8    O     O_R   0.643060 0.518450 0.622370 -0.581198
H9    H     H_    0.801557 0.544618 0.733073 0.154984
H10   H     H_    0.198443 0.455379 0.266927 0.154984
C27   C     C_3   0.870846 0.419556 0.080801 -0.417881
C28   C     C_3   0.829059 0.279557 0.016495 -0.810944
H11   H     H_    0.882721 0.210636 0.999782 0.253648
H12   H     H_    0.786518 0.260272 0.090707 0.249627
H13   H     H_    0.786566 0.261932 0.907868 0.242116
H14   H     H_    0.818096 0.489419 0.089049 0.189549
H15   H     H_    0.911368 0.432782 0.000564 0.194768
C29   C     C_3   0.129154 0.580439 0.919199 -0.417877
C30   C     C_3   0.170941 0.720438 0.983509 -0.810945
H16   H     H_    0.213476 0.739728 0.909294 0.249630
H17   H     H_    0.117279 0.789359 0.000234 0.253646
H18   H     H_    0.213438 0.738058 0.092131 0.242115
H19   H     H_    0.088632 0.567209 0.999435 0.194766
H20   H     H_    0.181904 0.510575 0.910948 0.189548
H21   H     H_    0.485784 0.864869 0.368129 0.180416
H22   H     H_    0.514216 0.135131 0.631871 0.180416
H23   H     H_    0.589135 0.622005 0.934605 0.188546
H24   H     H_    0.410865 0.377995 0.065395 0.188546

loop_
_geom_bond_atom_site_label_1
_geom_bond_atom_site_label_2
_ccdc_geom_bond_type
C9    H8    S    
C4    C26   A    
C6    H5    S    
C11   O5    A    
C10   H7    S    
C18   H2    S    
Cu1   O5    S    
C17   H1    S    
C9    C10   S    
C28   H12   S    
N2    H23   S    
C10   N2    D    
C27   H15   S    
C5    H6    S    
C22   C24   A    
C9    N1    D    
C28   H11   S    
C3    C24   A    
C7    C8    S    
C12   O6    A    
C2    C6    S    
C21   C22   A    
N1    H24   S    
C3    H3    S    
C19   C25   A    
Cu1   O4    S    
C30   H16   S    
C4    H4    S    
C20   C26   A    
Cu2   N1    S    
C2    O4    A    
C14   H10   S    
C1    C5    S    
Cu1   O8    S    
C12   O8    A    
C19   C21   A    
C20   C22   A    
C12   C15   S    
C29   H20   S    
C13   C15   A    
C21   C23   A    
C7    H22   S    
C14   C16   A    
Cu2   O7    S    
C30   H17   S    
C28   H13   S    
C11   O7    A    
Cu2   O2    S    
C8    H21   S    
C27   H14   S    
C2    O2    A    
Cu2   O3    S    
C3    C25   A    
C29   C30   S    
C13   C23   A    
C18   C20   A    
C16   C18   A    
C27   C28   S    
C11   C16   S    
C14   C24   A    
Cu1   Cu2   S    
C5    C7    D    
C4    C23   A    
C1    O1    A    
C29   H19   S    
C30   H18   S    
C6    C8    D    
Cu1   N2    S    
C17   C19   A    
C15   C17   A    
C13   H9    S    
Cu2   O6    S    
C1    O3    A    
Cu1   O1    S    
C25   C27   S    
C26   C29   S    
