data_mof_unit_22615.cif
_audit_creation_date              2012-12-11T16:51:17-0500
_audit_creation_method            fapswitch 2.2
_symmetry_space_group_name_H-M    P1
_symmetry_Int_Tables_number       1
_space_group_crystal_system       triclinic
_cell_length_a                    24.3606
_cell_length_b                    17.112003
_cell_length_c                    15.59875
_cell_angle_alpha                 90.347024
_cell_angle_beta                  129.227451
_cell_angle_gamma                 89.435728
_cell_volume                      5036.84240879

loop_
_atom_site_label
_atom_site_type_symbol
_atom_type_description
_atom_site_fract_x
_atom_site_fract_y
_atom_site_fract_z
_atom_type_partial_charge
C1    C     C_R   0.849275 0.858728 0.240541 -0.169001
C2    C     C_R   0.150961 0.858046 0.758747 -0.160390
C3    C     C_R   0.349947 0.357959 0.242748 -0.154023
C4    C     C_R   0.650957 0.358016 0.758439 -0.166982
C5    C     C_R   0.910362 0.144553 0.591360 -0.228929
C6    C     C_R   0.088392 0.143736 0.407449 -0.207549
C7    C     C_R   0.406287 0.640644 0.592222 -0.200495
C8    C     C_R   0.590405 0.643359 0.408664 -0.223034
C9    C     C_R   0.856183 0.186623 0.498213 0.024431
C10   C     C_R   0.139133 0.186650 0.500079 0.025784
C11   C     C_R   0.349704 0.680964 0.499631 -0.062655
C12   C     C_R   0.645231 0.684427 0.501923 0.025456
C13   C     C_R   0.854376 0.129280 0.136299 -0.152720
C14   C     C_R   0.147083 0.122550 0.868259 -0.140351
C15   C     C_R   0.353829 0.627849 0.135362 -0.162012
C16   C     C_R   0.645574 0.629579 0.863577 -0.153008
C17   C     C_R   0.779672 0.841892 0.606475 -0.184919
C18   C     C_R   0.225891 0.853167 0.396464 -0.179635
C19   C     C_R   0.295250 0.283252 0.568619 -0.150493
C20   C     C_R   0.722650 0.347287 0.393422 -0.184504
C21   C     C_R   0.757041 0.873487 0.506390 -0.097783
C22   C     C_R   0.246084 0.881073 0.497003 -0.032241
C23   C     C_R   0.267494 0.351639 0.507578 -0.109891
C24   C     C_R   0.744219 0.377565 0.493757 -0.098472
C25   C     C_R   0.685059 0.864386 0.411900 0.497435
C26   C     C_R   0.316470 0.866176 0.593417 0.483102
C27   C     C_R   0.196156 0.373296 0.454153 0.510454
C28   C     C_R   0.816146 0.368005 0.588588 0.497812
C29   C     C_R   0.152580 0.318614 0.451557 -0.206705
C30   C     C_R   0.854878 0.306061 0.590685 -0.218116
C31   C     C_R   0.646895 0.802811 0.409869 -0.211867
C32   C     C_R   0.351623 0.800367 0.595327 -0.189660
C33   C     C_R   0.181125 0.246172 0.504370 -0.061581
C34   C     C_R   0.825405 0.261633 0.494704 0.040969
C35   C     C_R   0.676872 0.757974 0.505512 0.040400
C36   C     C_R   0.321191 0.757433 0.497816 0.072191
C37   C     C_R   0.253463 0.231889 0.568915 0.067784
C38   C     C_R   0.763642 0.289178 0.393701 0.006399
C39   C     C_R   0.739228 0.784246 0.606318 -0.001246
C40   C     C_R   0.264084 0.791012 0.396956 -0.149905
C41   C     C_3   0.743239 0.825774 0.695785 0.864919
C42   C     C_3   0.269713 0.832749 0.318014 0.870266
C43   C     C_3   0.295349 0.162439 0.577048 0.781226
C44   C     C_3   0.761195 0.331475 0.306725 0.860843
C45   C     C_R   0.117648 0.903648 0.410411 -0.058155
C46   C     C_R   0.883241 0.902972 0.590260 -0.071631
C47   C     C_R   0.617082 0.403187 0.409777 -0.064300
C48   C     C_R   0.383777 0.404911 0.590928 -0.051549
C49   C     C_3   0.785991 0.888594 0.694499 0.145860
C50   C     C_3   0.230074 0.900581 0.319651 0.194916
C51   C     C_3   0.341769 0.220742 0.575282 0.208039
C52   C     C_3   0.717991 0.394851 0.308032 0.147842
C53   C     C_2   0.146858 0.742077 0.854671 -0.168736
C54   C     C_2   0.853603 0.742590 0.144011 -0.166792
C55   C     C_2   0.647072 0.241808 0.854153 -0.166245
C56   C     C_2   0.355144 0.241096 0.147839 -0.201484
C57   C     C_2   0.194059 0.699225 0.856932 -0.049467
C58   C     C_2   0.805920 0.701226 0.140986 -0.056827
C59   C     C_2   0.694644 0.199376 0.856844 -0.049675
C60   C     C_2   0.306489 0.200135 0.142695 -0.030503
C61   C     C_2   0.810685 0.161025 0.022322 0.539020
C62   C     C_2   0.191407 0.152604 0.983816 0.529219
C63   C     C_2   0.310010 0.659445 0.021272 0.535855
C64   C     C_2   0.689623 0.661747 0.977505 0.537679
C65   C     C_2   0.740986 0.146074 0.949321 -0.171247
C66   C     C_2   0.262410 0.145151 0.051691 -0.171163
C67   C     C_2   0.240098 0.645570 0.949066 -0.175216
C68   C     C_2   0.759822 0.647731 0.049020 -0.168716
C69   C     C_R   0.189721 0.899578 0.592324 0.443898
C70   C     C_R   0.810750 0.899041 0.408310 0.440917
C71   C     C_R   0.689622 0.399303 0.591672 0.438898
C72   C     C_R   0.310387 0.401991 0.408675 0.523173
C73   C     C_R   0.060462 0.859326 0.761738 0.553544
C74   C     C_R   0.939998 0.859099 0.238105 0.549710
C75   C     C_R   0.560467 0.359002 0.761373 0.557775
C76   C     C_R   0.440394 0.358454 0.239441 0.542233
C77   C     C_R   0.881052 0.816241 0.206287 -0.055634
C78   C     C_R   0.119474 0.815945 0.792974 -0.055465
C79   C     C_R   0.381892 0.315218 0.208920 -0.046560
C80   C     C_R   0.619485 0.315682 0.792430 -0.051318
C81   C     C_R   0.187843 0.891135 0.501952 -0.076730
C82   C     C_R   0.813503 0.889217 0.499344 -0.079726
C83   C     C_R   0.687143 0.390212 0.500707 -0.079196
C84   C     C_R   0.314811 0.392883 0.500312 -0.131546
C85   C     C_R   0.831823 0.139977 0.407895 0.507965
C86   C     C_R   0.161953 0.143576 0.591303 0.506888
C87   C     C_R   0.328011 0.636168 0.408366 0.552574
C88   C     C_R   0.669137 0.638279 0.592206 0.515251
C89   C     C_R   0.925133 0.109127 0.200420 -0.225711
C90   C     C_R   0.075621 0.106134 0.801817 -0.216259
C91   C     C_R   0.424800 0.608408 0.199852 -0.226676
C92   C     C_R   0.574909 0.609529 0.799787 -0.218778
C93   C     C_R   0.168147 0.099164 0.807441 0.558978
C94   C     C_R   0.832769 0.105652 0.195837 0.582307
C95   C     C_R   0.667035 0.605779 0.803551 0.579013
C96   C     C_R   0.332470 0.604585 0.195397 0.595967
H1    H     H_    0.800939 0.844657 0.225282 0.195155
H2    H     H_    0.199139 0.843067 0.773264 0.189410
H3    H     H_    0.302315 0.343540 0.229790 0.197274
H4    H     H_    0.699152 0.343215 0.772929 0.193345
H5    H     H_    0.758851 0.946482 0.664516 0.125532
H6    H     H_    0.262101 0.954528 0.358961 0.149549
H7    H     H_    0.397379 0.223618 0.653473 0.134444
H8    H     H_    0.745331 0.452074 0.340322 0.123824
H9    H     H_    0.208359 0.714117 0.805802 0.163805
H10   H     H_    0.791630 0.716811 0.192184 0.165669
H11   H     H_    0.709037 0.214490 0.805906 0.165294
H12   H     H_    0.290723 0.216376 0.191745 0.184193
H13   H     H_    0.134578 0.726894 0.908398 0.163586
H14   H     H_    0.866126 0.726574 0.090565 0.167034
H15   H     H_    0.634739 0.226394 0.907747 0.164958
H16   H     H_    0.369213 0.224208 0.096645 0.157054
H17   H     H_    0.099114 0.914230 0.327623 0.192064
H18   H     H_    0.901873 0.913206 0.673170 0.204032
H19   H     H_    0.598225 0.413650 0.326827 0.197685
H20   H     H_    0.403233 0.410606 0.675017 0.182860
H21   H     H_    0.955971 0.106892 0.172475 0.151953
H22   H     H_    0.044388 0.103671 0.829002 0.148984
H23   H     H_    0.455690 0.606144 0.171991 0.147692
H24   H     H_    0.544317 0.607793 0.828130 0.144853
H25   H     H_    0.940002 0.161721 0.676678 0.140482
H26   H     H_    0.063052 0.157995 0.322425 0.141761
H27   H     H_    0.435414 0.656616 0.677821 0.135654
H28   H     H_    0.561158 0.660185 0.323354 0.140223
N1    N     N_R   0.888400 0.921830 0.294620 -0.084137
N2    N     N_R   0.111600 0.921830 0.705380 -0.083912
N3    N     N_R   0.388400 0.421830 0.294620 -0.087716
N4    N     N_R   0.611600 0.421830 0.705380 -0.083683
N5    N     N_R   0.079940 0.922160 0.443410 -0.077415
N6    N     N_R   0.920060 0.922160 0.556590 -0.076698
N7    N     N_R   0.579940 0.422160 0.443410 -0.075039
N8    N     N_R   0.420060 0.422160 0.556590 -0.072396
N9    N     N_R   0.125650 0.922400 0.556620 -0.085270
N10   N     N_R   0.874350 0.922400 0.443380 -0.083074
N11   N     N_R   0.625650 0.422400 0.556620 -0.082124
N12   N     N_R   0.374350 0.422400 0.443380 -0.080271
N13   N     N_R   0.054230 0.922730 0.705400 -0.079582
N14   N     N_R   0.945770 0.922730 0.294600 -0.080605
N15   N     N_R   0.554230 0.422730 0.705400 -0.081610
N16   N     N_R   0.445770 0.422730 0.294600 -0.082420
N17   N     N_R   0.873790 0.077030 0.443380 -0.118755
N18   N     N_R   0.126210 0.077030 0.556620 -0.113289
N19   N     N_R   0.373790 0.577030 0.443380 -0.097974
N20   N     N_R   0.626210 0.577030 0.556620 -0.119254
N21   N     N_R   0.945200 0.076700 0.294600 -0.060042
N22   N     N_R   0.054800 0.076700 0.705400 -0.059064
N23   N     N_R   0.445200 0.576700 0.294600 -0.058326
N24   N     N_R   0.554800 0.576700 0.705400 -0.058213
N25   N     N_R   0.111030 0.077600 0.705380 -0.109207
N26   N     N_R   0.888970 0.077600 0.294620 -0.111001
N27   N     N_R   0.611030 0.577600 0.705380 -0.108764
N28   N     N_R   0.388970 0.577600 0.294620 -0.107194
N29   N     N_R   0.919490 0.077280 0.556590 -0.065508
N30   N     N_R   0.080510 0.077280 0.443410 -0.061340
N31   N     N_R   0.419490 0.577280 0.556590 -0.073330
N32   N     N_R   0.580510 0.577280 0.443410 -0.066374
Ni1   Ni    Ni4+2 0.882160 0.999430 0.370180 0.230402
Ni2   Ni    Ni4+2 0.117840 0.999430 0.629820 0.243085
Ni3   Ni    Ni4+2 0.382160 0.499430 0.370180 0.263457
Ni4   Ni    Ni4+2 0.617840 0.499430 0.629820 0.234779
Ni5   Ni    Ni4+2 0.012460 0.999430 0.370180 0.235262
Ni6   Ni    Ni4+2 0.987540 0.999430 0.629820 0.231413
Ni7   Ni    Ni4+2 0.512460 0.499430 0.370180 0.229576
Ni8   Ni    Ni4+2 0.487540 0.499430 0.629820 0.227838
H29   H     H_    0.096936 0.331659 0.406827 0.170891
H30   H     H_    0.907180 0.292728 0.666947 0.160181
H31   H     H_    0.594324 0.790417 0.333990 0.162021
H32   H     H_    0.402084 0.783446 0.672514 0.156011
O1    O     O_3   0.676727 0.852470 0.658537 -0.755198
H33   H     H_    0.685868 0.886025 0.718430 0.332766
O2    O     O_3   0.339940 0.850846 0.366153 -0.745005
H34   H     H_    0.337326 0.885386 0.312775 0.335027
O3    O     O_3   0.332191 0.124097 0.679009 -0.744347
H35   H     H_    0.369035 0.091552 0.686731 0.331287
O4    O     O_3   0.828246 0.356947 0.346692 -0.763416
H36   H     H_    0.820044 0.391094 0.288302 0.330720
O5    O     O_3   0.779764 0.784135 0.796197 -0.676432
H37   H     H_    0.820345 0.755836 0.809622 0.334836
O6    O     O_3   0.234238 0.795699 0.214456 -0.688550
H38   H     H_    0.189430 0.773234 0.192019 0.318578
O7    O     O_3   0.257325 0.109735 0.487290 -0.743441
H39   H     H_    0.220794 0.139185 0.418694 0.300371
O8    O     O_3   0.725635 0.291027 0.205506 -0.678977
H40   H     H_    0.684510 0.263438 0.189917 0.336564
O9    O     O_3   0.855976 0.895059 0.794480 -0.700196
H41   H     H_    0.884790 0.850449 0.800943 0.339815
O10   O     O_3   0.163647 0.916440 0.216237 -0.698753
H42   H     H_    0.129142 0.876317 0.200476 0.335095
O11   O     O_3   0.337598 0.214965 0.481036 -0.713646
H43   H     H_    0.288745 0.228356 0.414079 0.321750
O12   O     O_3   0.648581 0.403230 0.207078 -0.703921
H44   H     H_    0.619205 0.359060 0.198184 0.339194
H45   H     H_    0.715769 0.104370 0.965960 0.176747
H46   H     H_    0.289452 0.109651 0.031261 0.189637
H47   H     H_    0.214672 0.604756 0.966353 0.176124
H48   H     H_    0.785382 0.606103 0.031932 0.176804
O13   O     O_3   0.839565 0.213121 0.993140 -0.741652
H49   H     H_    0.889392 0.223238 0.058759 0.325952
O14   O     O_3   0.161255 0.197692 0.018700 -0.741234
H50   H     H_    0.110292 0.205676 0.955892 0.324236
O15   O     O_3   0.339034 0.710589 0.991300 -0.741191
H51   H     H_    0.389012 0.720458 0.056545 0.328057
O16   O     O_3   0.660480 0.713524 0.007777 -0.740067
H52   H     H_    0.610121 0.722901 0.943063 0.327487
O17   O     O_3   0.248831 0.905128 0.701124 -0.760822
H53   H     H_    0.276599 0.856781 0.717382 0.340761
O18   O     O_3   0.751210 0.903130 0.299524 -0.770823
H54   H     H_    0.723460 0.855874 0.285505 0.346128
O19   O     O_3   0.749057 0.403628 0.700474 -0.773811
H55   H     H_    0.777827 0.356719 0.714519 0.346252
O20   O     O_3   0.249700 0.408105 0.300305 -0.776690
H56   H     H_    0.209808 0.387966 0.295202 0.337101
O21   O     O_3   0.015884 0.843244 0.784866 -0.778412
H57   H     H_    0.030641 0.792731 0.824544 0.316886
O22   O     O_3   0.985135 0.842109 0.215895 -0.778288
H58   H     H_    0.970496 0.791779 0.175698 0.319155
O23   O     O_3   0.515983 0.342527 0.784532 -0.782493
H59   H     H_    0.530520 0.291669 0.823337 0.316596
O24   O     O_3   0.485443 0.341236 0.217121 -0.781970
H60   H     H_    0.471583 0.290217 0.178761 0.319462
O25   O     O_3   0.764836 0.144477 0.308469 -0.729883
H61   H     H_    0.746099 0.090585 0.290973 0.333241
O26   O     O_3   0.221801 0.158849 0.696981 -0.714157
H62   H     H_    0.249127 0.109352 0.723763 0.370938
O27   O     O_3   0.263862 0.639694 0.304068 -0.720770
H63   H     H_    0.228182 0.657571 0.311240 0.312947
O28   O     O_3   0.736627 0.640436 0.690809 -0.728699
H64   H     H_    0.754181 0.585731 0.707415 0.332332
O29   O     O_3   0.234786 0.070480 0.855827 -0.767911
H65   H     H_    0.229569 0.027595 0.808152 0.340556
O30   O     O_3   0.764222 0.086741 0.147698 -0.747721
H66   H     H_    0.766545 0.039083 0.185714 0.330309
O31   O     O_3   0.735658 0.586812 0.850746 -0.746861
H67   H     H_    0.733734 0.538406 0.813752 0.330626
O32   O     O_3   0.264025 0.585436 0.148131 -0.732955
H68   H     H_    0.266460 0.543139 0.193645 0.362659
O33   O     O_3   0.650364 0.914766 0.323033 -0.715164
H69   H     H_    0.678940 0.963010 0.346938 0.341616
O34   O     O_3   0.352009 0.914103 0.684879 -0.714164
H70   H     H_    0.324506 0.963462 0.663105 0.369215
O35   O     O_3   0.166957 0.444082 0.401432 -0.738818
H71   H     H_    0.205176 0.478735 0.418877 0.324723
O36   O     O_3   0.849973 0.417838 0.678005 -0.719336
H72   H     H_    0.820642 0.465986 0.654534 0.340008

loop_
_geom_bond_atom_site_label_1
_geom_bond_atom_site_label_2
_ccdc_geom_bond_type
C25   C31   A    
C57   H9    S    
O2    H34   S    
N2    N13   A    
C26   C32   A    
N26   Ni1   S    
C55   C59   D    
C74   O22   S    
C92   N24   A    
C49   O9    S    
C1    C77   A    
O15   H51   S    
N30   Ni5   S    
C93   N25   A    
O26   H62   S    
C76   C79   A    
O22   H58   S    
C3    C79   A    
C91   N23   A    
C38   C44   S    
C39   C41   S    
O17   H53   S    
N16   Ni7   S    
C47   H19   S    
C74   N14   A    
N4    Ni4   S    
N14   Ni5   S    
O29   H65   S    
C56   C79   S    
N21   Ni5   S    
C18   C50   S    
C32   C36   A    
C41   O5    S    
C11   C36   S    
N4    N15   A    
N18   Ni2   S    
C62   O14   S    
O35   H71   S    
N7    N11   A    
C17   C39   A    
N13   Ni6   S    
C3    N3    A    
C72   N12   A    
C88   O28   S    
C27   C29   A    
N1    Ni1   S    
C75   O23   S    
C76   O24   S    
C51   H7    S    
O36   H72   S    
C96   N28   A    
C5    H25   S    
C20   C38   A    
C54   H14   S    
N9    Ni2   S    
O1    H33   S    
C29   H29   S    
O28   H64   S    
C18   C40   A    
C14   C90   A    
C19   C37   A    
C9    C85   A    
C46   C82   A    
N12   Ni3   S    
C26   O34   S    
C10   C86   A    
O34   H70   S    
N32   Ni7   S    
C11   C87   A    
N20   N32   A    
C71   O19   S    
C74   C77   A    
C25   O33   S    
O32   H68   S    
C44   O4    S    
C28   O36   S    
C47   C83   A    
N20   Ni4   S    
N25   Ni2   S    
C14   C93   A    
C65   H45   S    
N21   N26   A    
C60   H12   S    
N8    N12   A    
C48   H20   S    
C54   C77   S    
C13   C89   A    
N6    Ni6   S    
C40   C42   S    
C90   H22   S    
C89   N21   A    
N28   Ni3   S    
C60   C66   S    
O14   H50   S    
C29   C33   A    
C18   C22   A    
O33   H69   S    
N22   Ni6   S    
C13   C61   S    
C73   O21   S    
C71   N11   A    
N6    N10   A    
C57   C67   S    
C67   H47   S    
C50   O10   S    
C27   O35   S    
C41   C49   S    
C66   H46   S    
C94   O30   S    
C7    C11   A    
C71   C83   A    
C76   N16   A    
C63   C67   D    
C72   O20   S    
C23   C84   S    
C30   C34   A    
O18   H54   S    
N24   Ni8   S    
C22   C81   S    
C20   C24   A    
C36   C40   A    
N24   N27   A    
C69   C81   A    
C30   H30   S    
C61   O13   S    
O24   H60   S    
C62   C66   D    
C4    N4    A    
C19   C23   A    
C8    H28   S    
C46   N6    A    
C51   O11   S    
C87   O27   S    
C70   O18   S    
O3    H35   S    
C73   C78   A    
C41   O1    S    
C43   O7    S    
C59   H11   S    
C56   C60   D    
C47   N7    A    
C58   H10   S    
C52   O12   S    
O7    H39   S    
C35   C39   A    
O8    H40   S    
N8    Ni8   S    
C5    C9    A    
O25   H61   S    
C2    C78   A    
C3    H3    S    
N23   Ni7   S    
N22   N25   A    
C48   C84   A    
N2    Ni2   S    
N19   N31   A    
O20   H56   S    
N7    Ni7   S    
C42   O6    S    
C8    C12   A    
C12   C88   A    
C1    H1    S    
C17   C21   A    
O19   H55   S    
N5    Ni5   S    
C68   H48   S    
C72   C84   A    
N18   N30   A    
C12   C35   S    
N19   Ni3   S    
C44   O8    S    
C6    N30   A    
C42   C50   S    
N5    N9    A    
C2    N2    A    
N17   Ni1   S    
C64   O16   S    
C31   H31   S    
C50   H6    S    
C23   C27   A    
C4    H4    S    
C22   C26   A    
C9    C34   S    
N1    N14   A    
C31   C35   A    
C37   C43   S    
C95   N27   A    
N3    N16   A    
C6    H26   S    
C17   C49   S    
C64   C68   D    
C15   C96   A    
C86   N18   A    
C54   C58   D    
C70   C82   A    
C93   O29   S    
O12   H44   S    
N17   N29   A    
C21   C25   A    
C52   H8    S    
C16   C95   A    
C69   N9    A    
N11   Ni4   S    
C63   O15   S    
C55   H15   S    
C34   C38   A    
N3    Ni3   S    
C24   C83   S    
C4    C80   A    
C45   C81   A    
C24   C28   A    
C46   H18   S    
C1    N1    A    
C53   C57   D    
C44   C52   S    
C6    C10   A    
N10   Ni1   S    
C16   C92   A    
O13   H49   S    
N31   Ni8   S    
C94   N26   A    
C16   C64   S    
N29   Ni6   S    
C69   O17   S    
C13   C94   A    
N27   Ni4   S    
C28   C30   A    
N23   N28   A    
O23   H59   S    
O10   H42   S    
C20   C52   S    
O4    H36   S    
C75   N15   A    
C59   C65   S    
C49   H5    S    
C55   C80   S    
C43   O3    S    
C58   C68   S    
O9    H41   S    
C73   N13   A    
C89   H21   S    
C43   C51   S    
C19   C51   S    
O21   H57   S    
C45   N5    A    
C96   O32   S    
C56   H16   S    
C53   C78   S    
C10   C33   S    
C91   H23   S    
C61   C65   D    
C92   H24   S    
O11   H43   S    
C8    N32   A    
C33   C37   A    
N15   Ni8   S    
C42   O2    S    
C15   C91   A    
O6    H38   S    
C5    N29   A    
C45   H17   S    
C85   N17   A    
C75   C80   A    
C7    N31   A    
C21   C82   S    
C2    H2    S    
C90   N22   A    
O5    H37   S    
C86   O26   S    
O30   H66   S    
C70   N10   A    
C32   H32   S    
C15   C63   S    
C48   N8    A    
C53   H13   S    
C95   O31   S    
O16   H52   S    
C87   N19   A    
C85   O25   S    
C88   N20   A    
O31   H67   S    
C7    H27   S    
O27   H63   S    
C14   C62   S    
