data_mof_unit_10158.cif
_audit_creation_date              2012-12-10T17:52:20-0500
_audit_creation_method            fapswitch 2.2
_symmetry_space_group_name_H-M    P1
_symmetry_Int_Tables_number       1
_space_group_crystal_system       triclinic
_cell_length_a                    18.92701
_cell_length_b                    10.725896
_cell_length_c                    9.904216
_cell_angle_alpha                 90.087137
_cell_angle_beta                  90.405627
_cell_angle_gamma                 92.204551
_cell_volume                      2009.10464544

loop_
_atom_site_label
_atom_site_type_symbol
_atom_type_description
_atom_site_fract_x
_atom_site_fract_y
_atom_site_fract_z
_atom_type_partial_charge
C1    C     C_R   0.505274 0.260339 0.501093 0.864615
C2    C     C_R   0.290711 0.531808 0.498469 -0.120798
C3    C     C_R   0.932190 0.607129 0.490233 0.308038
C4    C     C_R   0.074882 0.624371 0.488120 0.275685
C5    C     C_R   0.816871 0.607312 0.606199 -0.146785
C6    C     C_R   0.745290 0.575008 0.610294 -0.217560
C7    C     C_R   0.712135 0.512804 0.500835 -0.173782
C8    C     C_R   0.752686 0.478199 0.387951 0.447303
C9    C     C_R   0.823789 0.515702 0.382965 -0.141660
C10   C     C_R   0.856175 0.579696 0.491706 -0.014627
C11   C     C_R   0.528512 0.114003 0.756498 -0.279622
C12   C     C_R   0.365255 0.503483 0.499644 0.860762
C13   C     C_R   0.509969 0.054380 0.878236 0.511560
C14   C     C_R   0.471669 0.941142 0.873344 -0.119661
C15   C     C_R   0.458289 0.882426 0.749731 -0.238804
C16   C     C_R   0.482992 0.936999 0.627789 0.098141
C17   C     C_R   0.507768 0.061145 0.630099 0.057152
C18   C     C_R   0.509757 0.126754 0.505379 -0.112194
C19   C     C_R   0.503472 0.063109 0.382546 -0.199108
C20   C     C_R   0.494235 0.936036 0.381683 -0.193979
C21   C     C_R   0.485804 0.871949 0.503469 -0.118650
C22   C     C_R   0.407849 0.334240 0.138709 -0.117487
C23   C     C_R   0.493453 0.739103 0.500614 0.892204
C24   C     C_R   0.362887 0.251636 0.067807 -0.169956
C25   C     C_R   0.362828 0.251537 0.928041 -0.164837
C26   C     C_R   0.407728 0.334042 0.858331 -0.117058
C27   C     C_R   0.454610 0.418087 0.926810 0.071415
C28   C     C_R   0.454656 0.418158 0.071485 0.138452
C29   C     C_R   0.542991 0.578476 0.073756 -0.084826
C30   C     C_R   0.543516 0.579336 0.931403 0.446619
C31   C     C_R   0.635025 0.499336 0.500282 0.864414
C32   C     C_R   0.263159 0.599190 0.606047 -0.188222
C33   C     C_R   0.194716 0.641736 0.599788 0.467076
C34   C     C_R   0.151412 0.609011 0.486901 -0.045254
C35   C     C_R   0.180013 0.543471 0.378467 -0.187390
C36   C     C_R   0.249309 0.506112 0.383742 -0.196217
H1    H     H_    0.295982 0.624473 0.692720 0.172769
H2    H     H_    0.560620 0.199337 0.762399 0.171653
H3    H     H_    0.454002 0.896552 0.965835 0.152675
H4    H     H_    0.427607 0.795289 0.750931 0.179374
H5    H     H_    0.494400 0.888161 0.285246 0.186261
H6    H     H_    0.578004 0.642346 0.129465 0.182895
H7    H     H_    0.404187 0.329913 0.245788 0.194982
H8    H     H_    0.327658 0.187677 0.121809 0.147317
H9    H     H_    0.327665 0.187304 0.873087 0.150339
H10   H     H_    0.404132 0.328931 0.751208 0.204977
H11   H     H_    0.148085 0.516953 0.291116 0.177132
H12   H     H_    0.270289 0.455897 0.298857 0.163042
H13   H     H_    0.841244 0.655692 0.691680 0.171143
H14   H     H_    0.715463 0.602429 0.697675 0.198189
H15   H     H_    0.854429 0.489586 0.296069 0.176454
H16   H     H_    0.505987 0.111249 0.286508 0.216886
N1    N     N_R   0.037591 0.622931 0.370663 -0.163235
N2    N     N_R   0.967435 0.614418 0.371681 -0.166136
N3    N     N_R   0.969294 0.612024 0.607692 -0.159407
N4    N     N_R   0.039425 0.619650 0.606574 -0.138946
N5    N     N_R   0.499340 0.498800 0.142780 -0.162046
N6    N     N_R   0.499320 0.498720 0.857170 -0.187683
O1    O     O_R   0.500000 0.316780 0.614690 -0.645477
O2    O     O_R   0.499990 0.316750 0.385360 -0.635369
O3    O     O_R   0.398140 0.500000 0.614700 -0.642595
O4    O     O_R   0.398130 0.499970 0.385370 -0.630047
O5    O     O_R   0.500010 0.683250 0.614640 -0.640576
O6    O     O_R   0.500000 0.683220 0.385310 -0.617122
O7    O     O_R   0.601870 0.500030 0.614630 -0.631484
O8    O     O_R   0.601860 0.500000 0.385300 -0.587611
Zn1   Zn    Zn3+2 0.500000 0.500020 0.653130 0.920965
Zn2   Zn    Zn3+2 0.500000 0.499980 0.346870 0.948834
O9    O     O_3   0.526948 0.105744 0.002591 -0.782338
H17   H     H_    0.552627 0.187031 0.988931 0.332960
O10   O     O_3   0.172895 0.715779 0.704362 -0.758892
H18   H     H_    0.136246 0.771038 0.669487 0.339139
O11   O     O_3   0.589877 0.664139 0.872186 -0.774184
H19   H     H_    0.586967 0.653770 0.774192 0.388379
O12   O     O_3   0.725561 0.407053 0.282174 -0.746972
H20   H     H_    0.686486 0.352152 0.316620 0.338797

loop_
_geom_bond_atom_site_label_1
_geom_bond_atom_site_label_2
_ccdc_geom_bond_type
C31   O8    A    
O8    Zn2   S    
N3    N4    A    
C16   C21   A    
C4    N1    A    
O11   H19   S    
C35   C36   A    
C9    H15   S    
C2    C12   S    
C20   H5    S    
C7    C8    A    
N1    N2    A    
C26   C27   A    
O6    Zn2   S    
C18   C19   A    
C1    O1    A    
C5    C6    A    
C29   H6    S    
C3    N2    A    
C15   C16   A    
C2    C32   A    
C34   C35   A    
O1    Zn1   S    
C14   H3    S    
C3    N3    A    
C19   H16   S    
C19   C20   A    
C8    C9    A    
O7    Zn1   S    
C9    C10   A    
C23   O5    A    
C35   H11   S    
C22   C28   A    
C13   C14   A    
C4    N4    A    
C5    H13   S    
C33   C34   A    
C4    C34   S    
O5    Zn1   S    
C7    C31   S    
C24   C25   A    
C1    O2    A    
C30   O11   S    
C26   H10   S    
C16   C17   A    
C25   C26   A    
C28   N5    A    
C8    O12   S    
C11   H2    S    
O12   H20   S    
C29   C30   A    
C12   O4    A    
O3    Zn1   S    
C22   H7    S    
C17   C18   A    
C1    C18   S    
C32   H1    S    
C6    H14   S    
C23   O6    A    
C29   N5    A    
C21   C23   S    
C24   H8    S    
C22   C24   A    
N5    Zn2   S    
C25   H9    S    
C2    C36   A    
C31   O7    A    
C11   C17   A    
C27   N6    A    
C6    C7    A    
O4    Zn2   S    
C32   C33   A    
C5    C10   A    
C3    C10   S    
C12   O3    A    
C11   C13   A    
C13   O9    S    
C30   N6    A    
C36   H12   S    
O9    H17   S    
C15   H4    S    
C33   O10   S    
N6    Zn1   S    
O10   H18   S    
C20   C21   A    
O2    Zn2   S    
C27   C28   A    
C14   C15   A    
