data_mof_unit_59644.cif
_audit_creation_date              2012-12-10T19:00:12-0500
_audit_creation_method            fapswitch 2.2
_symmetry_space_group_name_H-M    P1
_symmetry_Int_Tables_number       1
_space_group_crystal_system       triclinic
_cell_length_a                    9.597317
_cell_length_b                    10.821938
_cell_length_c                    13.416941
_cell_angle_alpha                 90.251361
_cell_angle_beta                  73.183033
_cell_angle_gamma                 89.985584
_cell_volume                      1333.89522626

loop_
_atom_site_label
_atom_site_type_symbol
_atom_type_description
_atom_site_fract_x
_atom_site_fract_y
_atom_site_fract_z
_atom_type_partial_charge
C1    C     C_R   0.500578 0.737496 0.498569 0.811552
C2    C     C_R   0.447399 0.436155 0.974497 0.077868
C3    C     C_R   0.490875 0.434336 0.864454 0.029899
C4    C     C_R   0.554631 0.455127 0.026973 0.044785
C5    C     C_R   0.703996 0.458985 0.969225 0.115315
C6    C     C_R   0.744802 0.429783 0.862410 0.096681
C7    C     C_R   0.638656 0.412487 0.812767 -0.177208
C8    C     C_R   0.516915 0.476359 0.134538 -0.232841
C9    C     C_R   0.769059 0.503920 0.127651 -0.192690
C10   C     C_R   0.384322 0.450871 0.810652 -0.093720
C11   C     C_R   0.376084 0.936331 0.497237 0.087408
C12   C     C_R   0.423861 0.484787 0.698787 0.781606
C13   C     C_R   0.503976 0.870681 0.489449 -0.090855
C14   C     C_R   0.636235 0.935392 0.468637 -0.220849
C15   C     C_R   0.636140 0.064246 0.468905 -0.215676
C16   C     C_R   0.503828 0.129210 0.489719 -0.124509
C17   C     C_R   0.375987 0.063767 0.496971 0.130829
C18   C     C_3   0.231992 0.069758 0.578972 -0.026359
C19   C     C_3   0.232005 0.928991 0.578444 -0.531756
C20   C     C_R   0.942448 0.401864 0.460296 0.264639
C21   C     C_R   0.905601 0.589886 0.549783 -0.069570
C22   C     C_R   0.054044 0.589718 0.549986 -0.083544
C23   C     C_R   0.500592 0.262487 0.498570 0.789963
C24   C     C_R   0.089474 0.402154 0.459926 0.336348
C25   C     C_3   0.137974 0.354895 0.350894 -0.520036
C26   C     C_3   0.979503 0.353006 0.351865 -0.522736
C27   C     C_R   0.577863 0.500736 0.300016 0.793294
C28   C     C_R   0.808545 0.489331 0.019927 -0.208602
C29   C     C_R   0.622827 0.494485 0.185803 -0.045973
C30   C     C_R   0.237793 0.435476 0.865911 -0.204019
C31   C     C_R   0.196951 0.410578 0.972110 -0.159672
C32   C     C_R   0.299000 0.416438 0.027030 -0.165371
Cu1   Cu    Cu3+1 0.359330 0.500020 0.500010 0.953126
Cu2   Cu    Cu3+1 0.640670 0.499980 0.499990 0.935625
H1    H     H_    0.852650 0.523269 0.165083 0.145889
H2    H     H_    0.738506 0.112344 0.457242 0.159772
H3    H     H_    0.237800 0.112531 0.653249 0.158294
H4    H     H_    0.240322 0.888514 0.652553 0.182415
H5    H     H_    0.147267 0.886604 0.547630 0.193067
H6    H     H_    0.834708 0.664017 0.588671 0.142323
H7    H     H_    0.093279 0.663322 0.589414 0.137461
H8    H     H_    0.202022 0.424501 0.296677 0.199567
H9    H     H_    0.188000 0.261555 0.344962 0.208073
H10   H     H_    0.954916 0.419550 0.296412 0.213320
H11   H     H_    0.936778 0.258127 0.348578 0.193182
H12   H     H_    0.920558 0.503229 0.976260 0.133662
H13   H     H_    0.405020 0.481437 0.179689 0.141133
H14   H     H_    0.156019 0.440047 0.825953 0.149730
H15   H     H_    0.259642 0.399971 0.109554 0.124489
H16   H     H_    0.085646 0.388716 0.013382 0.138672
H17   H     H_    0.675119 0.377781 0.733971 0.197037
H18   H     H_    0.738683 0.887099 0.456667 0.161015
N1    N     N_R   0.852320 0.499070 0.499340 -0.192782
N2    N     N_R   0.148230 0.499110 0.499340 -0.190929
O1    O     O_R   0.381190 0.680360 0.500000 -0.577580
O2    O     O_R   0.618780 0.680320 0.499990 -0.588697
O3    O     O_R   0.323230 0.500000 0.650990 -0.576886
O4    O     O_R   0.560820 0.499960 0.650980 -0.588565
O5    O     O_R   0.381220 0.319680 0.500010 -0.560782
O6    O     O_R   0.618810 0.319640 0.500000 -0.591303
O7    O     O_R   0.439180 0.500040 0.349020 -0.586166
O8    O     O_R   0.676770 0.500000 0.349010 -0.583892
N3    N     N_3   0.118339 0.123892 0.539809 -0.574600
H19   H     H_    0.114842 0.079126 0.471247 0.218679
H20   H     H_    0.018204 0.108599 0.595341 0.223327
N4    N     N_3   0.893111 0.415397 0.801746 -0.602830
H21   H     H_    0.945299 0.500456 0.799680 0.214812
H22   H     H_    0.941079 0.348485 0.837192 0.216144

loop_
_geom_bond_atom_site_label_1
_geom_bond_atom_site_label_2
_ccdc_geom_bond_type
C25   H8    S    
Cu1   O1    S    
C2    C4    A    
N3    H20   S    
Cu2   O2    S    
C6    C7    A    
C27   O8    A    
C16   C17   A    
C27   C29   S    
C5    C28   A    
C10   C30   A    
N4    H22   S    
C31   C32   A    
C26   H11   S    
C17   C18   S    
C9    C29   A    
C30   C31   A    
C4    C8    A    
C12   O4    A    
C25   H9    S    
C2    C3    A    
C23   O5    A    
C8    H13   S    
C7    H17   S    
Cu1   O5    S    
C3    C10   A    
C13   C14   A    
Cu2   O6    S    
C11   C13   A    
C11   C19   S    
C5    C6    A    
C21   H6    S    
C19   H5    S    
C12   O3    A    
C21   N1    A    
C2    C32   A    
C19   H4    S    
C18   H3    S    
Cu1   Cu2   S    
C16   C23   S    
C10   C12   S    
C22   N2    A    
C1    O1    A    
C23   O6    A    
C18   N3    S    
Cu2   O4    S    
C14   H18   S    
C32   H15   S    
C22   H7    S    
C1    C13   S    
C8    C29   A    
C31   H16   S    
C26   H10   S    
N3    H19   S    
Cu2   O8    S    
C20   C24   A    
C15   H2    S    
C6    N4    S    
N4    H21   S    
C24   C25   S    
Cu2   N1    S    
Cu1   O7    S    
C18   C19   S    
C30   H14   S    
Cu1   N2    S    
C9    H1    S    
C28   H12   S    
C14   C15   A    
C4    C5    A    
Cu1   O3    S    
C27   O7    A    
C3    C7    A    
C25   C26   S    
C21   C22   A    
C24   N2    A    
C1    O2    A    
C11   C17   A    
C15   C16   A    
C9    C28   A    
C20   N1    A    
C20   C26   S    
