data_mof_unit_6856.cif
_audit_creation_date              2012-10-26T20:16:41-0400
_audit_creation_method            fapswitch 2.2
_symmetry_space_group_name_H-M    P1
_symmetry_Int_Tables_number       1
_space_group_crystal_system       triclinic
_cell_length_a                    10.906708
_cell_length_b                    10.905065
_cell_length_c                    9.801672
_cell_angle_alpha                 98.736169
_cell_angle_beta                  98.727926
_cell_angle_gamma                 92.979648
_cell_volume                      1135.56256953

loop_
_atom_site_label
_atom_site_type_symbol
_atom_type_description
_atom_site_fract_x
_atom_site_fract_y
_atom_site_fract_z
_atom_type_partial_charge
C1    C     C_R   0.500940 0.261969 0.499288 0.543815
C2    C     C_R   0.672461 0.948995 0.849652 -0.095813
C3    C     C_R   0.447561 0.076590 0.228528 0.061382
C4    C     C_R   0.552437 0.923409 0.771472 0.061382
C5    C     C_R   0.541985 0.132148 0.169855 -0.030162
C6    C     C_R   0.458013 0.867851 0.830144 -0.030162
C7    C     C_R   0.514993 0.166415 0.037370 -0.093006
C8    C     C_R   0.485004 0.833584 0.962629 -0.093005
C9    C     C_R   0.394746 0.142294 0.961115 -0.122706
C10   C     C_R   0.605250 0.857704 0.038885 -0.122705
C11   C     C_R   0.471577 0.914921 0.375976 -0.165856
C12   C     C_R   0.499060 0.738031 0.500712 0.543815
C13   C     C_R   0.528422 0.085079 0.624023 -0.165856
C14   C     C_R   0.497772 0.872247 0.503789 -0.008734
C15   C     C_R   0.502227 0.127753 0.496210 -0.008734
C16   C     C_R   0.261971 0.500939 0.499287 0.543759
C17   C     C_R   0.738029 0.499061 0.500713 0.543759
C18   C     C_R   0.525276 0.958802 0.630336 -0.032948
C19   C     C_R   0.474723 0.041197 0.369664 -0.032949
C20   C     C_2   0.510773 0.510298 0.078979 -0.042908
C21   C     C_2   0.489227 0.489702 0.921021 -0.042908
C22   C     C_R   0.166089 0.514560 0.037100 -0.093850
C23   C     C_R   0.872247 0.497796 0.503795 -0.008770
C24   C     C_R   0.833912 0.485443 0.962901 -0.093851
C25   C     C_R   0.132126 0.541626 0.169735 -0.030173
C26   C     C_R   0.867874 0.458376 0.830266 -0.030173
C27   C     C_R   0.076573 0.447278 0.228531 0.061408
C28   C     C_R   0.923427 0.552724 0.771469 0.061408
C29   C     C_R   0.050751 0.327241 0.150362 -0.095928
C30   C     C_R   0.949249 0.672761 0.849638 -0.095928
C31   C     C_R   0.082488 0.301347 0.016651 -0.119934
C32   C     C_R   0.917512 0.698656 0.983348 -0.119934
C33   C     C_R   0.141703 0.394306 0.960838 -0.123188
C34   C     C_R   0.127752 0.502205 0.496204 -0.008770
C35   C     C_R   0.858298 0.605696 0.039162 -0.123188
C36   C     C_R   0.914937 0.471488 0.375996 -0.165847
C37   C     C_R   0.085062 0.528512 0.624004 -0.165847
C38   C     C_R   0.958794 0.525410 0.630325 -0.032896
C39   C     C_R   0.041206 0.474591 0.369675 -0.032896
C40   C     C_R   0.301722 0.083023 0.016771 -0.119870
C41   C     C_R   0.698275 0.916976 0.983230 -0.119870
C42   C     C_R   0.327537 0.051005 0.150349 -0.095814
Cu1   Cu    Cu3+1 0.521120 0.521140 0.639640 0.933629
Cu2   Cu    Cu3+1 0.478880 0.478860 0.360360 0.933629
H1    H     H_    0.167341 0.373392 0.857906 0.100302
H2    H     H_    0.582079 0.580747 0.135016 0.143149
H3    H     H_    0.620069 0.618908 0.904927 0.230179
H4    H     H_    0.379931 0.381092 0.095072 0.230179
H5    H     H_    0.150489 0.635326 0.227496 0.098150
H6    H     H_    0.849511 0.364676 0.772505 0.098150
H7    H     H_    0.005673 0.254091 0.192798 0.092724
H8    H     H_    0.994327 0.745911 0.807201 0.092724
H9    H     H_    0.060202 0.209435 0.955817 0.091798
H10   H     H_    0.939798 0.790568 0.044181 0.091798
H11   H     H_    0.849456 0.449167 0.279230 0.126427
H12   H     H_    0.832660 0.626610 0.142094 0.100302
H13   H     H_    0.150544 0.550834 0.720770 0.126427
H14   H     H_    0.373883 0.168180 0.858305 0.100258
H15   H     H_    0.626113 0.831819 0.141695 0.100258
H16   H     H_    0.209814 0.060938 0.955927 0.091840
H17   H     H_    0.790182 0.939062 0.044075 0.091840
H18   H     H_    0.254322 0.005943 0.192696 0.092716
H19   H     H_    0.745676 0.994057 0.807306 0.092716
H20   H     H_    0.210754 0.586907 0.993221 0.096220
H21   H     H_    0.789246 0.413095 0.006780 0.096221
H22   H     H_    0.635667 0.150356 0.227639 0.097915
H23   H     H_    0.364331 0.849643 0.772359 0.097915
H24   H     H_    0.587390 0.211113 0.993600 0.096203
H25   H     H_    0.412606 0.788886 0.006398 0.096203
H26   H     H_    0.449316 0.849426 0.279201 0.126508
H27   H     H_    0.550683 0.150574 0.720799 0.126508
H28   H     H_    0.417920 0.419253 0.864984 0.143148
N1    N     N_2   0.447120 0.447110 0.150550 -0.350208
N2    N     N_2   0.552880 0.552890 0.849450 -0.350208
O1    O     O_R   0.517830 0.337490 0.617920 -0.513191
O2    O     O_R   0.482170 0.662510 0.382080 -0.513191
O3    O     O_R   0.482150 0.301790 0.382070 -0.484415
O4    O     O_R   0.517850 0.698210 0.617930 -0.484414
O5    O     O_R   0.337480 0.517860 0.617920 -0.513300
O6    O     O_R   0.662520 0.482140 0.382080 -0.513300
O7    O     O_R   0.301810 0.482160 0.382070 -0.484679
O8    O     O_R   0.698190 0.517840 0.617930 -0.484679

loop_
_geom_bond_atom_site_label_1
_geom_bond_atom_site_label_2
_ccdc_geom_bond_type
C3    C42   A    
C40   H16   S    
C27   C29   A    
C34   C37   A    
C33   H1    S    
C14   C18   A    
C41   H17   S    
C11   H26   S    
Cu1   O4    S    
C15   C19   A    
C11   C19   A    
C8    H25   S    
C17   C23   S    
C13   C18   A    
Cu2   O3    S    
C24   C26   A    
C9    H14   S    
C26   H6    S    
C11   C14   A    
C2    C41   A    
Cu1   O5    S    
C1    O3    A    
C17   O8    A    
Cu2   O2    S    
C16   C34   S    
C7    H24   S    
C27   C39   S    
C22   C25   A    
C12   O4    A    
C31   C33   A    
C3    C19   S    
C1    C15   S    
C42   H18   S    
C4    C18   S    
Cu1   N2    S    
C40   C42   A    
C10   C41   A    
C32   H10   S    
Cu1   O1    S    
C24   C35   A    
C21   H28   S    
C34   C39   A    
C1    O1    A    
C32   C35   A    
Cu2   O6    S    
C4    C6    A    
Cu2   O7    S    
C5    C7    A    
C6    C8    A    
C13   H27   S    
C21   N2    D    
C9    C40   A    
C2    C4    A    
Cu1   Cu2   S    
C37   C38   A    
C28   C38   S    
C31   H9    S    
C24   H21   S    
C6    H23   S    
C12   C14   S    
C13   C15   A    
C12   O2    A    
C2    H19   S    
C29   H7    S    
C7    C9    A    
C22   C33   A    
C30   H8    S    
C35   H12   S    
H4    N1    S    
C36   C39   A    
H3    N2    S    
C5    H22   S    
C3    C5    A    
C37   H13   S    
C25   C27   A    
C23   C38   A    
C26   C28   A    
C16   O5    A    
C28   C30   A    
C10   H15   S    
C29   C31   A    
C36   H11   S    
C30   C32   A    
C16   O7    A    
C20   N1    D    
C17   O6    A    
Cu2   N1    S    
C25   H5    S    
C22   H20   S    
C20   C21   S    
C8    C10   A    
C23   C36   A    
Cu1   O8    S    
C20   H2    S    
