data_mof_unit_44606.cif
_audit_creation_date              2013-03-05T16:19:43-0500
_audit_creation_method            fapswitch 2.2
_symmetry_space_group_name_H-M    P1
_symmetry_Int_Tables_number       1
_space_group_crystal_system       triclinic
_cell_length_a                    10.672699
_cell_length_b                    9.838134
_cell_length_c                    27.423482
_cell_angle_alpha                 89.503332
_cell_angle_beta                  91.375554
_cell_angle_gamma                 90.143467
_cell_volume                      2878.50479699

loop_
_atom_site_label
_atom_site_type_symbol
_atom_site_description
_atom_site_fract_x
_atom_site_fract_y
_atom_site_fract_z
_atom_type_partial_charge
O1    O     O_R   0.314910 0.616040 0.499990 -0.628646
O2    O     O_R   0.314910 0.383960 0.499990 -0.658752
C1    C     C_R   0.257966 0.499815 0.499942 0.860824
O3    O     O_R   0.500140 0.616020 0.428740 -0.629523
O4    O     O_R   0.500140 0.383980 0.428740 -0.600611
C2    C     C_R   0.499304 0.500047 0.406039 0.873461
Zn1   Zn    Zn3+2 0.500150 0.654960 0.499980 0.912259
Zn2   Zn    Zn3+2 0.500150 0.345040 0.499980 0.924090
O5    O     O_R   0.685320 0.616040 0.499970 -0.639802
O6    O     O_R   0.685320 0.383960 0.499970 -0.648586
O7    O     O_R   0.500090 0.616050 0.571230 -0.631569
O8    O     O_R   0.500090 0.383950 0.571230 -0.595614
C3    C     C_R   0.741560 0.500118 0.503336 0.803952
C4    C     C_R   0.501248 0.500058 0.593989 0.883607
C5    C     C_R   0.418324 0.513783 0.169786 0.525338
O9    O     O_2   0.305071 0.486867 0.188569 -0.554584
N1    N     N_R   0.522717 0.518428 0.199751 -0.349707
C6    C     C_R   0.639327 0.541008 0.181491 0.524956
C7    C     C_R   0.578044 0.407714 0.278133 -0.075911
C8    C     C_R   0.574042 0.404995 0.328814 -0.143988
C9    C     C_R   0.424941 0.590378 0.326259 -0.189173
C10   C     C_R   0.431567 0.596025 0.275807 -0.070208
C11   C     C_R   0.509391 0.505857 0.251472 0.269101
C12   C     C_R   0.547973 0.556611 0.100103 -0.062863
C13   C     C_R   0.428622 0.536165 0.119531 -0.056142
C14   C     C_R   0.322879 0.533410 0.088385 -0.141753
C15   C     C_R   0.654401 0.557208 0.131230 -0.055357
C16   C     C_R   0.499683 0.498883 0.353024 -0.036473
H1    H     H_    0.360262 0.655659 0.344287 0.194424
H2    H     H_    0.377108 0.671393 0.255658 0.170512
H3    H     H_    0.231516 0.510280 0.102851 0.194624
C17   C     C_R   0.523774 0.504079 0.646733 -0.000362
C18   C     C_R   0.470152 0.625067 0.969742 0.059800
C19   C     C_R   0.690927 0.562952 0.978212 0.006392
C20   C     C_R   0.585841 0.595361 0.948497 0.079164
C21   C     C_R   0.377251 0.690775 0.941142 -0.218361
C22   C     C_R   0.389591 0.702636 0.891031 -0.122325
C23   C     C_R   0.493661 0.645880 0.868659 -0.002134
C24   C     C_R   0.593781 0.593027 0.897363 -0.080530
C25   C     C_R   0.698730 0.533855 0.875220 -0.041585
C26   C     C_R   0.691652 0.515102 0.824048 0.662040
N2    N     N_R   0.591360 0.564456 0.797346 -0.316131
C27   C     C_R   0.497543 0.635891 0.818222 0.580675
C28   C     C_R   0.479870 0.444105 0.730804 -0.006283
C29   C     C_R   0.446089 0.438921 0.680641 0.104136
C30   C     C_R   0.624677 0.583921 0.662844 -0.344338
C31   C     C_R   0.649554 0.604672 0.712121 0.014465
C32   C     C_R   0.577728 0.533324 0.746513 0.248249
O10   O     O_2   0.405407 0.691701 0.790047 -0.550064
C33   C     C_R   0.452684 0.587781 0.018925 0.035657
C34   C     C_R   0.561046 0.575181 0.049513 -0.004693
C35   C     C_R   0.682534 0.578642 0.029445 0.050370
C36   C     C_R   0.333406 0.555260 0.038193 0.187964
H4    H     H_    0.314161 0.749293 0.869768 0.196427
H5    H     H_    0.295150 0.733734 0.957280 0.170089
O11   O     O_2   0.740201 0.549861 0.211970 -0.561943
C37   C     C_R   0.772833 0.579474 0.111925 -0.139080
H6    H     H_    0.630595 0.331666 0.349130 0.151716
H7    H     H_    0.636860 0.336010 0.259642 0.157894
H8    H     H_    0.854378 0.588542 0.136053 0.204359
C38   C     C_R   0.796312 0.506740 0.956222 -0.209422
C39   C     C_R   0.801891 0.490812 0.905477 0.182643
O12   O     O_2   0.781333 0.446491 0.800892 -0.539223
C40   C     C_R   0.788074 0.594205 0.061683 0.178172
H9    H     H_    0.872305 0.466824 0.978777 0.171633
H10   H     H_    0.680646 0.636824 0.636356 0.151325
C41   C     C_3   0.076021 0.632041 0.525129 -0.377711
C42   C     C_3   0.076206 0.380109 0.533588 -0.405201
H11   H     H_    0.110986 0.725151 0.506642 0.167366
H12   H     H_    0.113066 0.280311 0.521937 0.157173
H13   H     H_    0.117108 0.635487 0.562716 0.263177
H14   H     H_    0.116214 0.395760 0.570909 0.216353
C43   C     C_3   0.932559 0.636489 0.525452 -0.155909
C44   C     C_3   0.931762 0.373447 0.533391 -0.168747
H15   H     H_    0.903231 0.720368 0.500110 0.114031
H16   H     H_    0.903776 0.280604 0.512822 0.117505
H17   H     H_    0.875337 0.574673 0.429142 0.172224
H18   H     H_    0.874794 0.395430 0.434367 0.168854
C45   C     C_3   0.062272 0.487533 0.446754 0.376108
C46   C     C_3   0.120877 0.499427 0.500298 0.064420
C47   C     C_3   0.878055 0.500020 0.504673 -0.016415
C48   C     C_3   0.917264 0.488763 0.450681 -0.412159
C49   C     C_3   0.393263 0.079340 0.527132 -0.107491
C50   C     C_3   0.391948 0.917980 0.526586 -0.145264
H19   H     H_    0.304032 0.111966 0.509340 0.041063
H20   H     H_    0.303000 0.888439 0.507643 0.108247
C51   C     C_3   0.489216 0.082844 0.448124 -0.139101
C52   C     C_3   0.491268 0.920066 0.448164 -0.114305
C53   C     C_3   0.618548 0.080338 0.519857 -0.243891
C54   C     C_3   0.617095 0.919643 0.521065 -0.307671
N3    N     N_3   0.499750 0.138610 0.498940 -0.105540
N4    N     N_3   0.499750 0.861390 0.498940 -0.119674
H21   H     H_    0.699085 0.115219 0.497924 0.131464
H22   H     H_    0.699607 0.881662 0.501318 0.151959
H23   H     H_    0.639014 0.120919 0.556750 0.210185
H24   H     H_    0.630819 0.883077 0.559125 0.148466
H25   H     H_    0.573365 0.117092 0.427957 0.150817
H26   H     H_    0.576940 0.888561 0.428740 0.156945
C55   C     C_3   0.919715 0.429542 0.885663 -0.749127
H27   H     H_    0.961915 0.500317 0.858876 0.268922
H28   H     H_    0.991912 0.410553 0.914780 0.206714
H29   H     H_    0.898018 0.330260 0.868461 0.275504
C56   C     C_2   0.747980 0.706010 0.725393 0.504473
H30   H     H_    0.810626 0.743279 0.697648 0.103079
O13   O     O_2   0.758662 0.752475 0.766395 -0.559849
C57   C     C_3   0.914416 0.644019 0.045783 -0.941901
H31   H     H_    0.948020 0.726952 0.070081 0.256977
H32   H     H_    0.982100 0.559098 0.048721 0.243281
H33   H     H_    0.911814 0.687846 0.008405 0.257234
C58   C     C_2   0.883924 0.675287 0.574872 0.380052
H34   H     H_    0.803040 0.740970 0.576618 0.042186
O14   O     O_2   0.933075 0.634064 0.612860 -0.542102
C59   C     C_2   0.877786 0.353785 0.583865 0.488371
H35   H     H_    0.777192 0.357437 0.588385 0.064515
O15   O     O_2   0.944333 0.330196 0.619794 -0.524447
C60   C     C_3   0.103275 0.606678 0.413217 -0.879299
H36   H     H_    0.073552 0.706778 0.427043 0.219291
H37   H     H_    0.206312 0.606738 0.409079 0.227220
H38   H     H_    0.060189 0.595839 0.376136 0.258111
C61   C     C_3   0.102373 0.355159 0.421191 -0.851718
H39   H     H_    0.056487 0.347921 0.384475 0.251206
H40   H     H_    0.204876 0.354872 0.415738 0.257360
H41   H     H_    0.075268 0.262873 0.441892 0.210969
C62   C     C_2   0.381339 0.138908 0.577399 0.485055
H42   H     H_    0.295135 0.190198 0.586143 0.050506
O16   O     O_2   0.462942 0.124933 0.609008 -0.600339
C63   C     C_2   0.382236 0.855809 0.577127 0.547904
H43   H     H_    0.459851 0.861479 0.603250 0.102738
O17   O     O_2   0.285235 0.801718 0.589857 -0.596565
C64   C     C_2   0.377673 0.140601 0.419184 0.568516
H44   H     H_    0.283576 0.133457 0.432685 0.007224
O18   O     O_2   0.391097 0.185460 0.377967 -0.548128
C65   C     C_2   0.383945 0.860104 0.418219 0.380478
H45   H     H_    0.311694 0.799863 0.434814 0.088209
O19   O     O_2   0.376682 0.882238 0.374374 -0.572618
C66   C     C_3   0.322838 0.375603 0.664595 -0.819112
H46   H     H_    0.300251 0.393921 0.625537 0.221591
H47   H     H_    0.324210 0.264629 0.672071 0.259615
H48   H     H_    0.245341 0.422426 0.684841 0.255018
C67   C     C_2   0.410417 0.359611 0.766819 0.445360
H49   H     H_    0.318381 0.318893 0.757908 0.094779
O20   O     O_2   0.456970 0.330158 0.806605 -0.567420
C68   C     C_3   0.220759 0.519128 0.006408 -0.943171
H50   H     H_    0.249037 0.478347 0.970725 0.265749
H51   H     H_    0.165024 0.437027 0.023654 0.241300
H52   H     H_    0.159742 0.609212 0.000923 0.244428

loop_
_geom_bond_atom_site_label_1
_geom_bond_atom_site_label_2
_geom_bond_distance
_ccdc_geom_bond_type
C42   C46   1.561475 S    
C68   H52   1.108172 S    
C28   C32   1.423793 A    
C51   C52   1.601628 S    
C68   H51   1.111037 S    
C51   N3    1.503674 S    
C26   N2    1.369858 A    
C64   O18   1.221377 D    
C7    C8    1.391572 A    
C12   C15   1.404430 A    
C47   C48   1.553223 S    
C43   C58   1.515129 S    
C61   H39   1.111804 S    
Zn1   O7    1.987827 S    
N1    C11   1.433124 S    
C44   H16   1.114082 S    
C51   C64   1.523195 S    
C21   C22   1.387530 A    
C67   O20   1.220840 D    
C52   C65   1.514659 S    
C30   H10   1.080762 S    
C66   H48   1.110385 S    
C23   C24   1.409631 A    
O7    C4    1.295863 A    
C5    C13   1.400651 A    
C57   H31   1.111226 S    
C42   C44   1.542721 S    
C68   H50   1.109596 S    
C3    C47   1.456353 S    
C18   C21   1.404707 A    
C25   C39   1.425640 A    
C60   H36   1.108174 S    
C5    N1    1.369345 A    
C19   C20   1.406053 A    
C17   C29   1.409615 A    
O5    C3    1.291657 A    
C58   H34   1.081843 S    
C2    C16   1.454114 S    
C52   N4    1.503546 S    
N1    C6    1.369528 A    
C41   C43   1.532095 S    
C49   C62   1.510861 S    
C53   N3    1.492743 S    
C61   H41   1.108116 S    
C6    O11   1.350137 S    
C50   C63   1.515847 S    
C14   H3    1.084367 S    
C28   C67   1.494578 S    
C9    C10   1.387687 A    
C43   H15   1.114820 S    
O3    Zn1   1.994109 S    
C1    C46   1.463370 S    
C43   C47   1.568151 S    
C61   H40   1.107723 S    
C54   H22   1.111946 S    
C33   C36   1.424593 A    
C31   C56   1.487484 S    
C41   C46   1.558605 S    
C34   C35   1.420892 A    
C31   C32   1.410818 A    
C67   H49   1.083163 S    
C66   H47   1.109177 S    
C15   C37   1.398098 A    
C24   C25   1.415722 A    
C7    C11   1.403307 A    
C27   O10   1.350677 S    
C37   H8    1.084520 S    
C51   H25   1.115829 S    
C8    C16   1.401209 A    
C7    H7    1.082820 S    
C18   C33   1.411266 A    
C44   C59   1.522587 S    
C9    H1    1.075876 S    
C19   C38   1.405700 A    
C39   C55   1.510683 S    
C42   H14   1.111295 S    
O1    C1    1.293567 A    
C53   H23   1.107554 S    
C20   C24   1.407249 A    
C63   O17   1.219912 D    
C22   C23   1.401293 A    
C45   C48   1.554026 S    
H18   C48   1.115360 S    
C54   N4    1.493660 S    
C49   C50   1.587700 S    
Zn2   O8    1.994340 S    
C45   C61   1.550365 S    
C33   C34   1.417343 A    
C56   O13   1.220149 D    
Zn2   N3    2.031327 S    
N2    C32   1.433778 S    
C12   C13   1.405825 A    
C40   C57   1.506565 S    
C22   H4    1.083278 S    
O3    C2    1.304382 A    
C25   C26   1.417155 A    
C49   H19   1.106584 S    
C9    C16   1.396189 A    
O8    C4    1.306311 A    
C35   C40   1.423894 A    
C65   H45   1.078360 S    
N2    C27   1.364632 A    
C26   O12   1.347156 S    
C44   C47   1.569820 S    
C8    H6    1.083605 S    
C63   H43   1.083735 S    
C14   C36   1.398425 A    
C28   C29   1.415015 A    
C37   C40   1.397489 A    
C62   O16   1.221100 D    
C59   H35   1.084413 S    
C41   H11   1.111187 S    
Zn1   O5    2.013963 S    
C30   C31   1.387680 A    
C29   C66   1.511578 S    
C10   H2    1.082852 S    
C55   H28   1.111218 S    
O1    Zn1   2.012813 S    
C17   C30   1.396729 A    
Zn2   O6    2.012080 S    
O2    Zn2   2.014697 S    
C6    C15   1.399195 A    
C4    C17   1.461417 S    
C66   H46   1.105610 S    
O6    C3    1.292475 A    
O4    Zn2   1.987592 S    
C60   H38   1.111789 S    
C54   H24   1.107536 S    
C49   N3    1.503469 S    
C19   C35   1.419779 A    
C55   H27   1.110304 S    
C64   H44   1.080566 S    
C13   C14   1.399249 A    
C23   C27   1.389116 A    
C21   H5    1.079807 S    
O4    C2    1.295753 A    
C57   H32   1.106964 S    
H17   C48   1.115361 S    
C12   C34   1.407949 A    
Zn1   N4    2.030854 S    
C18   C20   1.410198 A    
C60   H37   1.108219 S    
O2    C1    1.293021 A    
C41   H13   1.111180 S    
C53   H21   1.112707 S    
C38   C39   1.404445 A    
C58   O14   1.221651 D    
C45   C46   1.587306 S    
C38   H9    1.080699 S    
C55   H29   1.109871 S    
C42   H12   1.110954 S    
C56   H30   1.085690 S    
C65   O19   1.220748 D    
C10   C11   1.400976 A    
C50   H20   1.110431 S    
C50   N4    1.503624 S    
C36   C68   1.511435 S    
C53   C54   1.581045 S    
C45   C60   1.552224 S    
C52   H26   1.115121 S    
C5    O9    1.349948 S    
C62   H42   1.083323 S    
C59   O15   1.221618 D    
C57   H33   1.108331 S    
