data_mof_unit_45250.cif
_audit_creation_date              2012-12-11T14:34:13-0500
_audit_creation_method            fapswitch 2.2
_symmetry_space_group_name_H-M    P1
_symmetry_Int_Tables_number       1
_space_group_crystal_system       triclinic
_cell_length_a                    14.214924
_cell_length_b                    14.10703
_cell_length_c                    27.18748
_cell_angle_alpha                 90.9935
_cell_angle_beta                  88.756988
_cell_angle_gamma                 120.644274
_cell_volume                      4689.31772625

loop_
_atom_site_label
_atom_site_type_symbol
_atom_type_description
_atom_site_fract_x
_atom_site_fract_y
_atom_site_fract_z
_atom_type_partial_charge
C1    C     C_R   0.235281 0.786742 0.569973 0.538937
C2    C     C_1   0.778669 0.879079 0.849095 0.225227
C3    C     C_1   0.158745 0.827772 0.869771 0.177055
C4    C     C_1   0.168093 0.311082 0.864261 0.167377
C5    C     C_1   0.566610 0.783292 0.666982 0.128976
C6    C     C_1   0.190380 0.811033 0.663089 0.120623
C7    C     C_1   0.185271 0.383648 0.661297 0.104911
C8    C     C_1   0.538071 0.764265 0.624903 0.094778
C9    C     C_1   0.206131 0.802782 0.619542 0.110369
C10   C     C_1   0.194860 0.406986 0.618314 0.107017
C11   C     C_R   0.106987 0.223787 0.087310 0.568332
C12   C     C_R   0.212836 0.449917 0.569440 0.529738
C13   C     C_R   0.775639 0.883624 0.087155 0.594061
C14   C     C_R   0.089140 0.929743 0.097641 0.551612
C15   C     C_R   0.108100 0.220840 0.951594 0.568315
C16   C     C_R   0.841605 0.909092 0.943048 0.560630
C17   C     C_R   0.117424 0.887145 0.955836 0.586293
C18   C     C_R   0.639611 0.903652 0.364115 0.389186
C19   C     C_R   0.138074 0.696507 0.352113 0.347217
C20   C     C_R   0.269294 0.366296 0.362447 0.353137
C21   C     C_R   0.657807 0.918658 0.312936 -0.044133
C22   C     C_R   0.108909 0.717217 0.306153 -0.051202
C23   C     C_R   0.509154 0.741406 0.574318 0.520775
C24   C     C_R   0.262051 0.343123 0.311610 -0.055581
C25   C     C_R   0.679950 0.935613 0.208997 -0.012363
C26   C     C_R   0.051623 0.771864 0.216055 -0.006658
C27   C     C_R   0.251514 0.318025 0.207803 -0.015987
C28   C     C_R   0.261395 0.765211 0.424933 0.564082
C29   C     C_R   0.211514 0.443700 0.432103 0.565846
C30   C     C_R   0.556158 0.767142 0.431890 0.579036
C31   C     C_R   0.679074 0.019577 0.237722 0.417664
C32   C     C_R   0.976948 0.674837 0.241528 0.440694
C33   C     C_R   0.338965 0.323423 0.233870 0.430150
C34   C     C_3   0.681043 0.730773 0.782447 0.077390
C35   C     C_R   0.670613 0.012797 0.288963 0.278209
C36   C     C_R   0.004444 0.647893 0.285938 0.290089
C37   C     C_R   0.344553 0.335601 0.284965 0.279124
C38   C     C_R   0.702189 0.946322 0.157714 0.242550
C39   C     C_R   0.025074 0.801874 0.171191 0.245551
C40   C     C_R   0.241150 0.300465 0.156298 0.234025
C41   C     C_R   0.710624 0.862669 0.132424 -0.022880
C42   C     C_R   0.103929 0.899223 0.147209 -0.024716
C43   C     C_R   0.145920 0.284620 0.133628 -0.022779
C44   C     C_R   0.636454 0.730035 0.358091 0.338635
C45   C     C_3   0.257530 0.935625 0.794168 0.049543
C46   C     C_R   0.318189 0.860622 0.344949 0.321523
C47   C     C_R   0.089435 0.347096 0.362714 0.359559
C48   C     C_R   0.647317 0.739563 0.307415 -0.030135
C49   C     C_R   0.291795 0.881800 0.299173 -0.019306
C50   C     C_R   0.084959 0.334113 0.312065 -0.024191
C51   C     C_R   0.656339 0.832891 0.284376 -0.124548
C52   C     C_R   0.185863 0.812730 0.280287 -0.111503
C53   C     C_R   0.171893 0.333803 0.286037 -0.122561
C54   C     C_R   0.641796 0.652802 0.279469 -0.003021
C55   C     C_R   0.369356 0.973765 0.272897 -0.011331
C56   C     C_3   0.079618 0.350640 0.795012 0.053024
C57   C     C_R   0.998288 0.330248 0.286993 0.000013
C58   C     C_R   0.643915 0.656297 0.228659 0.252745
C59   C     C_R   0.342025 0.002186 0.229288 0.240719
C60   C     C_R   0.997729 0.329136 0.236132 0.226108
C61   C     C_R   0.658368 0.750943 0.205084 0.012225
C62   C     C_R   0.234948 0.937903 0.211381 0.010273
C63   C     C_R   0.080594 0.322829 0.209664 0.005353
C64   C     C_3   0.547808 0.817095 0.758348 0.369861
C65   C     C_3   0.216040 0.738900 0.741736 0.346266
C66   C     C_3   0.281419 0.463614 0.740357 0.345853
C67   C     C_3   0.644102 0.717365 0.728342 0.255767
C68   C     C_R   0.664760 0.839990 0.232820 -0.074439
C69   C     C_R   0.157331 0.840467 0.235787 -0.067559
C70   C     C_R   0.168112 0.324667 0.234485 -0.071685
C71   C     C_R   0.674961 0.761636 0.154687 -0.098904
C72   C     C_R   0.204952 0.968314 0.169085 -0.121449
C73   C     C_R   0.073518 0.307263 0.159225 -0.116833
C74   C     C_R   0.619225 0.804955 0.385637 0.009846
C75   C     C_R   0.238940 0.773312 0.373163 0.001581
C76   C     C_R   0.187121 0.377546 0.386806 0.012376
C77   C     C_3   0.725651 0.920867 0.711881 0.030974
C78   C     C_3   0.254252 0.935476 0.737110 0.257053
C79   C     C_3   0.061672 0.778850 0.735306 0.055837
C80   C     C_3   0.178471 0.255811 0.725118 0.044786
C81   C     C_3   0.796268 0.936187 0.757573 0.583310
C82   C     C_3   0.055051 0.778954 0.793102 0.570248
C83   C     C_3   0.177554 0.239574 0.781796 0.568982
C84   C     C_1   0.809924 0.895590 0.891542 0.150432
C85   C     C_1   0.140939 0.848010 0.910983 0.135580
C86   C     C_1   0.146969 0.276274 0.905592 0.138066
C87   C     C_3   0.617588 0.808751 0.715529 -0.128307
C88   C     C_3   0.180314 0.815620 0.717751 -0.148429
C89   C     C_3   0.074192 0.352632 0.738119 0.262892
C90   C     C_3   0.180516 0.364693 0.714802 -0.142457
C91   C     C_3   0.618351 0.861243 0.806268 0.497965
C92   C     C_3   0.206954 0.739211 0.799479 0.564181
C93   C     C_3   0.284915 0.442032 0.796633 0.565898
C94   C     C_3   0.724042 0.852950 0.799954 -0.057278
C95   C     C_3   0.169568 0.820262 0.815671 -0.084124
C96   C     C_3   0.176931 0.335239 0.811075 -0.094104
Cl1   Cl    Cl    0.542407 0.788445 0.860684 -0.327393
Cl2   Cl    Cl    0.679251 0.127410 0.320750 -0.249752
Cl3   Cl    Cl    0.900985 0.526931 0.314905 -0.254451
Cl4   Cl    Cl    0.456344 0.337313 0.313224 -0.258028
Cl5   Cl    Cl    0.630991 0.540653 0.196438 -0.273468
Cl6   Cl    Cl    0.446985 0.116763 0.197627 -0.285722
Cl7   Cl    Cl    0.891631 0.336918 0.207494 -0.316385
Cl8   Cl    Cl    0.703545 0.034576 0.703529 -0.335792
Cl9   Cl    Cl    0.963561 0.647512 0.709377 -0.315503
Cl10  Cl    Cl    0.289748 0.251282 0.694349 -0.373965
Cl11  Cl    Cl    0.903337 0.916774 0.733968 -0.504683
Cl12  Cl    Cl    0.332965 0.780715 0.828669 -0.298171
Cl13  Cl    Cl    0.003154 0.862229 0.816892 -0.411346
Cl14  Cl    Cl    0.064693 0.110979 0.800077 -0.359053
Cl15  Cl    Cl    0.303090 0.551821 0.835954 -0.258081
Cl16  Cl    Cl    0.768978 0.677072 0.790065 -0.276931
Cl17  Cl    Cl    0.254419 0.048503 0.821986 -0.334763
Cl18  Cl    Cl    0.948832 0.255355 0.821562 -0.302920
Cl19  Cl    Cl    0.724101 0.063819 0.124957 -0.362723
Cl20  Cl    Cl    0.894491 0.720114 0.144917 -0.421535
Cl21  Cl    Cl    0.344512 0.298254 0.119346 -0.382889
Cr1   Cr    Cr6+3 0.164410 0.584450 0.499910 1.188661
Cr2   Cr    Cr6+3 0.415550 0.579960 0.499910 1.181862
Cr3   Cr    Cr6+3 0.420040 0.835590 0.499910 1.195585
Cr4   Cr    Cr6+3 0.155170 0.075460 0.019960 1.161118
Cr5   Cr    Cr6+3 0.924540 0.079710 0.019960 1.168634
Cr6   Cr    Cr6+3 0.920290 0.844830 0.019960 1.163386
F1    F     F_    0.647382 0.970266 0.813891 -0.480160
F2    F     F_    0.685980 0.109514 0.216841 -0.465156
F3    F     F_    0.875652 0.604042 0.224223 -0.469474
F4    F     F_    0.419745 0.315273 0.210549 -0.459870
F5    F     F_    0.631803 0.641333 0.379708 -0.536299
F6    F     F_    0.420338 0.927633 0.362748 -0.556909
F7    F     F_    0.002698 0.341916 0.387544 -0.525615
F8    F     F_    0.843281 0.042929 0.774919 -0.450166
F9    F     F_    0.982231 0.673510 0.809940 -0.429684
F10   F     F_    0.269827 0.237127 0.794213 -0.424712
F11   F     F_    0.554230 0.613009 0.721420 -0.525762
F12   F     F_    0.133614 0.633613 0.815715 -0.505911
F13   F     F_    0.359509 0.980854 0.717780 -0.498528
F14   F     F_    0.059567 0.438255 0.724075 -0.517026
F15   F     F_    0.375885 0.432853 0.804874 -0.468859
F16   F     F_    0.458108 0.713993 0.766101 -0.456034
F17   F     F_    0.321098 0.770370 0.726038 -0.524831
F18   F     F_    0.277773 0.558453 0.733395 -0.499017
F19   F     F_    0.634798 0.980532 0.393016 -0.493569
F20   F     F_    0.068664 0.603263 0.377021 -0.525987
F21   F     F_    0.358950 0.386283 0.387752 -0.519073
H1    H     H_    0.673732 0.695744 0.133183 0.230993
H2    H     H_    0.769411 0.921186 0.677284 0.164113
H3    H     H_    0.040346 0.838165 0.720679 0.198270
H4    H     H_    0.103029 0.186206 0.708934 0.177755
H5    H     H_    0.709974 0.724284 0.703111 0.201994
H6    H     H_    0.221385 0.987769 0.724939 0.219541
H7    H     H_    0.002439 0.274820 0.724701 0.223153
H8    H     H_    0.608538 0.674134 0.805244 0.260811
H9    H     H_    0.340839 0.955591 0.804081 0.258131
H10   H     H_    0.094681 0.431261 0.809310 0.275094
H11   H     H_    0.262551 0.045251 0.151527 0.225976
H12   H     H_    0.004259 0.300636 0.140228 0.223486
H13   H     H_    0.632728 0.580133 0.296984 0.261684
H14   H     H_    0.451417 0.025336 0.286542 0.249221
H15   H     H_    0.932696 0.332877 0.306793 0.269836
H16   H     H_    0.517631 0.872912 0.748503 0.271407
H17   H     H_    0.162182 0.653475 0.728085 0.270874
H18   H     H_    0.357255 0.475865 0.722014 0.261980
O1    O     O_R   0.137150 0.468200 0.553200 -0.472610
O2    O     O_R   0.140110 0.470540 0.446010 -0.400950
O3    O     O_R   0.529460 0.669570 0.446010 -0.406658
O4    O     O_R   0.330430 0.859890 0.446010 -0.404340
O5    O     O_R   0.176710 0.690910 0.450560 -0.422938
O6    O     O_R   0.309090 0.485800 0.450560 -0.441321
O7    O     O_R   0.514200 0.823290 0.450560 -0.437549
O8    O     O_3   0.333333 0.666667 0.499990 -0.403630
O9    O     O_R   0.176750 0.985260 0.074180 -0.480843
O10   O     O_R   0.014740 0.191490 0.074180 -0.497083
O11   O     O_R   0.808510 0.823250 0.074180 -0.481849
O12   O     O_R   0.531800 0.668950 0.553200 -0.466379
O13   O     O_R   0.146100 0.172630 0.068980 -0.477779
O14   O     O_R   0.827370 0.973470 0.068980 -0.452204
O15   O     O_R   0.026530 0.853900 0.068980 -0.434142
O16   O     O_3   0.000000 1.000000 0.020040 -0.331694
O17   O     O_R   0.148270 0.170520 0.969620 -0.477672
O18   O     O_R   0.829480 0.977750 0.969620 -0.453715
O19   O     O_R   0.022250 0.851730 0.969620 -0.500994
O20   O     O_R   0.331050 0.862850 0.553200 -0.470105
O21   O     O_R   0.179100 0.982980 0.967000 -0.462638
O22   O     O_R   0.017020 0.196120 0.967000 -0.483911
O23   O     O_R   0.803880 0.820900 0.967000 -0.464242
O24   O     O_R   0.173970 0.688730 0.549930 -0.485882
O25   O     O_R   0.311270 0.485240 0.549930 -0.498016
O26   O     O_R   0.514760 0.826030 0.549930 -0.476217

loop_
_geom_bond_atom_site_label_1
_geom_bond_atom_site_label_2
_ccdc_geom_bond_type
C25   C31   A    
C65   C92   S    
C81   Cl11  S    
C26   C32   A    
C38   Cl19  S    
C55   C59   A    
C67   H5    S    
C18   C21   A    
C34   Cl16  S    
C20   F21   S    
C2    C84   T    
C17   O19   A    
C33   F4    S    
Cr6   O15   S    
C6    C9    T    
C13   C41   S    
Cr1   O24   S    
Cr3   O4    S    
C66   C90   S    
C29   C76   S    
C1    O24   A    
C27   C33   A    
C13   O11   A    
C46   C49   A    
C79   Cl9   S    
C60   C63   A    
C17   C85   S    
C32   C36   A    
C29   O6    A    
C51   C68   A    
C47   C76   A    
C15   O17   A    
C16   O23   A    
C80   C83   S    
Cr2   O12   S    
C23   O26   A    
C30   C74   S    
Cr3   O7    S    
C81   F8    S    
C4    C86   T    
Cr1   O8    S    
C16   O18   A    
C80   Cl10  S    
Cr1   O5    S    
C16   C84   S    
C8    C23   S    
C6    C88   S    
C66   H18   S    
Cr5   O16   S    
C7    C10   T    
C32   F3    S    
C79   C88   S    
C93   F15   S    
C28   O5    A    
C4    C96   S    
C65   F17   S    
C43   C73   A    
C92   Cl12  S    
C40   C43   A    
C20   C24   A    
C11   C43   S    
C45   C78   S    
C52   C69   A    
C39   C42   A    
C60   Cl7   S    
Cr2   O3    S    
C64   C87   S    
C28   O4    A    
C14   C42   S    
C61   C71   A    
C58   C61   A    
Cr5   O22   S    
C40   Cl21  S    
C57   H15   S    
C11   O10   A    
C18   C74   A    
C72   H11   S    
C50   C57   A    
C29   O2    A    
C64   H16   S    
C25   C68   A    
C46   F6    S    
Cr6   O16   S    
C53   C70   A    
Cr3   O26   S    
C46   C75   A    
Cr6   O11   S    
C47   C50   A    
C55   H14   S    
Cr1   O1    S    
C48   C51   A    
C50   C53   A    
C47   F7    S    
C82   Cl13  S    
C2    C94   S    
C67   F11   S    
C1    C9    S    
C38   C41   A    
C56   H10   S    
C23   O12   A    
C34   H8    S    
C57   C60   A    
C79   H3    S    
C13   O14   A    
C63   C73   A    
C24   C53   A    
C49   C55   A    
C12   O25   A    
C92   C95   S    
C33   C37   A    
C62   C69   A    
C67   C87   S    
Cr6   O23   S    
C80   H4    S    
C48   C54   A    
C30   O7    A    
C66   F18   S    
C25   C38   A    
C79   C82   S    
C17   O21   A    
C63   C70   A    
C77   C81   S    
C27   C40   A    
C49   C52   A    
Cr1   O2    S    
C15   O22   A    
C19   C22   A    
C42   C72   A    
C24   C37   A    
C83   Cl14  S    
C62   C72   A    
C58   Cl5   S    
C91   Cl1   S    
C44   C74   A    
Cr5   O18   S    
C27   C70   A    
C10   C12   S    
C93   Cl15  S    
C15   C86   S    
C56   C89   S    
Cr4   O9    S    
C93   C96   S    
Cr5   O10   S    
C91   F1    S    
C66   C93   S    
C31   C35   A    
C3    C85   T    
C92   F12   S    
C45   H9    S    
C31   F2    S    
C82   F9    S    
C35   Cl2   S    
C21   C51   A    
C78   H6    S    
C65   C88   S    
C22   C52   A    
C54   C58   A    
C78   C88   S    
C56   C96   S    
C44   F5    S    
C59   C62   A    
C19   F20   S    
C82   C95   S    
C71   H1    S    
C59   Cl6   S    
C11   O13   A    
C34   C94   S    
C30   O3    A    
C14   O9    A    
C34   C67   S    
C5    C8    T    
C1    O20   A    
Cr4   O16   S    
C21   C35   A    
C54   H13   S    
C22   C36   A    
C89   F14   S    
C41   C71   A    
C19   C75   A    
Cr6   O19   S    
C91   C94   S    
C81   C94   S    
C7    C90   S    
C61   C68   A    
Cr3   O8    S    
Cr4   O13   S    
C78   F13   S    
Cr5   O14   S    
C83   C96   S    
Cr2   O6    S    
C73   H12   S    
Cr4   O17   S    
C36   Cl3   S    
C20   C76   A    
C80   C90   S    
C26   C39   A    
Cr2   O25   S    
C83   F10   S    
C14   O15   A    
Cr2   O8    S    
C5    C87   S    
C45   Cl17  S    
C89   H7    S    
C77   C87   S    
C39   Cl20  S    
C65   H17   S    
C26   C69   A    
C56   Cl18  S    
Cr4   O21   S    
C77   Cl8   S    
C3    C95   S    
C64   C91   S    
C89   C90   S    
C28   C75   S    
Cr3   O20   S    
C77   H2    S    
C37   Cl4   S    
C44   C48   A    
C18   F19   S    
C12   O1    A    
C64   F16   S    
C45   C95   S    
