data_mof_unit_52259.cif
_audit_creation_date              2012-10-26T19:41:53-0400
_audit_creation_method            fapswitch 2.2
_symmetry_space_group_name_H-M    P1
_symmetry_Int_Tables_number       1
_space_group_crystal_system       triclinic
_cell_length_a                    10.623435
_cell_length_b                    10.738443
_cell_length_c                    9.698021
_cell_angle_alpha                 89.425972
_cell_angle_beta                  88.93785
_cell_angle_gamma                 93.370731
_cell_volume                      1104.16986646

loop_
_atom_site_label
_atom_site_type_symbol
_atom_type_description
_atom_site_fract_x
_atom_site_fract_y
_atom_site_fract_z
_atom_type_partial_charge
C1    C     C_R   0.499499 0.263188 0.500525 0.529102
C2    C     C_R   0.379089 0.059375 0.528601 0.035828
C3    C     C_R   0.493603 0.129193 0.501637 0.043921
C4    C     C_R   0.259856 0.498072 0.501000 0.536727
C5    C     C_R   0.605348 0.070983 0.476445 -0.078983
C6    C     C_R   0.604912 0.942327 0.476327 -0.092899
C7    C     C_R   0.492850 0.870796 0.501158 0.027993
C8    C     C_R   0.620315 0.710248 0.128196 0.009801
C9    C     C_R   0.640045 0.818190 0.044954 0.020819
C10   C     C_R   0.666067 0.802515 0.905272 -0.068203
C11   C     C_R   0.640820 0.686192 0.848433 -0.110150
C12   C     C_3   0.961264 0.603136 0.547069 -0.143521
C13   C     C_R   0.568442 0.592670 0.921818 0.112440
C14   C     C_R   0.564918 0.597421 0.070262 0.108183
C15   C     C_R   0.432626 0.411880 0.076944 0.074727
C16   C     C_R   0.498503 0.736968 0.499875 0.521578
C17   C     C_R   0.432810 0.411396 0.929327 0.153801
C18   C     C_R   0.739737 0.495247 0.499084 0.550744
C19   C     C_3   0.038488 0.384295 0.452520 -0.149346
C20   C     C_3   0.962381 0.476869 0.370754 0.000668
C21   C     C_3   0.876616 0.492106 0.497234 0.028121
C22   C     C_3   0.951002 0.399554 0.580554 -0.125491
C23   C     C_3   0.047562 0.586724 0.419841 -0.020174
C24   C     C_3   0.037767 0.510599 0.630355 -0.106032
C25   C     C_1   0.921876 0.456839 0.228245 0.245199
C26   C     C_1   0.351076 0.321693 0.152478 0.307437
C27   C     C_1   0.713359 0.711393 0.234141 0.279704
C28   C     C_2   0.652754 0.943466 0.107976 0.591433
C29   C     C_1   0.720816 0.903067 0.819304 0.255973
C30   C     C_2   0.359168 0.309594 0.861516 0.606678
C31   C     C_1   0.101223 0.688439 0.330549 0.224838
C32   C     C_3   0.122860 0.495654 0.502246 0.013957
C33   C     C_R   0.264892 0.117433 0.552515 -0.086562
C34   C     C_R   0.154011 0.046353 0.584371 -0.097205
C35   C     C_R   0.154943 0.916936 0.592140 -0.095526
C36   C     C_R   0.266090 0.857621 0.565230 -0.082799
C37   C     C_R   0.379190 0.927848 0.531644 0.039717
Cu1   Cu    Cu3+1 0.499990 0.499990 0.640660 0.987374
Cu2   Cu    Cu3+1 0.500010 0.500010 0.359340 0.999734
H1    H     H_    0.069054 0.862475 0.618730 0.120971
H2    H     H_    0.260802 0.217796 0.548312 0.144443
H3    H     H_    0.067316 0.091886 0.604112 0.138788
H4    H     H_    0.758775 0.103027 0.134822 0.347461
H5    H     H_    0.338766 0.124422 0.827855 0.343348
H6    H     H_    0.262722 0.756960 0.571338 0.121758
H7    H     H_    0.692669 0.898574 0.457787 0.138608
H8    H     H_    0.673745 0.674516 0.745147 0.182790
H9    H     H_    0.072112 0.295052 0.413459 0.134878
H10   H     H_    0.908426 0.322429 0.646375 0.151706
H11   H     H_    0.071252 0.524525 0.737165 0.172550
H12   H     H_    0.924991 0.691485 0.585301 0.116582
H13   H     H_    0.693153 0.125469 0.456851 0.117416
N1    N     N_R   0.501210 0.501210 0.147910 -0.268834
N2    N     N_R   0.501250 0.501290 0.852040 -0.266004
N3    N     N_1   0.889870 0.441158 0.116027 -0.274989
N4    N     N_1   0.284933 0.249224 0.211643 -0.266783
N5    N     N_1   0.791753 0.720673 0.315185 -0.328366
N6    N     N_1   0.765351 0.983683 0.751145 -0.290526
N7    N     N_1   0.143495 0.768411 0.259990 -0.239648
O1    O     O_R   0.499990 0.319640 0.618810 -0.476140
O2    O     O_R   0.762474 0.020110 0.086306 -0.665096
O3    O     O_2   0.257751 0.328819 0.810632 -0.527076
O4    O     O_R   0.400996 0.188690 0.867968 -0.671571
O5    O     O_R   0.500000 0.319660 0.381240 -0.494347
O6    O     O_R   0.316850 0.499960 0.618770 -0.474018
O7    O     O_R   0.316860 0.499980 0.381190 -0.503654
O8    O     O_R   0.500000 0.680340 0.618760 -0.533763
O9    O     O_R   0.500010 0.680360 0.381190 -0.489677
O10   O     O_R   0.683140 0.500020 0.618810 -0.525131
O11   O     O_R   0.683150 0.500040 0.381230 -0.490403
O12   O     O_2   0.565624 0.979629 0.177844 -0.494879

loop_
_geom_bond_atom_site_label_1
_geom_bond_atom_site_label_2
_ccdc_geom_bond_type
C18   O11   A    
C18   C21   S    
Cu2   O9    S    
C11   H8    S    
C35   C36   A    
C10   C29   S    
Cu2   O5    S    
C12   C23   S    
C5    C6    A    
C15   N1    A    
C36   C37   A    
C4    O6    A    
C20   C25   S    
C34   C35   A    
C31   N7    T    
C19   C20   S    
C8    C9    A    
C34   H3    S    
Cu1   O6    S    
C5    H13   S    
C16   O9    A    
C9    C10   A    
C28   O2    S    
C18   O10   A    
Cu1   O10   S    
C13   C14   A    
C17   C30   S    
C19   C32   S    
H5    O4    S    
C24   H11   S    
Cu1   Cu2   S    
C19   C22   S    
C27   N5    T    
C1    O1    A    
C19   H9    S    
C15   C26   S    
C12   C21   S    
C1    C3    S    
C23   C31   S    
C24   C32   S    
Cu1   N2    S    
C20   C23   S    
C20   C21   S    
C33   C34   A    
C7    C37   A    
C36   H6    S    
C16   O8    A    
Cu1   O8    S    
C4    C32   S    
C22   H10   S    
Cu1   O1    S    
C2    C33   A    
C7    C16   S    
C30   O3    D    
Cu2   O7    S    
C22   C24   S    
C28   O12   D    
C1    O5    A    
C12   H12   S    
H4    O2    S    
C13   N2    A    
C15   C17   A    
C8    C14   A    
C6    H7    S    
C25   N3    T    
C3    C5    A    
C26   N4    T    
C6    C7    A    
C12   C24   S    
C33   H2    S    
C23   C32   S    
C2    C3    A    
C4    O7    A    
C11   C13   A    
C2    C37   A    
Cu2   N1    S    
C30   O4    S    
Cu2   O11   S    
C35   H1    S    
C10   C11   A    
C14   N1    A    
C29   N6    T    
C8    C27   S    
C21   C22   S    
C17   N2    A    
C9    C28   S    
