data_mof_unit_27609.cif
_audit_creation_date              2012-12-10T20:03:09-0500
_audit_creation_method            fapswitch 2.2
_symmetry_space_group_name_H-M    P1
_symmetry_Int_Tables_number       1
_space_group_crystal_system       triclinic
_cell_length_a                    8.57646
_cell_length_b                    18.867666
_cell_length_c                    18.469603
_cell_angle_alpha                 90.752441
_cell_angle_beta                  99.013729
_cell_angle_gamma                 89.966768
_cell_volume                      2951.54426943

loop_
_atom_site_label
_atom_site_type_symbol
_atom_type_description
_atom_site_fract_x
_atom_site_fract_y
_atom_site_fract_z
_atom_type_partial_charge
C1    C     C_R   0.503134 0.365011 0.499708 0.837355
C2    C     C_R   0.504015 0.635006 0.500792 0.852409
C3    C     C_R   0.688477 0.962800 0.579479 -0.323221
C4    C     C_R   0.695316 0.037298 0.450369 -0.326286
C5    C     C_R   0.693344 0.036458 0.581905 0.473931
C6    C     C_R   0.703905 0.963698 0.449128 0.475488
C7    C     C_R   0.681151 0.073894 0.515632 -0.107109
C8    C     C_R   0.684739 0.926136 0.512678 -0.106745
C9    C     C_R   0.613865 0.535367 0.736210 0.643265
C10   C     C_R   0.391760 0.460156 0.265452 0.616290
C11   C     C_R   0.606269 0.537666 0.812174 -0.370470
C12   C     C_R   0.388490 0.461483 0.188834 -0.375385
C13   C     C_R   0.487390 0.501024 0.840483 0.013740
C14   C     C_R   0.500817 0.500805 0.158583 0.022091
C15   C     C_R   0.373804 0.463652 0.790808 -0.059300
C16   C     C_R   0.613577 0.540171 0.206934 -0.060979
C17   C     C_R   0.382653 0.464223 0.715392 -0.141618
C18   C     C_R   0.609891 0.539108 0.282847 -0.129684
C19   C     C_R   0.508458 0.437955 0.960628 -0.215614
C20   C     C_R   0.473981 0.563849 0.037901 -0.216506
C21   C     C_R   0.513902 0.436702 0.037162 0.017839
C22   C     C_R   0.468598 0.565072 0.961339 0.010821
C23   C     C_R   0.200760 0.499675 0.480741 0.973414
C24   C     C_R   0.799245 0.499677 0.519202 0.969338
C25   C     C_R   0.497194 0.500162 0.076890 0.076949
C26   C     C_R   0.486301 0.501683 0.921761 0.077017
C27   C     C_2   0.035485 0.499493 0.470294 -0.376879
C28   C     C_2   0.964484 0.498674 0.529407 -0.398620
C29   C     C_R   0.479410 0.755122 0.448596 -0.237959
C30   C     C_R   0.470593 0.244459 0.545624 -0.239725
C31   C     C_R   0.526688 0.825645 0.451012 -0.093946
C32   C     C_R   0.516545 0.173824 0.550199 -0.091248
C33   C     C_R   0.641662 0.850731 0.508381 0.162124
C34   C     C_R   0.636516 0.149090 0.512390 0.162467
C35   C     C_R   0.705291 0.804814 0.564333 -0.206185
C36   C     C_R   0.705495 0.195363 0.467785 -0.201915
C37   C     C_R   0.654311 0.734969 0.563098 -0.173265
C38   C     C_R   0.655597 0.265266 0.461243 -0.193553
C39   C     C_R   0.542049 0.709911 0.505014 -0.027156
C40   C     C_R   0.539417 0.290063 0.500768 -0.020601
H1    H     H_    0.972841 0.500515 0.414323 0.187702
H2    H     H_    0.027461 0.497263 0.585210 0.166699
H3    H     H_    0.294673 0.436330 0.676995 0.154102
H4    H     H_    0.695498 0.569418 0.320165 0.158405
H5    H     H_    0.523892 0.389029 0.931112 0.154846
H6    H     H_    0.458616 0.612804 0.067371 0.155697
H7    H     H_    0.393101 0.736047 0.403368 0.149976
H8    H     H_    0.380809 0.263365 0.576368 0.142052
H9    H     H_    0.471614 0.860730 0.408610 0.167060
H10   H     H_    0.457135 0.138475 0.582710 0.165975
H11   H     H_    0.794436 0.822910 0.608846 0.140388
H12   H     H_    0.798470 0.177616 0.438407 0.135690
H13   H     H_    0.706359 0.699894 0.606259 0.185067
H14   H     H_    0.711781 0.300667 0.427402 0.146708
H15   H     H_    0.678166 0.934759 0.629313 0.182979
H16   H     H_    0.690623 0.065234 0.399220 0.180609
H17   H     H_    0.693282 0.567582 0.849113 0.169873
H18   H     H_    0.297735 0.432520 0.152964 0.164856
N1    N     N_R   0.500020 0.499980 0.689440 -0.129308
N2    N     N_R   0.499980 0.500020 0.310560 -0.130534
O1    O     O_R   0.500010 0.398180 0.560840 -0.617741
O2    O     O_R   0.499990 0.601820 0.439160 -0.619777
O3    O     O_R   0.499930 0.398180 0.439210 -0.606734
O4    O     O_R   0.500070 0.601820 0.560790 -0.585766
O5    O     O_R   0.271780 0.500000 0.546590 -0.629998
O6    O     O_R   0.728220 0.500000 0.453410 -0.627803
O7    O     O_R   0.271710 0.499990 0.424960 -0.567195
O8    O     O_R   0.728290 0.500010 0.575040 -0.595919
Zn1   Zn    Zn3+2 0.500050 0.500000 0.581210 0.975742
Zn2   Zn    Zn3+2 0.499950 0.500000 0.418790 0.976357
C41   C     C_1   0.244838 0.426723 0.815410 0.136557
N3    N     N_1   0.141334 0.397165 0.835144 -0.215626
C42   C     C_1   0.735511 0.580430 0.180400 0.167006
N4    N     N_1   0.833333 0.612692 0.159113 -0.196049
C43   C     C_1   0.541579 0.369829 0.074049 0.149769
N5    N     N_1   0.563734 0.316252 0.103683 -0.214976
C44   C     C_1   0.440776 0.631813 0.924238 0.155790
N6    N     N_1   0.418388 0.685283 0.894418 -0.194990
O9    O     O_3   0.691076 0.070842 0.648264 -0.619582
C45   C     C_3   0.843554 0.097800 0.673743 0.092604
H19   H     H_    0.882683 0.134990 0.633756 0.141557
H20   H     H_    0.930408 0.053738 0.684279 0.142102
C46   C     C_3   0.841105 0.138388 0.745223 -0.786767
H21   H     H_    0.804864 0.102663 0.786941 0.258782
H22   H     H_    0.960636 0.159721 0.765985 0.207814
H23   H     H_    0.756551 0.183206 0.736067 0.257737
O10   O     O_3   0.712258 0.929266 0.383336 -0.617845
C47   C     C_3   0.867407 0.903643 0.384907 0.091020
H24   H     H_    0.901398 0.866629 0.431227 0.142814
H25   H     H_    0.953229 0.948436 0.389754 0.139400
C48   C     C_3   0.876936 0.863297 0.313929 -0.787341
H26   H     H_    0.846128 0.898870 0.266398 0.259643
H27   H     H_    0.998707 0.843039 0.314438 0.203124
H28   H     H_    0.793696 0.817744 0.308110 0.258796
O11   O     O_3   0.727302 0.573370 0.707257 -0.603390
C49   C     C_3   0.882235 0.554634 0.740300 0.074027
H29   H     H_    0.946990 0.534791 0.696731 0.169561
H30   H     H_    0.888967 0.511588 0.781556 0.129804
C50   C     C_3   0.968644 0.619950 0.775376 -0.826586
H31   H     H_    0.908068 0.641361 0.819819 0.251631
H32   H     H_    0.091695 0.605685 0.798928 0.227973
H33   H     H_    0.971733 0.661453 0.733520 0.258567
O12   O     O_3   0.278496 0.423333 0.295365 -0.590898
C51   C     C_3   0.298405 0.349794 0.284825 0.106413
H34   H     H_    0.422611 0.333220 0.304274 0.145083
H35   H     H_    0.265099 0.334598 0.226043 0.135558
C52   C     C_3   0.191206 0.309669 0.328431 -0.793917
H36   H     H_    0.207323 0.251710 0.321497 0.205339
H37   H     H_    0.220175 0.323748 0.387567 0.249044
H38   H     H_    0.065865 0.323303 0.308727 0.249874

loop_
_geom_bond_atom_site_label_1
_geom_bond_atom_site_label_2
_ccdc_geom_bond_type
C38   C40   A    
O10   C47   S    
C42   N4    T    
C47   H25   S    
O11   C49   S    
C51   H35   S    
C44   N6    T    
C29   H7    S    
C30   H8    S    
C10   O12   S    
C19   C21   A    
C4    C7    A    
C20   C25   A    
C49   C50   S    
O2    Zn2   S    
C23   O7    A    
C19   C26   A    
C1    C40   S    
C3    H15   S    
C2    C39   S    
C50   H31   S    
O8    Zn1   S    
C49   H30   S    
C52   H36   S    
O3    Zn2   S    
C23   C27   S    
C5    O9    S    
C9    O11   S    
C36   H12   S    
C24   O6    A    
C12   H18   S    
C4    H16   S    
C52   H37   S    
C31   H9    S    
C45   C46   S    
C1    O3    A    
C51   H34   S    
C2    O4    A    
C37   C39   A    
C16   C42   S    
C4    C6    A    
C3    C8    A    
C48   H26   S    
C5    C7    A    
C6    C8    A    
C6    O10   S    
C9    N1    A    
C32   C34   A    
C10   N2    A    
C43   N5    T    
C17   H3    S    
C18   H4    S    
C48   H27   S    
C27   H1    S    
C46   H21   S    
C38   H14   S    
C47   C48   S    
N2    Zn2   S    
C49   H29   S    
C29   C39   A    
C31   C33   A    
C46   H23   S    
C30   C40   A    
O4    Zn1   S    
C9    C11   A    
C32   H10   S    
C10   C12   A    
C17   N1    A    
C18   N2    A    
C46   H22   S    
C20   C22   A    
C13   C15   A    
C35   H11   S    
C52   H38   S    
C14   C16   A    
C13   C26   S    
O12   C51   S    
C7    C34   S    
N1    Zn1   S    
O1    Zn1   S    
C15   C17   A    
C21   C25   A    
C35   C37   A    
C24   C28   S    
C22   C44   S    
C12   C14   A    
C45   H19   S    
C3    C5    A    
C1    O1    A    
C19   H5    S    
C15   C41   S    
C21   C43   S    
O7    Zn2   S    
C23   O5    A    
C36   C38   A    
C37   H13   S    
C41   N3    T    
C29   C31   A    
C48   H28   S    
C30   C32   A    
C11   C13   A    
O6    Zn2   S    
O5    Zn1   S    
C28   H2    S    
C33   C35   A    
C45   H20   S    
C34   C36   A    
C8    C33   S    
C14   C25   S    
C24   O8    A    
O9    C45   S    
C50   H33   S    
C47   H24   S    
C16   C18   A    
C22   C26   A    
C27   C28   D    
C11   H17   S    
C50   H32   S    
C51   C52   S    
C20   H6    S    
C2    O2    A    
