data_mof_unit_22060.cif
_audit_creation_date              2012-10-26T20:40:19-0400
_audit_creation_method            fapswitch 2.2
_symmetry_space_group_name_H-M    P1
_symmetry_Int_Tables_number       1
_space_group_crystal_system       triclinic
_cell_length_a                    15.097592
_cell_length_b                    10.859705
_cell_length_c                    9.694814
_cell_angle_alpha                 87.688738
_cell_angle_beta                  89.322198
_cell_angle_gamma                 88.924132
_cell_volume                      1587.84644553

loop_
_atom_site_label
_atom_site_type_symbol
_atom_type_description
_atom_site_fract_x
_atom_site_fract_y
_atom_site_fract_z
_atom_type_partial_charge
C1    C     C_R   0.508363 0.262171 0.503571 0.588923
C2    C     C_R   0.187527 0.398149 0.498225 -0.136170
C3    C     C_R   0.232559 0.508570 0.498959 0.020553
C4    C     C_R   0.329229 0.503399 0.499920 0.564864
C5    C     C_R   0.185163 0.621350 0.485281 0.073565
C6    C     C_R   0.501097 0.106339 0.773184 0.115462
C7    C     C_R   0.454618 0.051264 0.883910 0.087946
C8    C     C_R   0.421725 0.933909 0.873574 0.125930
C9    C     C_R   0.421225 0.879578 0.745612 0.108541
C10   C     C_R   0.465582 0.935190 0.628499 -0.018945
C11   C     C_R   0.496990 0.057251 0.638764 -0.033508
C12   C     C_R   0.904440 0.619728 0.524293 0.033751
C13   C     C_R   0.519765 0.125799 0.513904 0.037574
C14   C     C_R   0.535950 0.061660 0.391641 0.005307
C15   C     C_R   0.509671 0.940450 0.385980 -0.133081
C16   C     C_R   0.490935 0.737502 0.499455 0.563324
C17   C     C_R   0.481619 0.873413 0.502881 0.021278
C18   C     C_R   0.654727 0.572761 0.128561 0.094968
C19   C     C_R   0.732885 0.561711 0.050112 0.014564
C20   C     C_R   0.726180 0.591540 0.909379 -0.088312
C21   C     C_R   0.642232 0.602891 0.852526 -0.078805
C22   C     C_R   0.570701 0.546848 0.922150 0.150665
C23   C     C_R   0.961660 0.294805 0.430681 0.022869
C24   C     C_R   0.574177 0.537774 0.069682 0.165999
C25   C     C_R   0.428229 0.466714 0.076417 0.055091
C26   C     C_R   0.429133 0.463492 0.929366 0.051856
C27   C     C_R   0.670868 0.499683 0.499682 0.548044
C28   C     C_R   0.810514 0.618283 0.511830 -0.031094
C29   C     C_R   0.767960 0.504391 0.499960 -0.042544
C30   C     C_R   0.817641 0.394639 0.487843 0.042264
C31   C     C_R   0.910254 0.399062 0.470116 -0.020718
C32   C     C_R   0.953702 0.510312 0.497589 0.005337
C33   C     C_2   0.755842 0.733941 0.500630 0.279680
C34   C     C_R   0.052912 0.292858 0.452158 -0.061432
C35   C     C_2   0.820121 0.551930 0.117678 0.296179
C36   C     C_2   0.925106 0.197424 0.345607 0.295500
C37   C     C_2   0.091055 0.842701 0.583124 0.252392
C38   C     C_2   0.907140 0.823567 0.645482 0.322192
C39   C     C_2   0.587963 0.110819 0.270384 0.318086
C40   C     C_R   0.095669 0.399726 0.485977 -0.001874
C41   C     C_R   0.047057 0.511179 0.498969 0.035655
C42   C     C_R   0.092325 0.623144 0.508714 0.000588
C43   C     C_R   0.043968 0.730996 0.543539 0.008304
C44   C     C_R   0.951065 0.725854 0.563450 0.060240
Cu1   Cu    Cu3+1 0.499990 0.499990 0.640660 1.011888
Cu2   Cu    Cu3+1 0.500010 0.500010 0.359340 1.065103
H1    H     H_    0.516043 0.895551 0.289585 0.177090
H2    H     H_    0.864827 0.215311 0.287747 0.154312
H3    H     H_    0.144259 0.834733 0.656476 0.156921
H4    H     H_    0.920634 0.920116 0.623967 0.200981
H5    H     H_    0.591277 0.059333 0.176712 0.155494
H6    H     H_    0.369402 0.437638 0.132290 0.153306
H7    H     H_    0.784055 0.612112 0.846822 0.216746
H8    H     H_    0.634447 0.654813 0.756833 0.168278
H9    H     H_    0.371345 0.431022 0.878120 0.151059
H10   H     H_    0.092108 0.211216 0.429562 0.195881
H11   H     H_    0.224702 0.311673 0.496554 0.125627
H12   H     H_    0.688666 0.736634 0.541021 0.107903
H13   H     H_    0.823759 0.544356 0.229004 0.117406
I1    I     I_    0.611091 0.209462 0.840017 -0.207863
I2    I     I_    0.415973 0.155103 0.056543 -0.340059
I3    I     I_    0.384839 0.831443 0.057564 -0.239578
I4    I     I_    0.320067 0.748388 0.732404 -0.297350
I5    I     I_    0.655098 0.756289 0.189591 -0.295220
I6    I     I_    0.754640 0.222951 0.534840 -0.202571
I7    I     I_    0.247367 0.772264 0.376127 -0.197040
N1    N     N_R   0.500860 0.501210 0.147910 -0.226936
N2    N     N_R   0.500890 0.501290 0.852040 -0.230150
O1    O     O_R   0.499990 0.319640 0.618810 -0.488054
O2    O     O_2   0.888757 0.551358 0.049772 -0.458959
O3    O     O_2   0.962799 0.097591 0.336121 -0.410986
O4    O     O_2   0.071819 0.943884 0.531466 -0.453911
O5    O     O_2   0.856818 0.796457 0.740772 -0.504768
O6    O     O_2   0.631386 0.204126 0.274093 -0.452952
O7    O     O_R   0.500000 0.319660 0.381240 -0.448874
O8    O     O_R   0.370250 0.499960 0.618800 -0.491977
O9    O     O_R   0.370260 0.499980 0.381230 -0.499736
O10   O     O_R   0.500000 0.680340 0.618760 -0.515433
O11   O     O_R   0.500010 0.680360 0.381190 -0.474257
O12   O     O_R   0.629740 0.500020 0.618770 -0.515690
O13   O     O_R   0.629750 0.500040 0.381200 -0.482275
O14   O     O_2   0.783791 0.825932 0.439255 -0.444361

loop_
_geom_bond_atom_site_label_1
_geom_bond_atom_site_label_2
_ccdc_geom_bond_type
C8    C9    A    
C39   H5    S    
C5    C42   A    
C34   H10   S    
C33   H12   S    
C27   C29   S    
C41   C42   A    
C19   C20   A    
C25   N1    A    
C15   H1    S    
C26   H9    S    
C2    H11   S    
C7    C8    A    
Cu1   Cu2   S    
C12   C28   A    
Cu1   O8    S    
C34   C40   A    
C28   C29   A    
C21   H8    S    
C10   C17   A    
C35   H13   S    
C18   C19   A    
C39   O6    D    
C7    I2    S    
C24   N1    A    
C14   C39   S    
C35   O2    D    
C16   C17   S    
C32   C41   A    
Cu1   O10   S    
C18   C24   A    
C33   O14   D    
C36   O3    D    
C13   C14   A    
C12   C32   A    
Cu2   O7    S    
Cu1   O1    S    
C1    O7    A    
C6    I1    S    
C27   O13   A    
C27   O12   A    
C6    C11   A    
C20   H7    S    
C25   C26   A    
C1    O1    A    
C23   C31   A    
C37   C43   S    
C43   C44   A    
C38   C44   S    
C29   C30   A    
Cu2   O13   S    
C37   H3    S    
C31   C32   A    
C30   C31   A    
C23   C34   A    
Cu1   N2    S    
C22   N2    A    
C40   C41   A    
C28   C33   S    
C22   C24   A    
C1    C13   S    
C42   C43   A    
C3    C4    S    
C9    C10   A    
C15   C17   A    
C9    I4    S    
C5    I7    S    
C3    C5    A    
Cu2   O9    S    
C6    C7    A    
C38   H4    S    
C16   O11   A    
C26   N2    A    
C2    C3    A    
C25   H6    S    
Cu2   N1    S    
C12   C44   A    
C19   C35   S    
C11   C13   A    
C18   I5    S    
Cu2   O11   S    
C36   H2    S    
Cu1   O12   S    
C16   O10   A    
C4    O8    A    
C30   I6    S    
C10   C11   A    
C2    C40   A    
C4    O9    A    
C20   C21   A    
C23   C36   S    
C37   O4    D    
C14   C15   A    
C21   C22   A    
C8    I3    S    
C38   O5    D    
