data_mof_unit_51036.cif
_audit_creation_date              2012-12-11T15:55:36-0500
_audit_creation_method            fapswitch 2.2
_symmetry_space_group_name_H-M    P1
_symmetry_Int_Tables_number       1
_space_group_crystal_system       triclinic
_cell_length_a                    6.931118
_cell_length_b                    14.532097
_cell_length_c                    16.073561
_cell_angle_alpha                 90.00441
_cell_angle_beta                  90.05109
_cell_angle_gamma                 89.950668
_cell_volume                      1618.98695163

loop_
_atom_site_label
_atom_site_type_symbol
_atom_type_description
_atom_site_fract_x
_atom_site_fract_y
_atom_site_fract_z
_atom_type_partial_charge
O1    O     O_R   0.505680 0.583900 0.413320 -0.528952
O2    O     O_R   0.176010 0.594950 0.586080 -0.539714
O3    O     O_R   0.005680 0.416100 0.586680 -0.546921
C1    C     C_R   0.345013 0.617072 0.615011 0.707718
O4    O     O_R   0.175960 0.594930 0.413930 -0.528394
O5    O     O_R   0.005640 0.416080 0.413300 -0.550829
C2    C     C_R   0.344806 0.617130 0.384881 0.795536
O6    O     O_R   0.505720 0.583920 0.586700 -0.543884
O7    O     O_3   0.339190 0.441320 0.500000 -0.388469
V1    V     V_3+5 0.064350 0.510890 0.500000 1.421978
O8    O     O_R   0.675920 0.405050 0.413920 -0.535455
C3    C     C_R   0.844967 0.383037 0.384930 0.727669
O9    O     O_R   0.675960 0.405070 0.586070 -0.539566
C4    C     C_R   0.844957 0.381292 0.613472 0.761648
V2    V     V_3+5 0.564340 0.489110 0.500000 1.427087
O10   O     O_3   0.839370 0.558680 0.500000 -0.367827
C5    C     C_R   0.004969 0.310654 0.736977 0.033785
C6    C     C_R   0.856046 0.308862 0.678369 -0.268988
C7    C     C_R   0.728090 0.232422 0.680397 0.364572
C8    C     C_R   0.738115 0.167666 0.747239 0.370706
C9    C     C_R   0.878340 0.178338 0.811348 -0.259310
C10   C     C_R   0.016135 0.247389 0.801146 0.031853
C11   C     C_3   0.088824 0.317655 0.861173 -0.397686
C12   C     C_3   0.076618 0.387226 0.790545 -0.384877
H1    H     H_    0.985174 0.331475 0.912469 0.157176
H2    H     H_    0.220070 0.412802 0.770123 0.158032
H3    H     H_    0.965887 0.441470 0.800819 0.157900
C13   C     C_R   0.042082 0.211549 0.227888 -0.226732
H4    H     H_    0.179423 0.179639 0.214172 0.194351
C14   C     C_R   0.032322 0.275032 0.293181 -0.153663
H5    H     H_    0.163184 0.291097 0.327053 0.140241
C15   C     C_R   0.855709 0.315762 0.315489 -0.105793
C16   C     C_R   0.689824 0.292782 0.269933 -0.210195
H6    H     H_    0.551929 0.323324 0.285632 0.137126
C17   C     C_R   0.699229 0.231337 0.202575 0.466599
C18   C     C_R   0.876486 0.188028 0.182046 -0.152904
C19   C     C_R   0.220248 0.757002 0.689322 -0.218788
H7    H     H_    0.110564 0.764050 0.641702 0.141768
C20   C     C_R   0.229561 0.822201 0.754298 0.457663
C21   C     C_R   0.377811 0.816067 0.814676 -0.111563
C22   C     C_R   0.512966 0.744259 0.808543 -0.255086
C23   C     C_R   0.503202 0.680283 0.743471 -0.160352
H8    H     H_    0.609579 0.625715 0.740678 0.120153
C24   C     C_R   0.355787 0.685459 0.683607 -0.097347
C25   C     C_R   0.227504 0.762215 0.314082 0.407933
C26   C     C_R   0.242674 0.826398 0.247579 -0.253466
H9    H     H_    0.151515 0.886747 0.245018 0.128104
C27   C     C_R   0.380054 0.815499 0.184353 -0.153729
C28   C     C_R   0.505571 0.740110 0.187331 -0.246305
H10   H     H_    0.607552 0.729447 0.137213 0.136031
C29   C     C_R   0.495554 0.675661 0.252568 0.391927
C30   C     C_R   0.355579 0.686063 0.316061 -0.230812
O11   O     O_R   0.229200 0.915950 0.913350 -0.526690
O12   O     O_R   0.559090 0.905000 0.086080 -0.543432
O13   O     O_R   0.729280 0.083880 0.086680 -0.506063
C31   C     C_R   0.390362 0.882972 0.115070 0.741699
O14   O     O_R   0.558920 0.904980 0.913920 -0.555443
O15   O     O_R   0.729110 0.083860 0.913300 -0.539767
C32   C     C_R   0.389817 0.883329 0.884479 0.707747
O16   O     O_R   0.229360 0.915970 0.086730 -0.540420
O17   O     O_3   0.395680 0.058580 0.000030 -0.369820
V3    V     V_3+5 0.670570 0.989070 0.999990 1.423000
O18   O     O_R   0.058820 0.094950 0.913870 -0.548625
C33   C     C_R   0.889579 0.115131 0.883680 0.766072
O19   O     O_R   0.058990 0.094970 0.086020 -0.544156
C34   C     C_R   0.889389 0.118155 0.114255 0.715585
V4    V     V_3+5 0.170560 0.010930 0.999930 1.419854
O20   O     O_3   0.895590 0.941310 0.999960 -0.377959
O21   O     O_3   0.612300 0.213886 0.612121 -0.542009
C35   C     C_3   0.425795 0.251211 0.623565 -0.111458
H11   H     H_    0.378365 0.282147 0.564042 0.166015
H12   H     H_    0.415994 0.305379 0.672596 0.085522
H13   H     H_    0.321780 0.195496 0.637050 0.130196
O22   O     O_3   0.531666 0.210333 0.159997 -0.554627
C36   C     C_3   0.496507 0.280053 0.100896 -0.238411
H14   H     H_    0.365740 0.261426 0.064774 0.161467
H15   H     H_    0.618308 0.286289 0.056088 0.112293
H16   H     H_    0.467903 0.347354 0.131555 0.135347
O23   O     O_3   0.108253 0.897932 0.753607 -0.565089
C37   C     C_3   0.919073 0.869336 0.772421 -0.171072
H17   H     H_    0.855856 0.828374 0.720780 0.131969
H18   H     H_    0.827741 0.931316 0.780586 0.195395
H19   H     H_    0.914220 0.829975 0.831807 0.119489
H20   H     H_    0.625606 0.737001 0.854783 0.128559
O24   O     O_3   0.101759 0.773063 0.381426 -0.550783
C38   C     C_3   0.944870 0.832526 0.365547 -0.244648
H21   H     H_    0.872828 0.816750 0.305307 0.119574
H22   H     H_    0.991975 0.905522 0.368394 0.151861
H23   H     H_    0.835747 0.822513 0.415166 0.168350
O25   O     O_3   0.604270 0.595733 0.248458 -0.560767
C39   C     C_3   0.799360 0.616500 0.264745 -0.186620
H24   H     H_    0.883365 0.551505 0.263621 0.141139
H25   H     H_    0.816896 0.646951 0.327736 0.173598
H26   H     H_    0.861640 0.662605 0.216563 0.114625
O26   O     O_3   0.624747 0.089268 0.744774 -0.551025
C40   C     C_3   0.439540 0.107823 0.777746 -0.131271
H27   H     H_    0.408106 0.181949 0.789527 0.073805
H28   H     H_    0.421035 0.070206 0.836847 0.173951
H29   H     H_    0.329000 0.080178 0.734583 0.164125
H30   H     H_    0.239297 0.303307 0.881377 0.158973

loop_
_geom_bond_atom_site_label_1
_geom_bond_atom_site_label_2
_ccdc_geom_bond_type
O15   V3    S    
C40   H29   S    
C17   O22   S    
C22   C23   A    
C4    C6    S    
C25   O24   S    
O26   C40   S    
C12   H3    S    
C1    O6    A    
O11   C32   A    
O14   V3    S    
O24   C38   S    
C13   H4    S    
C12   H2    S    
C2    C30   S    
C29   O25   S    
O5    C3    A    
C14   H5    S    
C18   C34   S    
O14   C32   A    
V2    O10   S    
O13   V3    S    
C6    C7    A    
C9    C33   S    
O8    V2    S    
C17   C18   A    
O16   V4    S    
O19   V4    S    
C40   H28   S    
C11   C12   S    
C35   H11   S    
O1    V2    S    
O7    V1    S    
C11   H30   S    
C21   C32   S    
O9    C4    A    
C3    C15   S    
O17   V3    S    
C23   C24   A    
C37   H19   S    
C16   H6    S    
O12   C31   A    
O15   C33   A    
O18   V4    S    
C5    C12   S    
O22   C36   S    
V4    O20   S    
O23   C37   S    
C37   H18   S    
C20   C21   A    
O4    C2    A    
C38   H21   S    
C1    C24   S    
C25   C30   A    
C28   C29   A    
C25   C26   A    
C22   H20   S    
C31   O16   A    
C20   O23   S    
O2    C1    A    
C36   H14   S    
C19   H7    S    
C39   H25   S    
O17   V4    S    
C40   H27   S    
C35   H13   S    
C5    C6    A    
C36   H15   S    
O3    C4    A    
C27   C28   A    
C8    O26   S    
O19   C34   A    
O6    V2    S    
O9    V2    S    
C7    O21   S    
C23   H8    S    
O2    V1    S    
C39   H24   S    
O13   C34   A    
C27   C31   S    
C26   H9    S    
C21   C22   A    
O1    C2    A    
C37   H17   S    
C38   H23   S    
O5    V1    S    
O8    C3    A    
O12   V3    S    
C5    C10   A    
V3    O20   S    
C15   C16   A    
C7    C8    A    
C13   C14   A    
O7    V2    S    
C29   C30   A    
C19   C20   A    
O3    V1    S    
V1    O10   S    
C39   H26   S    
C14   C15   A    
O25   C39   S    
C19   C24   A    
C16   C17   A    
C38   H22   S    
C11   H1    S    
O21   C35   S    
O11   V4    S    
C36   H16   S    
O18   C33   A    
C26   C27   A    
O4    V1    S    
C8    C9    A    
C13   C18   A    
C28   H10   S    
C10   C11   S    
C35   H12   S    
C9    C10   A    
