data_mof_unit_55811.cif
_audit_creation_date              2012-12-10T19:04:14-0500
_audit_creation_method            fapswitch 2.2
_symmetry_space_group_name_H-M    P1
_symmetry_Int_Tables_number       1
_space_group_crystal_system       triclinic
_cell_length_a                    10.640618
_cell_length_b                    10.818507
_cell_length_c                    9.556235
_cell_angle_alpha                 89.857747
_cell_angle_beta                  90.011788
_cell_angle_gamma                 90.017246
_cell_volume                      1100.06826532

loop_
_atom_site_label
_atom_site_type_symbol
_atom_type_description
_atom_site_fract_x
_atom_site_fract_y
_atom_site_fract_z
_atom_type_partial_charge
C1    C     C_R   0.502686 0.262322 0.500107 0.824458
C2    C     C_3   0.958624 0.420476 0.402967 -0.180918
C3    C     C_3   0.043328 0.387939 0.530002 -0.171994
C4    C     C_3   0.122787 0.503352 0.498968 -0.046006
C5    C     C_R   0.529282 0.062924 0.624380 0.092380
C6    C     C_R   0.516162 0.129201 0.499460 -0.077221
C7    C     C_R   0.522812 0.064703 0.371953 -0.202500
C8    C     C_R   0.523080 0.935869 0.371598 -0.170915
C9    C     C_R   0.516553 0.870499 0.498744 -0.064593
C10   C     C_R   0.529014 0.935625 0.623720 0.057658
C11   C     C_3   0.457399 0.926462 0.757911 -0.520658
C12   C     C_R   0.259475 0.501904 0.499786 0.800881
C13   C     C_3   0.458058 0.067598 0.759452 0.324448
C14   C     C_R   0.569376 0.584952 0.073217 0.097538
C15   C     C_R   0.422564 0.424230 0.074606 -0.012708
C16   C     C_R   0.422530 0.424263 0.925802 -0.022944
C17   C     C_R   0.567861 0.586327 0.925587 0.101163
C18   C     C_3   0.706106 0.607636 0.914814 0.070727
C19   C     C_3   0.709712 0.600810 0.074120 0.704995
C20   C     C_R   0.502866 0.737579 0.499753 0.796482
C21   C     C_R   0.740508 0.499104 0.500193 0.796163
C22   C     C_3   0.041328 0.582824 0.596722 -0.205802
C23   C     C_3   0.959785 0.467116 0.627619 -0.134778
C24   C     C_3   0.877140 0.499850 0.500718 -0.026087
C25   C     C_3   0.957074 0.614050 0.470174 -0.040402
C26   C     C_3   0.039489 0.535863 0.373495 -0.003302
Cu1   Cu    Cu3+1 0.499990 0.499980 0.640670 0.966172
Cu2   Cu    Cu3+1 0.500010 0.500020 0.359330 1.000175
H1    H     H_    0.925566 0.437260 0.731988 0.147887
H2    H     H_    0.514247 0.882710 0.842258 0.203289
H3    H     H_    0.361872 0.360892 0.130509 0.130969
H4    H     H_    0.361821 0.360974 0.870249 0.162090
H5    H     H_    0.758887 0.532101 0.862600 0.127071
H6    H     H_    0.077409 0.649417 0.675322 0.162312
H7    H     H_    0.922562 0.354193 0.324053 0.172155
H8    H     H_    0.081803 0.295091 0.554999 0.162080
H9    H     H_    0.520974 0.112973 0.272539 0.184100
H10   H     H_    0.521327 0.888297 0.272032 0.161168
H11   H     H_    0.362517 0.885267 0.743128 0.211046
N1    N     N_R   0.500800 0.500930 0.147930 -0.172487
N2    N     N_R   0.500800 0.500890 0.852020 -0.196495
O1    O     O_R   0.500000 0.319640 0.618810 -0.560969
O2    O     O_R   0.500010 0.319680 0.381230 -0.591214
O3    O     O_R   0.316850 0.499950 0.618770 -0.573622
O4    O     O_R   0.316860 0.499990 0.381190 -0.590431
O5    O     O_R   0.499990 0.680320 0.618770 -0.580072
O6    O     O_R   0.500000 0.680360 0.381190 -0.584205
O7    O     O_R   0.683140 0.500010 0.618810 -0.619468
O8    O     O_R   0.683150 0.500050 0.381230 -0.508129
O9    O     O_3   0.338266 0.120213 0.743923 -0.734805
H12   H     H_    0.290584 0.099272 0.830078 0.319869
C27   C     C_1   0.532073 0.122460 0.874023 0.215214
N3    N     N_1   0.590405 0.165237 0.963948 -0.285848
O10   O     O_3   0.733377 0.725954 0.862859 -0.720824
H13   H     H_    0.732137 0.718838 0.759436 0.346177
O11   O     O_3   0.772285 0.494890 0.122154 -0.720041
H14   H     H_    0.861928 0.505907 0.096838 0.319939
O12   O     O_3   0.751471 0.708874 0.141845 -0.677271
H15   H     H_    0.691598 0.776769 0.120516 0.324301
C28   C     C_1   0.906924 0.737610 0.439446 0.279992
N4    N     N_1   0.867221 0.834957 0.415517 -0.249706
C29   C     C_1   0.084050 0.574684 0.234699 0.267282
N5    N     N_1   0.119279 0.605268 0.125421 -0.283767

loop_
_geom_bond_atom_site_label_1
_geom_bond_atom_site_label_2
_ccdc_geom_bond_type
C2    H7    S    
Cu1   O7    S    
C4    C26   S    
C23   C24   S    
Cu2   O6    S    
C15   H3    S    
C6    C7    A    
C12   O4    A    
C25   C28   S    
C4    C12   S    
C13   C27   S    
C4    C22   S    
C9    C10   A    
Cu1   N2    S    
C9    C20   S    
C5    C13   S    
Cu1   O1    S    
C19   O11   S    
C21   O7    A    
C15   N1    A    
C21   O8    A    
C17   C18   S    
C7    H9    S    
C7    C8    A    
C2    C26   S    
C24   C25   S    
C11   H11   S    
C11   C13   S    
C14   C17   A    
C29   N5    T    
C8    H10   S    
C3    H8    S    
C15   C16   A    
C23   H1    S    
Cu1   O5    S    
C14   C19   S    
C2    C3    S    
C19   O12   S    
C26   C29   S    
C5    C6    A    
C22   H6    S    
C18   H5    S    
C17   N2    A    
Cu2   O4    S    
O12   H15   S    
C20   O6    A    
C16   H4    S    
C10   C11   S    
Cu2   N1    S    
C14   N1    A    
C13   O9    S    
C1    O1    A    
C5    C10   A    
C27   N3    T    
C12   O3    A    
C18   C19   S    
Cu2   O8    S    
C21   C24   S    
Cu1   Cu2   S    
O11   H14   S    
C18   O10   S    
O10   H13   S    
C8    C9    A    
C2    C24   S    
Cu2   O2    S    
O9    H12   S    
C25   C26   S    
C22   C23   S    
C3    C23   S    
Cu1   O3    S    
C1    O2    A    
C20   O5    A    
C3    C4    S    
C1    C6    S    
C11   H2    S    
C28   N4    T    
C16   N2    A    
C22   C25   S    
