data_mof_unit_20995.cif
_audit_creation_date              2012-12-10T18:09:33-0500
_audit_creation_method            fapswitch 2.2
_symmetry_space_group_name_H-M    P1
_symmetry_Int_Tables_number       1
_space_group_crystal_system       triclinic
_cell_length_a                    16.502242
_cell_length_b                    14.132265
_cell_length_c                    9.637381
_cell_angle_alpha                 91.50891
_cell_angle_beta                  89.04922
_cell_angle_gamma                 90.016542
_cell_volume                      2246.48399267

loop_
_atom_site_label
_atom_site_type_symbol
_atom_type_description
_atom_site_fract_x
_atom_site_fract_y
_atom_site_fract_z
_atom_type_partial_charge
C1    C     C_R   0.116151 0.375474 0.499302 0.751157
C2    C     C_R   0.117567 0.623794 0.499896 0.777473
C3    C     C_R   0.616151 0.875475 0.499302 0.751187
C4    C     C_R   0.617567 0.123793 0.499896 0.777474
C5    C     C_3   0.084775 0.504736 0.079067 -0.229271
C6    C     C_3   0.084693 0.494906 0.914293 -0.250392
C7    C     C_3   0.584775 0.004730 0.079067 -0.229276
C8    C     C_3   0.584692 0.994899 0.914294 -0.250398
C9    C     C_R   0.883838 0.376257 0.497893 0.757308
C10   C     C_R   0.879326 0.618975 0.502156 0.752039
C11   C     C_R   0.383838 0.876258 0.497893 0.757319
C12   C     C_R   0.379325 0.118974 0.502156 0.752044
C13   C     C_3   0.828095 0.225426 0.586096 -0.402247
C14   C     C_3   0.797303 0.268765 0.342433 -0.392796
C15   C     C_3   0.802807 0.746973 0.640668 -0.412774
C16   C     C_3   0.812757 0.751112 0.383459 -0.402388
C17   C     C_3   0.328091 0.725430 0.586103 -0.402236
C18   C     C_3   0.297305 0.768761 0.342434 -0.392799
C19   C     C_3   0.302808 0.246975 0.640668 -0.412793
C20   C     C_3   0.312753 0.251108 0.383458 -0.402367
C21   C     C_3   0.259075 0.652837 0.577302 -0.415567
C22   C     C_3   0.222997 0.701514 0.345014 -0.442466
C23   C     C_3   0.228648 0.312622 0.641977 -0.392157
C24   C     C_3   0.245651 0.324916 0.387459 -0.462475
C25   C     C_3   0.759077 0.152833 0.577297 -0.415564
C26   C     C_3   0.722996 0.201517 0.345013 -0.442469
C27   C     C_3   0.728656 0.812634 0.641969 -0.392131
C28   C     C_3   0.745647 0.824910 0.387448 -0.462492
C29   C     C_3   0.739085 0.365138 0.540466 -0.426948
C30   C     C_3   0.727450 0.627903 0.497075 -0.383019
C31   C     C_3   0.239083 0.865140 0.540459 -0.426964
C32   C     C_3   0.227447 0.127903 0.497098 -0.383093
C33   C     C_3   0.814000 0.309280 0.491283 0.113875
C34   C     C_3   0.807015 0.684611 0.506452 0.091590
C35   C     C_3   0.313999 0.809281 0.491282 0.113871
C36   C     C_3   0.307014 0.184610 0.506456 0.091600
C37   C     C_3   0.187147 0.694286 0.496788 0.128070
C38   C     C_3   0.182612 0.302432 0.502143 0.090746
C39   C     C_3   0.687148 0.194285 0.496788 0.128066
C40   C     C_3   0.682613 0.802434 0.502144 0.090757
C41   C     C_3   0.163241 0.800204 0.549985 0.546642
C42   C     C_3   0.151085 0.195772 0.490992 0.533196
C43   C     C_3   0.663243 0.300202 0.549992 0.546643
C44   C     C_3   0.651085 0.695775 0.491017 0.533196
C45   C     C_3   0.956785 0.583982 0.087562 0.147699
C46   C     C_3   0.964493 0.588153 0.920295 0.171905
C47   C     C_3   0.961991 0.413489 0.082178 0.225940
C48   C     C_3   0.953751 0.418378 0.916771 0.201008
C49   C     C_3   0.456789 0.083986 0.087563 0.147698
C50   C     C_3   0.464496 0.088154 0.920295 0.171894
C51   C     C_3   0.461986 0.913493 0.082179 0.225955
C52   C     C_3   0.453746 0.918382 0.916772 0.201010
Cu1   Cu    Cu3+1 0.000100 0.500000 0.642410 0.924833
Cu2   Cu    Cu3+1 0.000100 0.500000 0.357590 0.916074
Cu3   Cu    Cu3+1 0.500100 0.000000 0.642410 0.924840
Cu4   Cu    Cu3+1 0.500100 0.000000 0.357590 0.916083
H1    H     H_    0.828467 0.254335 0.691681 0.212532
H2    H     H_    0.785483 0.327045 0.270000 0.166128
H3    H     H_    0.799746 0.701758 0.733294 0.173374
H4    H     H_    0.810701 0.709762 0.283936 0.194828
H5    H     H_    0.328456 0.754345 0.691685 0.212542
H6    H     H_    0.285487 0.827039 0.269996 0.166129
H7    H     H_    0.299757 0.201763 0.733298 0.173377
H8    H     H_    0.310688 0.209756 0.283937 0.194802
H9    H     H_    0.887187 0.190605 0.561047 0.150012
H10   H     H_    0.851364 0.229202 0.302002 0.168461
H11   H     H_    0.856783 0.793329 0.643693 0.167417
H12   H     H_    0.869880 0.789720 0.393326 0.181284
H13   H     H_    0.387184 0.690611 0.561065 0.150016
H14   H     H_    0.351366 0.729195 0.302010 0.168464
H15   H     H_    0.356780 0.293339 0.643685 0.167427
H16   H     H_    0.369881 0.289707 0.393310 0.181284
H17   H     H_    0.282369 0.587906 0.521956 0.152427
H18   H     H_    0.242382 0.630371 0.304449 0.172214
H19   H     H_    0.248748 0.387229 0.659661 0.158270
H20   H     H_    0.272064 0.396426 0.408353 0.168494
H21   H     H_    0.782369 0.087903 0.521948 0.152421
H22   H     H_    0.742380 0.130375 0.304444 0.172215
H23   H     H_    0.748766 0.887239 0.659630 0.158253
H24   H     H_    0.772054 0.896427 0.408317 0.168492
H25   H     H_    0.242288 0.626773 0.680619 0.164977
H26   H     H_    0.177105 0.724961 0.270558 0.157674
H27   H     H_    0.188520 0.295278 0.731671 0.183011
H28   H     H_    0.219781 0.328516 0.283732 0.162253
H29   H     H_    0.742292 0.126769 0.680614 0.164976
H30   H     H_    0.677102 0.224965 0.270560 0.157672
H31   H     H_    0.688531 0.795309 0.731676 0.183026
H32   H     H_    0.719772 0.828492 0.283721 0.162251
H33   H     H_    0.750558 0.405133 0.638738 0.153501
H34   H     H_    0.729703 0.422575 0.465707 0.126970
H35   H     H_    0.725901 0.580368 0.586325 0.155524
H36   H     H_    0.730870 0.580592 0.403100 0.127638
H37   H     H_    0.250555 0.905139 0.638728 0.153501
H38   H     H_    0.229703 0.922574 0.465696 0.126964
H39   H     H_    0.225889 0.080403 0.586393 0.155576
H40   H     H_    0.230868 0.080566 0.403152 0.127645
H41   H     H_    0.891025 0.575028 0.112094 0.079927
H42   H     H_    0.901719 0.594353 0.880797 0.095422
H43   H     H_    0.898250 0.412756 0.121873 0.052203
H44   H     H_    0.888406 0.432423 0.897407 0.060015
H45   H     H_    0.391029 0.075036 0.112097 0.079932
H46   H     H_    0.401721 0.094356 0.880799 0.095422
H47   H     H_    0.398245 0.912765 0.121874 0.052198
H48   H     H_    0.388401 0.932431 0.897408 0.060016
H49   H     H_    0.115559 0.571835 0.107247 0.116036
H50   H     H_    0.124003 0.550630 0.870292 0.162573
H51   H     H_    0.126064 0.453255 0.123753 0.175629
H52   H     H_    0.116061 0.430052 0.877436 0.139918
H53   H     H_    0.615564 0.071826 0.107247 0.116038
H54   H     H_    0.624006 0.050620 0.870291 0.162574
H55   H     H_    0.626060 0.953244 0.123752 0.175630
H56   H     H_    0.616056 0.930040 0.877441 0.139921
N1    N     N_3   0.001260 0.500000 0.143650 -0.187631
N2    N     N_3   0.001260 0.500000 0.856350 -0.189308
N3    N     N_3   0.501260 0.000000 0.143650 -0.187630
N4    N     N_3   0.501260 1.000000 0.856350 -0.189308
O1    O     O_R   0.091250 0.408820 0.620260 -0.610882
O2    O     O_R   0.091250 0.408820 0.379740 -0.570525
O3    O     O_R   0.091250 0.591180 0.620260 -0.546630
O4    O     O_R   0.091250 0.591180 0.379740 -0.598275
O5    O     O_R   0.591250 0.908820 0.620260 -0.610877
O6    O     O_R   0.591250 0.908820 0.379740 -0.570528
O7    O     O_R   0.591250 0.091180 0.620260 -0.546628
O8    O     O_R   0.591250 0.091180 0.379740 -0.598269
O9    O     O_R   0.908940 0.408800 0.620260 -0.565934
O10   O     O_R   0.908940 0.408800 0.379740 -0.616189
O11   O     O_R   0.908940 0.591200 0.620260 -0.588367
O12   O     O_R   0.908940 0.591200 0.379740 -0.557585
O13   O     O_R   0.408940 0.908800 0.620260 -0.565932
O14   O     O_R   0.408940 0.908800 0.379740 -0.616189
O15   O     O_R   0.408940 0.091200 0.620260 -0.588368
O16   O     O_R   0.408940 0.091200 0.379740 -0.557583
N5    N     N_2   0.130132 0.808082 0.692726 -0.393366
H57   H     H_    0.104810 0.874187 0.709969 0.249458
C53   C     C_3   0.176513 0.786475 0.815191 -0.759706
H58   H     H_    0.143622 0.814148 0.909248 0.199511
H59   H     H_    0.235664 0.822477 0.818434 0.211433
H60   H     H_    0.182159 0.709847 0.828684 0.235018
N6    N     N_2   0.104780 0.841247 0.454950 -0.472777
H61   H     H_    0.122947 0.853533 0.354179 0.238003
C54   C     C_3   0.018386 0.834347 0.475963 -0.791980
H62   H     H_    0.998965 0.759939 0.460677 0.245569
H63   H     H_    0.988382 0.880182 0.400870 0.221468
H64   H     H_    0.999040 0.863644 0.578584 0.226863
N7    N     N_2   0.092648 0.181889 0.606024 -0.426987
H65   H     H_    0.038787 0.218007 0.596727 0.241820
C55   C     C_3   0.084355 0.091983 0.674781 -0.765055
H66   H     H_    0.023804 0.086697 0.725320 0.216392
H67   H     H_    0.130239 0.087123 0.757211 0.227596
H68   H     H_    0.090790 0.031287 0.600386 0.254717
N8    N     N_2   0.111075 0.179307 0.358067 -0.447021
H69   H     H_    0.151758 0.180015 0.275946 0.235604
C56   C     C_3   0.056607 0.099007 0.343600 -0.741892
H70   H     H_    0.031548 0.095841 0.237592 0.212058
H71   H     H_    0.004238 0.105883 0.416764 0.247931
H72   H     H_    0.089601 0.031891 0.359386 0.238755
N9    N     N_2   0.630137 0.308076 0.692736 -0.393357
H73   H     H_    0.604818 0.374181 0.709985 0.249452
C57   C     C_3   0.676521 0.286464 0.815196 -0.759699
H74   H     H_    0.643634 0.314139 0.909256 0.199509
H75   H     H_    0.735674 0.322461 0.818434 0.211434
H76   H     H_    0.682162 0.209836 0.828686 0.235015
N10   N     N_2   0.604780 0.341247 0.454964 -0.472768
H77   H     H_    0.622944 0.353535 0.354191 0.238004
C58   C     C_3   0.518386 0.334351 0.475983 -0.791973
H78   H     H_    0.498962 0.259944 0.460697 0.245566
H79   H     H_    0.488381 0.380187 0.400894 0.221462
H80   H     H_    0.499044 0.363649 0.578606 0.226857
N11   N     N_2   0.592667 0.681900 0.606082 -0.426995
H81   H     H_    0.538788 0.717975 0.596768 0.241844
C59   C     C_3   0.584428 0.592026 0.674932 -0.765018
H82   H     H_    0.523940 0.586803 0.725744 0.216411
H83   H     H_    0.630423 0.587164 0.757189 0.227577
H84   H     H_    0.590735 0.531306 0.600535 0.254700
N12   N     N_2   0.611049 0.679309 0.358115 -0.447051
H85   H     H_    0.651718 0.680021 0.275974 0.235608
C60   C     C_3   0.556590 0.598999 0.343677 -0.741958
H86   H     H_    0.531518 0.595827 0.237678 0.212078
H87   H     H_    0.504232 0.605868 0.416863 0.247907
H88   H     H_    0.589595 0.531889 0.359459 0.238783
N13   N     N_2   0.981221 0.672237 0.159712 -0.359487
H89   H     H_    0.040937 0.681269 0.184684 0.263212
C61   C     C_3   0.942575 0.760681 0.126597 -0.758783
H90   H     H_    0.938828 0.807304 0.217988 0.220103
H91   H     H_    0.881330 0.749622 0.083162 0.221040
H92   H     H_    0.982313 0.802687 0.059194 0.226099
N14   N     N_2   0.011719 0.669479 0.877309 -0.349680
H93   H     H_    0.060249 0.687909 0.937528 0.247084
C62   C     C_3   0.970882 0.745426 0.810586 -0.637023
H94   H     H_    0.000333 0.814103 0.833899 0.198415
H95   H     H_    0.907822 0.752659 0.849270 0.188755
H96   H     H_    0.974531 0.731931 0.698159 0.264990
N15   N     N_2   0.997742 0.325748 0.132507 -0.384585
H97   H     H_    0.978714 0.303302 0.228174 0.281453
C63   C     C_3   0.074557 0.285035 0.086021 -0.679229
H98   H     H_    0.070287 0.206941 0.082166 0.211091
H99   H     H_    0.121486 0.305099 0.158477 0.219883
H100  H     H_    0.094775 0.305898 0.983449 0.210516
N16   N     N_2   0.970617 0.328001 0.844796 -0.362001
H101  H     H_    0.026642 0.316055 0.800204 0.276641
C64   C     C_3   0.924911 0.244525 0.884788 -0.733878
H102  H     H_    0.952158 0.206660 0.970416 0.251042
H103  H     H_    0.926176 0.191545 0.798727 0.207881
H104  H     H_    0.861721 0.263251 0.915757 0.208622
N17   N     N_2   0.481232 0.172238 0.159712 -0.359479
H105  H     H_    0.540949 0.181268 0.184672 0.263202
C65   C     C_3   0.442585 0.260683 0.126607 -0.758774
H106  H     H_    0.438849 0.307306 0.218000 0.220103
H107  H     H_    0.381337 0.249628 0.083186 0.221040
H108  H     H_    0.482319 0.302688 0.059195 0.226095
N18   N     N_2   0.511722 0.169479 0.877305 -0.349672
H109  H     H_    0.560253 0.187908 0.937523 0.247087
C66   C     C_3   0.470882 0.245428 0.810591 -0.637032
H110  H     H_    0.500336 0.314104 0.833900 0.198415
H111  H     H_    0.407824 0.252663 0.849283 0.188753
H112  H     H_    0.474524 0.231933 0.698163 0.264988
N19   N     N_2   0.497730 0.825748 0.132509 -0.384583
H113  H     H_    0.478698 0.803300 0.228172 0.281451
C67   C     C_3   0.574542 0.785025 0.086026 -0.679261
H114  H     H_    0.570266 0.706930 0.082191 0.211088
H115  H     H_    0.621473 0.805092 0.158476 0.219872
H116  H     H_    0.594760 0.805879 0.983448 0.210542
N20   N     N_2   0.470606 0.828002 0.844799 -0.362001
H117  H     H_    0.526629 0.816053 0.800202 0.276648
C68   C     C_3   0.424894 0.744531 0.884795 -0.733934
H118  H     H_    0.452142 0.706663 0.970420 0.251040
H119  H     H_    0.426151 0.691551 0.798736 0.207862
H120  H     H_    0.361707 0.763264 0.915770 0.208639

loop_
_geom_bond_atom_site_label_1
_geom_bond_atom_site_label_2
_ccdc_geom_bond_type
C16   C28   S    
C53   H60   S    
C59   H82   S    
Cu3   O5    S    
C17   H13   S    
C58   H78   S    
C12   O15   A    
Cu2   O4    S    
N11   C59   S    
C64   H102  S    
C19   H15   S    
N10   H77   S    
C44   N12   S    
Cu3   Cu4   S    
C30   C44   S    
C49   C50   S    
C14   C33   S    
C41   N5    S    
N7    H65   S    
C45   N13   S    
C7    C8    S    
N12   C60   S    
C5    H49   S    
N13   H89   S    
C51   N19   S    
C59   H83   S    
C26   H22   S    
C23   H27   S    
C22   H26   S    
C25   H21   S    
C32   C36   S    
N10   C58   S    
C38   C42   S    
C27   H23   S    
C19   C36   S    
C61   H91   S    
C57   H74   S    
C49   H45   S    
C5    C6    S    
Cu1   O1    S    
C26   C39   S    
C13   H1    S    
Cu3   N4    S    
C28   C40   S    
C51   H47   S    
Cu2   N1    S    
C21   H17   S    
C68   H120  S    
C47   H43   S    
C65   H107  S    
C4    O8    A    
C47   N1    S    
N11   H81   S    
C7    N3    S    
C62   H95   S    
C45   N1    S    
C44   N11   S    
C6    N2    S    
Cu1   O11   S    
C17   H5    S    
N9    H73   S    
C55   H66   S    
C29   C33   S    
C19   H7    S    
N15   C63   S    
C28   H32   S    
C65   H108  S    
C24   C38   S    
N8    H69   S    
C57   H75   S    
C16   H12   S    
C46   N14   S    
C12   C36   S    
C12   O16   A    
C18   C35   S    
C15   C34   S    
C50   N4    S    
C3    O6    A    
C63   H100  S    
C16   C34   S    
N13   C61   S    
C46   H42   S    
N16   H101  S    
C58   H79   S    
C29   C43   S    
C9    C33   S    
C64   H103  S    
C13   C25   S    
C10   O12   A    
C11   O13   A    
C29   H33   S    
C29   H34   S    
N7    C55   S    
C42   N7    S    
C52   N4    S    
C6    H50   S    
C48   H44   S    
C59   H84   S    
Cu3   O7    S    
C55   H67   S    
C41   N6    S    
C30   C34   S    
C48   N16   S    
C51   C52   S    
C7    H55   S    
C20   C24   S    
C53   H58   S    
C55   H68   S    
N20   H117  S    
C30   H36   S    
C61   H92   S    
C23   H19   S    
C67   H114  S    
C46   N2    S    
C24   H20   S    
C13   H9    S    
Cu3   O13   S    
N19   H113  S    
N17   H105  S    
C22   C37   S    
Cu2   O12   S    
C9    O9    A    
C65   H106  S    
C4    O7    A    
C54   H63   S    
Cu4   O6    S    
C20   H8    S    
C62   H96   S    
C19   C23   S    
C61   H90   S    
N18   H109  S    
C13   C33   S    
C8    H54   S    
C67   H115  S    
Cu2   O10   S    
C15   C27   S    
C47   C48   S    
C4    C39   S    
C66   H110  S    
C27   C40   S    
C26   H30   S    
C60   H88   S    
C15   H11   S    
C25   H29   S    
C68   H118  S    
C14   H10   S    
C57   H76   S    
C10   C34   S    
C1    O1    A    
C14   C26   S    
C56   H72   S    
C27   H31   S    
C42   N8    S    
Cu4   O16   S    
C18   H14   S    
Cu1   O9    S    
C1    C38   S    
C16   H4    S    
C49   N3    S    
C21   H25   S    
C50   N18   S    
C60   H86   S    
C58   H80   S    
Cu3   O15   S    
Cu2   O2    S    
N5    H57   S    
C64   H104  S    
N18   C66   S    
C54   H64   S    
C56   H71   S    
C22   H18   S    
Cu1   Cu2   S    
C10   O11   A    
C23   C38   S    
C11   O14   A    
Cu4   O8    S    
Cu1   O3    S    
Cu1   N2    S    
N6    H61   S    
C48   N2    S    
C5    H51   S    
C66   H112  S    
C53   H59   S    
C52   H48   S    
C32   C42   S    
C31   C41   S    
C5    N1    S    
C18   C22   S    
C15   H3    S    
C47   N15   S    
C18   H6    S    
C49   N17   S    
C30   H35   S    
C43   N9    S    
C3    C40   S    
C45   C46   S    
C39   C43   S    
C2    O3    A    
N20   C68   S    
C50   H46   S    
N19   C67   S    
C31   H38   S    
C9    O10   A    
C8    H56   S    
C24   H28   S    
C66   H111  S    
N14   H93   S    
C32   H40   S    
N12   H85   S    
C45   H41   S    
C54   H62   S    
C25   C39   S    
C67   H116  S    
N6    C54   S    
C2    C37   S    
C31   H37   S    
C11   C35   S    
C68   H119  S    
Cu4   N3    S    
C60   H87   S    
C31   C35   S    
C1    O2    A    
N8    C56   S    
C37   C41   S    
C62   H94   S    
C28   H24   S    
C51   N3    S    
N14   C62   S    
C8    N4    S    
C63   H98   S    
C20   C36   S    
C7    H53   S    
C40   C44   S    
C32   H39   S    
C21   C37   S    
C52   N20   S    
N9    C57   S    
N15   H97   S    
N16   C64   S    
N5    C53   S    
C6    H52   S    
C20   H16   S    
C17   C35   S    
C2    O4    A    
C56   H70   S    
N17   C65   S    
Cu4   O14   S    
C3    O5    A    
C14   H2    S    
C43   N10   S    
C63   H99   S    
C17   C21   S    
