data_mof_unit_49775.cif
_audit_creation_date              2012-12-11T17:33:28-0500
_audit_creation_method            fapswitch 2.2
_symmetry_space_group_name_H-M    P1
_symmetry_Int_Tables_number       1
_space_group_crystal_system       triclinic
_cell_length_a                    6.944426
_cell_length_b                    21.919711
_cell_length_c                    22.026894
_cell_angle_alpha                 107.550033
_cell_angle_beta                  91.711412
_cell_angle_gamma                 91.217844
_cell_volume                      3193.82707444

loop_
_atom_site_label
_atom_site_type_symbol
_atom_type_description
_atom_site_fract_x
_atom_site_fract_y
_atom_site_fract_z
_atom_type_partial_charge
O1    O     O_R   0.505730 0.449200 0.552060 -0.532807
O2    O     O_R   0.171560 0.427840 0.423150 -0.488553
O3    O     O_R   0.005630 0.550800 0.447940 -0.543641
C1    C     C_R   0.335914 0.409398 0.398233 0.774830
O4    O     O_R   0.175730 0.441570 0.550050 -0.507537
O5    O     O_R   0.009820 0.564620 0.575740 -0.549967
C2    C     C_R   0.345264 0.427559 0.567782 0.784048
O6    O     O_R   0.501530 0.435380 0.424260 -0.548285
O7    O     O_3   0.340640 0.540360 0.508280 -0.394274
V1    V     V_3+5 0.064080 0.492510 0.498460 1.579385
O8    O     O_R   0.680360 0.572160 0.576850 -0.541655
C3    C     C_R   0.853792 0.588512 0.602414 0.700257
O9    O     O_R   0.676190 0.558430 0.449950 -0.551811
C4    C     C_R   0.844704 0.572013 0.431718 0.670833
V2    V     V_3+5 0.564610 0.507490 0.501540 1.461508
O10   O     O_3   0.837920 0.459640 0.491720 -0.322008
C5    C     C_R   0.095483 0.821640 0.170227 -0.117069
H1    H     H_    0.226277 0.803355 0.185295 0.108898
C6    C     C_R   0.107431 0.860897 0.130408 -0.147253
H2    H     H_    0.247904 0.872011 0.115709 0.120910
C7    C     C_R   0.939940 0.885614 0.110144 -0.048647
C8    C     C_R   0.760524 0.869692 0.130723 -0.147798
H3    H     H_    0.628318 0.887676 0.116327 0.120536
C9    C     C_R   0.749042 0.830498 0.170449 -0.120052
H4    H     H_    0.609343 0.819195 0.185645 0.107453
C10   C     C_R   0.916245 0.806324 0.190534 0.127325
C11   C     C_1   0.903293 0.766187 0.232106 -0.043302
C12   C     C_1   0.891653 0.732766 0.266940 -0.049103
C13   C     C_R   0.046406 0.670053 0.330148 -0.128680
H5    H     H_    0.186330 0.682165 0.315738 0.107080
C14   C     C_R   0.035096 0.631307 0.370306 -0.174283
H6    H     H_    0.167618 0.614381 0.385744 0.119600
C15   C     C_R   0.855431 0.614439 0.389958 -0.061299
C16   C     C_R   0.687460 0.637588 0.368184 -0.166983
H7    H     H_    0.546761 0.625511 0.381961 0.116659
C17   C     C_R   0.699231 0.676409 0.327942 -0.126274
H8    H     H_    0.568091 0.693538 0.311750 0.106962
C18   C     C_R   0.878768 0.692799 0.308678 0.130662
C19   C     C_R   0.882921 0.640044 0.664171 -0.115784
C20   C     C_R   0.912581 0.856805 0.836991 -0.164999
C21   C     C_R   0.707591 0.801142 0.744051 -0.172636
C22   C     C_R   0.765416 0.858782 0.791450 0.428827
C23   C     C_R   0.018294 0.800647 0.827223 -0.198082
C24   C     C_R   0.975982 0.745732 0.774115 0.027192
C25   C     C_R   0.814720 0.746248 0.733428 0.084001
C26   C     C_R   0.766101 0.693104 0.680157 -0.145871
C27   C     C_R   0.042005 0.638774 0.704874 -0.260212
C28   C     C_R   0.088071 0.690119 0.760063 0.434581
H9    H     H_    0.644471 0.694799 0.648714 0.118091
H10   H     H_    0.131827 0.597379 0.692966 0.151820
H11   H     H_    0.582046 0.799163 0.713080 0.096682
H12   H     H_    0.131211 0.800301 0.861921 0.212678
C29   C     C_R   0.330306 0.353337 0.338293 -0.135330
C30   C     C_R   0.463053 0.147130 0.160487 -0.066550
C31   C     C_R   0.642627 0.219656 0.252375 -0.156222
C32   C     C_R   0.633605 0.165112 0.198740 -0.167711
C33   C     C_R   0.301365 0.185584 0.177415 -0.169981
C34   C     C_R   0.311496 0.241529 0.230447 0.101906
C35   C     C_R   0.482888 0.258710 0.268427 0.137733
C36   C     C_R   0.491290 0.314149 0.321954 -0.255550
C37   C     C_R   0.160844 0.337394 0.298062 0.435014
C38   C     C_R   0.152708 0.280741 0.245592 -0.276486
H13   H     H_    0.622288 0.326080 0.351655 0.190398
H14   H     H_    0.775319 0.231546 0.281112 0.150414
H15   H     H_    0.021582 0.266813 0.216405 0.123812
H16   H     H_    0.760937 0.136800 0.187266 0.130596
H17   H     H_    0.169407 0.173102 0.148250 0.147708
C39   C     C_R   0.529923 0.220575 0.875154 -0.187988
H18   H     H_    0.600787 0.267479 0.890040 0.185525
C40   C     C_R   0.535142 0.181489 0.915656 0.390903
C41   C     C_R   0.439988 0.120182 0.895966 -0.279649
C42   C     C_R   0.334127 0.101179 0.837287 0.370287
C43   C     C_R   0.337812 0.140107 0.796580 -0.225183
H19   H     H_    0.267481 0.123724 0.749739 0.135664
C44   C     C_R   0.432814 0.199928 0.815582 -0.011414
C45   C     C_1   0.424621 0.240458 0.774128 0.023285
C46   C     C_1   0.412814 0.273222 0.738550 -0.016060
C47   C     C_R   0.514992 0.365469 0.702875 -0.121495
H20   H     H_    0.622833 0.379381 0.741506 0.137715
C48   C     C_R   0.496860 0.402209 0.660960 -0.237266
H21   H     H_    0.591077 0.444092 0.668587 0.149411
C49   C     C_R   0.358197 0.385878 0.610183 -0.158093
C50   C     C_R   0.237980 0.330370 0.601597 0.381592
C51   C     C_R   0.256820 0.294294 0.644632 -0.195226
H22   H     H_    0.164787 0.252193 0.638555 0.164462
C52   C     C_R   0.394708 0.311472 0.695134 0.059353
O11   O     O_R   0.294110 0.064720 0.075690 -0.545867
O12   O     O_R   0.619980 0.058360 0.949870 -0.525628
O13   O     O_R   0.785810 0.935300 0.924300 -0.517570
C53   C     C_R   0.450582 0.074794 0.934768 0.882272
O14   O     O_R   0.624080 0.072230 0.076800 -0.533876
O15   O     O_R   0.789930 0.949270 0.052130 -0.547744
C54   C     C_R   0.459343 0.090759 0.101419 0.732525
O16   O     O_R   0.289980 0.050750 0.947860 -0.524943
O17   O     O_3   0.454970 0.959660 0.991750 -0.374114
V3    V     V_3+5 0.731560 0.007480 0.001530 1.540454
O18   O     O_R   0.119360 0.941610 0.050140 -0.549004
C55   C     C_R   0.950855 0.928190 0.068524 0.672329
O19   O     O_R   0.115260 0.927740 0.923220 -0.538044
C56   C     C_R   0.941804 0.910944 0.897555 0.754673
V4    V     V_3+5 0.231020 0.992470 0.998490 1.502519
O20   O     O_3   0.957740 0.040330 0.008250 -0.361127
S1    S     S_3+6 0.289526 0.683362 0.808732 0.006812
O21   O     O_2   0.429532 0.738437 0.815730 -0.325780
O22   O     O_2   0.223054 0.685481 0.873648 -0.318593
O23   O     O_3   0.403043 0.614578 0.776874 -0.492277
H23   H     H_    0.323396 0.581156 0.787017 0.339629
O24   O     O_3   0.684046 0.917598 0.794872 -0.562794
C57   C     C_3   0.596472 0.918736 0.735955 0.077837
H24   H     H_    0.445132 0.900001 0.732697 0.151431
H25   H     H_    0.675701 0.890735 0.693772 0.099886
C58   C     C_3   0.594255 0.986472 0.731605 -0.690994
H26   H     H_    0.730182 0.998398 0.711912 0.177545
H27   H     H_    0.472339 0.991432 0.699804 0.197381
H28   H     H_    0.578847 0.020193 0.779292 0.250400
O25   O     O_3   0.001600 0.375881 0.313633 -0.550089
C59   C     C_3   0.911236 0.386401 0.259391 0.068729
H29   H     H_    0.805452 0.346711 0.236702 0.141955
H30   H     H_    0.017129 0.391072 0.223805 0.134317
C60   C     C_3   0.802203 0.448230 0.280080 -0.678281
H31   H     H_    0.905444 0.489157 0.300444 0.209360
H32   H     H_    0.723350 0.455613 0.238386 0.190033
H33   H     H_    0.697043 0.446140 0.316448 0.214746
S2    S     S_3+6 0.647878 0.212955 0.992366 -0.008288
O26   O     O_2   0.819850 0.174593 0.998690 -0.335256
O27   O     O_2   0.712458 0.281527 0.003666 -0.326427
O28   O     O_3   0.488706 0.209379 0.047230 -0.519660
H34   H     H_    0.546951 0.236882 0.088204 0.358377
O29   O     O_3   0.240455 0.041530 0.818647 -0.562916
C61   C     C_3   0.043471 0.046214 0.803253 0.033471
H35   H     H_    0.978145 0.997236 0.790781 0.180259
H36   H     H_    0.022476 0.062434 0.760478 0.114273
C62   C     C_3   0.935808 0.088492 0.859320 -0.598255
H37   H     H_    0.990972 0.138887 0.873377 0.222249
H38   H     H_    0.782551 0.088616 0.845293 0.153842
H39   H     H_    0.949968 0.069654 0.900468 0.255100
S3    S     S_3+6 0.069477 0.302598 0.536417 0.033900
O30   O     O_2   0.159066 0.306311 0.476307 -0.314214
O31   O     O_2   0.006533 0.234361 0.527806 -0.317665
O32   O     O_3   0.875252 0.348577 0.549826 -0.477070
H40   H     H_    0.824882 0.344416 0.590019 0.322641

loop_
_geom_bond_atom_site_label_1
_geom_bond_atom_site_label_2
_ccdc_geom_bond_type
C34   C38   A    
C31   C32   A    
O12   V3    S    
V4    O20   S    
V3    O20   S    
C1    C29   S    
C21   C22   A    
O2    C1    A    
O17   V3    S    
C1    O6    A    
C4    C15   S    
C58   H27   S    
O18   C55   A    
O15   C55   A    
C42   O29   S    
C25   C26   A    
O25   C59   S    
C39   C44   A    
S3    O31   D    
C26   H9    S    
C10   C11   S    
C36   H13   S    
C5    C10   A    
S2    O27   D    
C17   H8    S    
C6    C7    A    
C51   C52   A    
C31   C35   A    
C57   H25   S    
O5    C3    A    
C47   C48   A    
C23   H12   S    
O23   H23   S    
V2    O10   S    
O15   V3    S    
O24   C57   S    
C16   H7    S    
C43   H19   S    
C30   C54   S    
O14   V3    S    
O11   V4    S    
C29   C37   A    
C51   H22   S    
C20   C23   A    
C27   C28   A    
O16   V4    S    
C39   H18   S    
C13   C18   A    
C62   H39   S    
C14   C15   A    
C40   C41   A    
O1    V2    S    
O7    V1    S    
C60   H33   S    
C47   C52   A    
C20   C22   A    
C35   C36   A    
O9    C4    A    
C43   C44   A    
O8    V2    S    
C33   H17   S    
C58   H26   S    
C29   C36   A    
C60   H32   S    
C53   O16   A    
C27   H10   S    
C45   C46   T    
S3    O32   S    
C30   C32   A    
O13   C56   A    
C9    H4    S    
C48   C49   A    
C59   C60   S    
O4    C2    A    
C59   H30   S    
C47   H20   S    
C48   H21   S    
C34   C35   A    
C28   S1    S    
C57   C58   S    
C61   H36   S    
C44   C45   S    
O5    V1    S    
C13   H5    S    
O14   C54   A    
O19   C56   A    
C12   C18   S    
C31   H14   S    
C37   O25   S    
C5    H1    S    
S1    O22   D    
O32   H40   S    
O3    C4    A    
C19   C26   A    
O19   V4    S    
O12   C53   A    
C46   C52   S    
O6    V2    S    
S2    O28   S    
C23   C24   A    
C62   H37   S    
C8    C9    A    
C50   C51   A    
C61   C62   S    
O28   H34   S    
O2    V1    S    
C50   S3    S    
C60   H31   S    
C19   C27   A    
O29   C61   S    
C38   H15   S    
O1    C2    A    
C14   H6    S    
C24   C25   A    
C9    C10   A    
C42   C43   A    
C20   C56   S    
O8    C3    A    
S3    O30   D    
O17   V4    S    
C7    C8    A    
C6    H2    S    
O9    V2    S    
C61   H35   S    
O7    V2    S    
O4    V1    S    
C13   C14   A    
O3    V1    S    
V1    O10   S    
C59   H29   S    
C7    C55   S    
C33   C34   A    
C41   C53   S    
C3    C19   S    
C32   H16   S    
O11   C54   A    
C17   C18   A    
C5    C6    A    
C15   C16   A    
S1    O23   S    
C16   C17   A    
C37   C38   A    
C40   S2    S    
C41   C42   A    
C2    C49   S    
C39   C40   A    
C49   C50   A    
S1    O21   D    
C62   H38   S    
C21   C25   A    
C8    H3    S    
O13   V3    S    
C57   H24   S    
C22   O24   S    
C21   H11   S    
C58   H28   S    
O18   V4    S    
C24   C28   A    
S2    O26   D    
C11   C12   T    
C30   C33   A    
