data_mof_unit_10814.cif
_audit_creation_date              2012-12-10T18:11:44-0500
_audit_creation_method            fapswitch 2.2
_symmetry_space_group_name_H-M    P1
_symmetry_Int_Tables_number       1
_space_group_crystal_system       triclinic
_cell_length_a                    10.490198
_cell_length_b                    12.621181
_cell_length_c                    13.140244
_cell_angle_alpha                 82.194198
_cell_angle_beta                  90.885368
_cell_angle_gamma                 102.328603
_cell_volume                      1683.71727151

loop_
_atom_site_label
_atom_site_type_symbol
_atom_type_description
_atom_site_fract_x
_atom_site_fract_y
_atom_site_fract_z
_atom_type_partial_charge
C1    C     C_R   0.479779 0.438853 0.691061 0.844210
C2    C     C_3   0.065340 0.588963 0.540020 -0.148991
C3    C     C_3   0.959656 0.499030 0.599672 -0.189879
C4    C     C_3   0.877531 0.499586 0.502788 0.038399
C5    C     C_R   0.416929 0.705396 0.061814 -0.197333
C6    C     C_R   0.504330 0.596606 0.199773 -0.062768
C7    C     C_R   0.494362 0.299019 0.838628 -0.199339
C8    C     C_R   0.504782 0.269900 0.943596 -0.146354
C9    C     C_R   0.493477 0.343840 0.010627 -0.194527
C10   C     C_R   0.464909 0.446983 0.973331 0.082697
C11   C     C_R   0.433743 0.468241 0.869021 0.085607
C12   C     C_R   0.742173 0.500098 0.501146 0.860121
C13   C     C_R   0.466461 0.529902 0.035878 0.076430
C14   C     C_R   0.417747 0.624383 0.998620 0.169735
C15   C     C_R   0.368721 0.635583 0.899622 -0.255898
C16   C     C_R   0.376059 0.558257 0.835548 -0.202023
C17   C     C_R   0.517800 0.522301 0.134092 -0.254763
C18   C     C_R   0.458006 0.690532 0.163115 -0.201646
C19   C     C_R   0.463253 0.399627 0.800626 -0.113755
C20   C     C_R   0.335136 0.094650 0.334964 -0.269520
C21   C     C_R   0.649116 0.797811 0.633519 0.033954
C22   C     C_R   0.676266 0.900667 0.665143 -0.259674
C23   C     C_R   0.513656 0.561032 0.308791 0.860364
C24   C     C_R   0.618019 0.982261 0.615373 -0.177315
C25   C     C_R   0.532155 0.961148 0.532872 0.014061
C26   C     C_R   0.507365 0.854756 0.503952 0.179052
C27   C     C_R   0.471596 0.041261 0.477519 -0.083313
C28   C     C_R   0.391942 0.014885 0.391873 0.089070
C29   C     C_R   0.369951 0.909646 0.363786 0.392963
C30   C     C_R   0.424596 0.830263 0.421750 -0.331000
C31   C     C_R   0.489513 0.148320 0.501917 -0.021876
C32   C     C_R   0.357033 0.198573 0.363117 -0.014320
C33   C     C_R   0.257716 0.499161 0.501037 0.837820
C34   C     C_3   0.934541 0.409213 0.465771 -0.127598
C35   C     C_3   0.019488 0.408840 0.562709 -0.171250
C36   C     C_3   0.122253 0.498660 0.502730 0.040052
C37   C     C_3   0.039900 0.499318 0.406044 -0.197373
C38   C     C_3   0.980379 0.589360 0.443313 -0.194663
H1    H     H_    0.040180 0.335410 0.611154 0.136186
H2    H     H_    0.564744 0.456371 0.163206 0.150761
H3    H     H_    0.514625 0.244357 0.787083 0.151165
H4    H     H_    0.504402 0.317081 0.091192 0.135622
H5    H     H_    0.527338 0.191679 0.972860 0.146928
H6    H     H_    0.334916 0.569219 0.759813 0.170933
H7    H     H_    0.314787 0.261296 0.319488 0.138678
H8    H     H_    0.274009 0.077181 0.269512 0.180102
H9    H     H_    0.548543 0.176273 0.564666 0.118932
H10   H     H_    0.693209 0.733665 0.672331 0.137138
H11   H     H_    0.877454 0.335755 0.435425 0.145634
H12   H     H_    0.643024 0.060673 0.642705 0.129901
H13   H     H_    0.742049 0.917106 0.728124 0.147664
H14   H     H_    0.404059 0.750797 0.398652 0.216934
H15   H     H_    0.077373 0.499550 0.327428 0.130481
H16   H     H_    0.958177 0.663481 0.397792 0.144371
H17   H     H_    0.122712 0.662494 0.570088 0.141733
H18   H     H_    0.922165 0.499133 0.678203 0.131170
H19   H     H_    0.447999 0.749236 0.213536 0.192715
H20   H     H_    0.326666 0.705057 0.871068 0.147865
H21   H     H_    0.380176 0.777857 0.034054 0.140492
N1    N     N_R   0.432930 0.222190 0.444670 -0.100078
N2    N     N_R   0.566370 0.776980 0.554790 -0.117274
O1    O     O_R   0.467970 0.366730 0.627150 -0.617386
O2    O     O_R   0.510820 0.544830 0.662520 -0.618448
O3    O     O_R   0.664630 0.410960 0.482340 -0.624712
O4    O     O_R   0.707470 0.589060 0.517710 -0.618502
O5    O     O_R   0.489180 0.455170 0.337480 -0.615900
O6    O     O_R   0.532030 0.633270 0.372850 -0.632743
O7    O     O_R   0.292530 0.410940 0.482290 -0.612926
O8    O     O_R   0.335370 0.589040 0.517660 -0.649520
Zn1   Zn    Zn3+2 0.471390 0.381080 0.476380 0.932595
Zn2   Zn    Zn3+2 0.528610 0.618920 0.523620 0.920604
O9    O     O_3   0.313749 0.890366 0.270128 -0.658287
C39   C     C_3   0.189442 0.820337 0.284911 0.044288
H22   H     H_    0.129025 0.848783 0.340413 0.139117
H23   H     H_    0.199285 0.735280 0.313091 0.146956
C40   C     C_3   0.121206 0.821576 0.181064 -0.309914
H24   H     H_    0.113200 0.906777 0.151815 0.222496
H25   H     H_    0.180827 0.793658 0.125150 0.222926
C41   C     C_3   0.985068 0.748019 0.187884 -0.976710
H26   H     H_    0.990731 0.661684 0.213689 0.263867
H27   H     H_    0.939945 0.752448 0.110849 0.269284
H28   H     H_    0.922187 0.775481 0.241661 0.265507

loop_
_geom_bond_atom_site_label_1
_geom_bond_atom_site_label_2
_ccdc_geom_bond_type
C34   C37   S    
C32   H7    S    
C35   C36   S    
C40   C41   S    
C1    O1    A    
C7    C8    A    
C11   C19   A    
C9    H4    S    
C37   C38   S    
C23   O5    A    
C36   C37   S    
C26   N2    A    
C40   H25   S    
C2    H17   S    
C12   O3    A    
C15   C16   A    
C33   C36   S    
O1    Zn1   S    
C34   C35   S    
C11   C16   A    
C23   O6    A    
O8    Zn2   S    
C8    C9    A    
C8    H5    S    
O3    Zn1   S    
C4    C12   S    
C9    C10   A    
C16   H6    S    
C21   N2    A    
C33   O8    A    
C29   O9    S    
C37   H15   S    
N2    Zn2   S    
C31   H9    S    
C21   C22   A    
C39   H23   S    
C1    O2    A    
C39   H22   S    
C24   H12   S    
C6    C18   A    
C4    C34   S    
C1    C19   S    
C5    H21   S    
C27   C31   A    
C40   H24   S    
C41   H27   S    
C5    C18   A    
C20   C28   A    
C25   C26   A    
O4    Zn2   S    
C17   H2    S    
C31   N1    A    
C35   H1    S    
C29   C30   A    
C3    H18   S    
C2    C38   S    
C18   H19   S    
C38   H16   S    
N1    Zn1   S    
C24   C25   A    
C5    C14   A    
C4    C38   S    
C26   C30   A    
C7    C19   A    
C15   H20   S    
C22   C24   A    
C32   N1    A    
C3    C35   S    
C3    C4    S    
C20   C32   A    
C2    C36   S    
C6    C17   A    
C30   H14   S    
C28   C29   A    
C34   H11   S    
O2    Zn2   S    
O9    C39   S    
C10   C13   A    
C41   H28   S    
C25   C27   A    
C12   O4    A    
C13   C17   A    
C21   H10   S    
C2    C3    S    
O5    Zn1   S    
C6    C23   S    
C39   C40   S    
O6    Zn2   S    
C7    H3    S    
C10   C11   A    
C41   H26   S    
O7    Zn1   S    
C27   C28   A    
C14   C15   A    
C13   C14   A    
C20   H8    S    
C33   O7    A    
C22   H13   S    
