data_mof_unit_38931.cif
_audit_creation_date              2012-10-26T20:58:39-0400
_audit_creation_method            fapswitch 2.2
_symmetry_space_group_name_H-M    P1
_symmetry_Int_Tables_number       1
_space_group_crystal_system       triclinic
_cell_length_a                    27.851994
_cell_length_b                    10.62623
_cell_length_c                    9.478858
_cell_angle_alpha                 89.112249
_cell_angle_beta                  90.325762
_cell_angle_gamma                 90.923964
_cell_volume                      2804.63595568

loop_
_atom_site_label
_atom_site_type_symbol
_atom_type_description
_atom_site_fract_x
_atom_site_fract_y
_atom_site_fract_z
_atom_type_partial_charge
C1    C     C_R   0.499680 0.259729 0.500645 0.581057
C2    C     C_R   0.872428 0.397023 0.439041 0.031437
C3    C     C_R   0.354337 0.507864 0.499202 -0.048972
C4    C     C_R   0.645686 0.492552 0.500848 -0.048872
C5    C     C_R   0.974271 0.403172 0.430601 0.020692
C6    C     C_R   0.025822 0.597085 0.574225 0.020435
C7    C     C_R   0.974752 0.596114 0.573071 0.020720
C8    C     C_R   0.025246 0.409080 0.423774 0.020541
C9    C     C_R   0.949307 0.498008 0.503107 0.039210
C10   C     C_R   0.050738 0.504683 0.497728 0.039048
C11   C     C_R   0.947112 0.304790 0.367985 -0.129307
C12   C     C_R   0.500353 0.740267 0.499352 0.580959
C13   C     C_R   0.053144 0.687211 0.650181 -0.129225
C14   C     C_R   0.897287 0.302257 0.371913 -0.089573
C15   C     C_R   0.102985 0.688556 0.647967 -0.089241
C16   C     C_R   0.407561 0.501695 0.499754 0.591866
C17   C     C_R   0.592445 0.498365 0.500248 0.591736
C18   C     C_R   0.051895 0.322831 0.344432 -0.129309
C19   C     C_R   0.947942 0.690609 0.639083 -0.129228
C20   C     C_3   0.537987 0.042984 0.575227 -0.144384
C21   C     C_3   0.462106 0.957008 0.424744 -0.144385
C22   C     C_3   0.540471 0.962769 0.441522 0.237526
C23   C     C_R   0.101806 0.507780 0.495353 -0.024030
C24   C     C_3   0.459620 0.037198 0.558449 0.237560
C25   C     C_3   0.500391 0.877064 0.498969 0.005778
C26   C     C_3   0.499693 0.122925 0.501010 0.005646
C27   C     C_3   0.497394 0.955621 0.633662 -0.134555
C28   C     C_3   0.502699 0.044365 0.366309 -0.134596
C29   C     C_3   0.491223 0.610228 0.046365 0.087980
C30   C     C_3   0.508777 0.389772 0.953635 0.087854
C31   C     C_3   0.458636 0.534086 0.947023 0.017604
C32   C     C_3   0.541365 0.465919 0.052975 0.017707
C33   C     C_3   0.532241 0.576143 0.949672 0.080972
C34   C     C_R   0.898240 0.494799 0.505476 -0.023807
C35   C     C_3   0.467758 0.423862 0.050326 0.080858
C36   C     C_R   0.177496 0.422389 0.418231 0.471930
C37   C     C_R   0.822444 0.585231 0.573921 0.471889
C38   C     C_R   0.178107 0.600597 0.568058 0.469403
C39   C     C_R   0.822046 0.396330 0.441369 0.469712
C40   C     C_R   0.279190 0.580149 0.392417 0.266118
C41   C     C_R   0.720908 0.422464 0.609066 0.266039
C42   C     C_R   0.329876 0.581109 0.394998 -0.057096
C43   C     C_R   0.670229 0.420504 0.605948 -0.057224
C44   C     C_R   0.327447 0.442396 0.604527 0.233603
C45   C     C_R   0.127102 0.418473 0.417963 0.030730
C46   C     C_R   0.672529 0.557347 0.394881 0.233953
C47   C     C_R   0.277213 0.444967 0.601826 0.279133
C48   C     C_R   0.722768 0.554986 0.397567 0.279370
C49   C     C_R   0.253297 0.512195 0.495421 0.197840
C50   C     C_R   0.746745 0.489402 0.505144 0.197908
C51   C     C_3   0.480589 0.743256 0.092858 -0.358021
C52   C     C_3   0.519424 0.256755 0.907139 -0.358035
C53   C     C_3   0.570669 0.667142 0.893751 -0.326046
C54   C     C_3   0.429297 0.332966 0.106244 -0.326144
C55   C     C_3   0.642607 0.337620 0.709713 -0.313837
C56   C     C_R   0.872836 0.589528 0.573971 0.031067
C57   C     C_3   0.357638 0.664052 0.291619 -0.314126
C58   C     C_R   0.101726 0.327432 0.342145 -0.089746
C59   C     C_R   0.898094 0.686956 0.639632 -0.089751
C60   C     C_R   0.127727 0.599979 0.570670 0.031200
Cl1   Cl    Cl    0.355453 0.354615 0.741155 -0.446306
Cl2   Cl    Cl    0.644480 0.644167 0.257531 -0.447525
Cl3   Cl    Cl    0.243301 0.362338 0.731432 -0.404792
Cl4   Cl    Cl    0.756610 0.635514 0.266206 -0.404544
Cl5   Cl    Cl    0.753479 0.344017 0.744037 -0.488809
Cl6   Cl    Cl    0.246650 0.661562 0.259620 -0.489179
Cl7   Cl    Cl    0.594738 0.914049 0.363193 -0.488829
Cl8   Cl    Cl    0.405329 0.085633 0.636801 -0.488733
Cu1   Cu    Cu3+1 0.500010 0.499990 0.643150 0.982282
Cu2   Cu    Cu3+1 0.499990 0.500010 0.356850 0.982375
H1    H     H_    0.569162 0.079642 0.636298 0.133465
H2    H     H_    0.122104 0.759595 0.707999 0.185582
H3    H     H_    0.963123 0.226512 0.316347 0.120206
H4    H     H_    0.037304 0.757562 0.714850 0.121016
H5    H     H_    0.035466 0.251002 0.280642 0.120994
H6    H     H_    0.964199 0.770572 0.689932 0.120008
H7    H     H_    0.471888 0.802107 0.998686 0.107814
H8    H     H_    0.449304 0.742326 0.164378 0.136105
H9    H     H_    0.512615 0.785422 0.145061 0.192195
H10   H     H_    0.528126 0.197906 0.001313 0.107766
H11   H     H_    0.487403 0.214571 0.854925 0.192237
H12   H     H_    0.430930 0.920433 0.363631 0.133285
H13   H     H_    0.550715 0.257715 0.835632 0.136140
H14   H     H_    0.588213 0.715424 0.983757 0.183581
H15   H     H_    0.598445 0.615515 0.836119 0.168700
H16   H     H_    0.554396 0.739370 0.823844 0.149462
H17   H     H_    0.411754 0.284678 0.016238 0.183366
H18   H     H_    0.445535 0.260746 0.176235 0.149625
H19   H     H_    0.401525 0.384712 0.163780 0.168799
H20   H     H_    0.664932 0.264619 0.761001 0.207190
H21   H     H_    0.627136 0.395912 0.793695 0.152408
H22   H     H_    0.613550 0.285587 0.653779 0.117531
H23   H     H_    0.494756 0.918119 0.743375 0.135401
H24   H     H_    0.335469 0.737433 0.240456 0.207236
H25   H     H_    0.386770 0.715533 0.347837 0.117477
H26   H     H_    0.373035 0.605813 0.207461 0.152268
H27   H     H_    0.505333 0.081874 0.256598 0.135393
H28   H     H_    0.423968 0.563314 0.899473 0.151597
H29   H     H_    0.576030 0.436664 0.100517 0.151874
H30   H     H_    0.120332 0.258767 0.280244 0.184900
H31   H     H_    0.879380 0.761673 0.691704 0.184311
H32   H     H_    0.878278 0.225103 0.321714 0.184845
N1    N     N_R   0.201788 0.512273 0.493029 -0.357917
N2    N     N_R   0.798257 0.489850 0.507733 -0.357839
N3    N     N_3   0.500040 0.499970 0.858290 -0.233082
N4    N     N_3   0.499960 0.500030 0.141710 -0.233013
O1    O     O_R   0.500020 0.316850 0.620870 -0.492936
O2    O     O_2   0.797734 0.675688 0.638914 -0.421907
O3    O     O_2   0.796951 0.303474 0.377364 -0.424631
O4    O     O_2   0.203309 0.688253 0.640242 -0.424258
O5    O     O_R   0.499980 0.683150 0.379130 -0.493029
O6    O     O_R   0.500000 0.316860 0.379090 -0.516655
O7    O     O_R   0.500000 0.683140 0.620910 -0.516670
O8    O     O_R   0.430270 0.500020 0.620880 -0.446205
O9    O     O_R   0.569730 0.499980 0.379120 -0.446019
O10   O     O_R   0.430250 0.500030 0.379090 -0.525248
O11   O     O_R   0.569750 0.499970 0.620910 -0.525310
O12   O     O_2   0.202103 0.336902 0.345007 -0.421569

loop_
_geom_bond_atom_site_label_1
_geom_bond_atom_site_label_2
_ccdc_geom_bond_type
C28   H27   S    
C30   C32   S    
C3    C42   A    
C34   C56   A    
C18   H5    S    
C23   C45   A    
C32   N4    S    
C31   N3    S    
C15   C60   A    
C24   C27   S    
Cu1   O1    S    
C39   N2    A    
C47   C49   A    
C4    C46   A    
C50   N2    S    
C15   H2    S    
Cu1   O7    S    
C55   H22   S    
C30   C35   S    
C46   Cl2   S    
C36   N1    A    
C19   H6    S    
C24   C26   S    
C5    C11   A    
C55   H20   S    
C1    O6    A    
C47   Cl3   S    
C54   H17   S    
C11   C14   A    
C14   H32   S    
C40   C49   A    
C29   C33   S    
C31   H28   S    
Cu1   O8    S    
C55   H21   S    
C37   C56   A    
C2    C39   A    
C18   C58   A    
C22   C25   S    
C20   H1    S    
C53   H16   S    
C38   O4    S    
C36   O12   S    
C44   C47   A    
C17   O11   A    
C2    C34   A    
C40   C42   A    
C40   Cl6   S    
C35   C54   S    
C41   C43   A    
Cu1   Cu2   S    
C16   O10   A    
C42   C57   S    
C33   C53   S    
C23   C60   A    
C45   C58   A    
C46   C48   A    
C3    C44   A    
C59   H31   S    
C58   H30   S    
C54   H19   S    
Cu2   N4    S    
Cu1   N3    S    
C41   Cl5   S    
Cu2   O10   S    
C57   H26   S    
C8    C18   A    
C52   H13   S    
C51   H7    S    
C5    C9    A    
C38   N1    A    
C37   N2    A    
C33   N3    S    
C36   C45   A    
C13   H4    S    
C48   C50   A    
Cu2   O6    S    
C37   O2    S    
C38   C60   A    
C4    C17   S    
C43   C55   S    
C4    C43   A    
C21   C28   S    
C1    O1    A    
C7    C19   A    
C57   H24   S    
C13   C15   A    
C30   N3    S    
C11   H3    S    
C9    C34   A    
C10   C23   A    
C31   C35   S    
C29   N4    S    
C27   H23   S    
C41   C50   A    
C17   O9    A    
C12   O7    A    
C29   C51   S    
C7    C9    A    
C21   C25   S    
C53   H14   S    
Cu2   O9    S    
C20   C22   S    
C16   O8    A    
C49   N1    S    
C5    C8    A    
C53   H15   S    
C32   H29   S    
C6    C7    A    
C20   C27   S    
C44   Cl1   S    
C25   C27   S    
C26   C28   S    
Cu2   O5    S    
C56   C59   A    
C12   C25   S    
C19   C59   A    
C32   C33   S    
C51   H8    S    
C29   C31   S    
C35   N4    S    
C6    C13   A    
C54   H18   S    
C1    C26   S    
C20   C26   S    
Cu1   O11   S    
C52   H11   S    
C2    C14   A    
C51   H9    S    
C22   Cl7   S    
C48   Cl4   S    
C6    C10   A    
C24   Cl8   S    
C39   O3    S    
C21   H12   S    
C8    C10   A    
C57   H25   S    
C21   C24   S    
C22   C28   S    
C52   H10   S    
C12   O5    A    
C3    C16   S    
C30   C52   S    
