data_mof_unit_28095.cif
_audit_creation_date              2012-12-11T14:14:06-0500
_audit_creation_method            fapswitch 2.2
_symmetry_space_group_name_H-M    P1
_symmetry_Int_Tables_number       1
_space_group_crystal_system       triclinic
_cell_length_a                    17.127764
_cell_length_b                    7.247089
_cell_length_c                    16.89184
_cell_angle_alpha                 90.001816
_cell_angle_beta                  99.69933
_cell_angle_gamma                 89.998087
_cell_volume                      2066.75204918

loop_
_atom_site_label
_atom_site_type_symbol
_atom_type_description
_atom_site_fract_x
_atom_site_fract_y
_atom_site_fract_z
_atom_type_partial_charge
O1    O     O_R   0.414560 0.494370 0.416770 -0.528770
O2    O     O_R   0.585440 0.994370 0.583230 -0.528770
O3    O     O_R   0.578370 0.819590 0.429320 -0.544621
O4    O     O_R   0.421630 0.319590 0.570680 -0.544594
C1    C     C_R   0.602522 0.656077 0.411383 0.799425
C2    C     C_R   0.397477 0.156086 0.588616 0.799455
O5    O     O_R   0.414740 0.823790 0.407360 -0.550640
O6    O     O_R   0.585260 0.323790 0.592640 -0.550628
O7    O     O_R   0.420650 0.998510 0.561120 -0.513354
O8    O     O_R   0.579350 0.498510 0.438880 -0.513384
C3    C     C_R   0.387573 0.655147 0.385558 0.773578
C4    C     C_R   0.612426 0.155146 0.614443 0.773554
O9    O     O_3   0.502130 0.662240 0.550470 -0.366208
O10   O     O_3   0.497870 0.162240 0.449530 -0.366276
V1    V     V_3+5 0.499600 0.935390 0.490640 1.610777
V2    V     V_3+5 0.500400 0.435390 0.509360 1.610847
C5    C     C_2   0.784442 0.271665 0.789087 -0.069675
C6    C     C_2   0.215559 0.771664 0.210912 -0.069686
C7    C     C_2   0.820760 0.113446 0.817134 -0.253091
C8    C     C_2   0.179240 0.613446 0.182866 -0.253065
H1    H     H_    0.805348 0.401668 0.816852 0.152514
H2    H     H_    0.194653 0.901666 0.183146 0.152485
H3    H     H_    0.801609 0.981958 0.790248 0.129837
H4    H     H_    0.198391 0.481960 0.209752 0.129832
C9    C     C_2   0.716644 0.284679 0.720944 -0.113637
C10   C     C_2   0.283356 0.784679 0.279054 -0.113647
C11   C     C_2   0.679242 0.138710 0.682285 -0.227918
C12   C     C_2   0.320757 0.638711 0.317716 -0.227900
H5    H     H_    0.696813 0.422898 0.702595 0.146208
H6    H     H_    0.303189 0.922897 0.297402 0.146197
H7    H     H_    0.697450 0.999629 0.700085 0.140661
H8    H     H_    0.302546 0.499629 0.299919 0.140654
C13   C     C_R   0.338011 0.156864 0.643801 -0.222728
C14   C     C_R   0.661998 0.656824 0.356212 -0.222658
C15   C     C_R   0.170773 0.107861 0.867897 -0.133596
C16   C     C_R   0.829229 0.607898 0.132103 -0.133543
C17   C     C_R   0.284371 0.948843 0.830780 -0.022496
C18   C     C_R   0.715581 0.449002 0.169157 -0.022689
C19   C     C_R   0.230067 0.971212 0.882741 0.264975
C20   C     C_R   0.769899 0.471357 0.117211 0.264778
C21   C     C_R   0.169524 0.224557 0.801417 -0.126362
C22   C     C_R   0.830511 0.724496 0.198623 -0.126392
C23   C     C_R   0.225815 0.205526 0.748956 -0.028221
C24   C     C_R   0.774225 0.705445 0.251088 -0.028079
C25   C     C_R   0.285444 0.066892 0.764806 -0.081078
C26   C     C_R   0.714548 0.566939 0.235181 -0.080864
C27   C     C_R   0.345040 0.050069 0.715227 0.356616
C28   C     C_R   0.654945 0.550130 0.284752 0.356545
C29   C     C_R   0.277353 0.288868 0.628196 -0.267163
C30   C     C_R   0.722706 0.788683 0.371876 -0.267215
C31   C     C_R   0.223513 0.319365 0.680559 0.494214
C32   C     C_R   0.776574 0.819140 0.319541 0.494258
H9    H     H_    0.273667 0.373877 0.574968 0.190493
H10   H     H_    0.726414 0.873600 0.425136 0.190426
H11   H     H_    0.324387 0.833452 0.842331 0.226588
H12   H     H_    0.675516 0.333718 0.157548 0.226588
H13   H     H_    0.122261 0.324636 0.789748 0.202400
H14   H     H_    0.877791 0.824521 0.210313 0.202383
O11   O     O_R   0.920750 0.773600 0.061260 -0.535227
O12   O     O_R   0.079250 0.273600 0.938740 -0.535207
O13   O     O_R   0.085340 0.439850 0.092570 -0.544235
O14   O     O_R   0.914660 0.939850 0.907430 -0.544232
C33   C     C_R   0.112190 0.608270 0.114742 0.764264
C34   C     C_R   0.887810 0.108270 0.885257 0.764239
O15   O     O_R   0.921720 0.444130 0.070790 -0.516373
O16   O     O_R   0.078280 0.944130 0.929210 -0.516356
O17   O     O_R   0.914480 0.269530 0.916840 -0.532019
O18   O     O_R   0.085520 0.769530 0.083160 -0.532024
C35   C     C_R   0.894814 0.610936 0.084505 0.727194
C36   C     C_R   0.105189 0.110926 0.915497 0.727154
O19   O     O_3   0.997840 0.601520 0.949550 -0.376387
O20   O     O_3   0.002160 0.101520 0.050450 -0.376418
V3    V     V_3+5 0.000400 0.328340 0.009360 1.554456
V4    V     V_3+5 0.999600 0.828340 0.990640 1.554489
S1    S     S_3+6 0.431337 0.912244 0.747951 0.031017
O21   O     O_2   0.412236 0.714592 0.725740 -0.297725
O22   O     O_2   0.500803 0.971812 0.710854 -0.344023
O23   O     O_3   0.459170 0.926872 0.848172 -0.470315
H15   H     H_    0.468013 0.060217 0.859092 0.355891
S2    S     S_3+6 0.568621 0.412442 0.251976 0.030952
O24   O     O_2   0.587712 0.214700 0.274020 -0.297767
O25   O     O_2   0.499185 0.471847 0.289158 -0.344026
O26   O     O_3   0.540750 0.427484 0.151771 -0.470291
H16   H     H_    0.531930 0.560878 0.140960 0.355884
S3    S     S_3+6 0.155359 0.504265 0.658491 0.011020
O27   O     O_2   0.072627 0.428182 0.640548 -0.320019
O28   O     O_2   0.162385 0.630685 0.729923 -0.340163
O29   O     O_3   0.173847 0.625190 0.578648 -0.501892
H17   H     H_    0.138006 0.733222 0.575292 0.382055
S4    S     S_3+6 0.844837 0.003788 0.341718 0.011061
O30   O     O_2   0.927534 0.927435 0.359455 -0.320140
O31   O     O_2   0.837772 0.130588 0.270413 -0.339950
O32   O     O_3   0.826541 0.124343 0.421740 -0.501915
H18   H     H_    0.862640 0.231936 0.425328 0.382193
Br1   Br    Br    0.242564 0.811456 0.975057 -0.486197
Br2   Br    Br    0.757373 0.311750 0.024842 -0.486310

loop_
_geom_bond_atom_site_label_1
_geom_bond_atom_site_label_2
_ccdc_geom_bond_type
O32   H18   S    
C32   S4    S    
O1    C3    A    
O2    C4    A    
C31   S3    S    
C2    O7    A    
S3    O27   D    
O5    C3    A    
C30   H10   S    
O15   C35   A    
O18   V4    S    
O16   V4    S    
O12   V3    S    
O15   V3    S    
O13   C33   A    
C16   C20   A    
O14   C34   A    
C16   C22   A    
C8    H4    S    
C15   C36   S    
C29   C31   A    
C6    C10   S    
C30   C32   A    
O17   V3    S    
C24   C32   A    
O5    V1    S    
O6    V2    S    
C21   C23   A    
C22   H14   S    
C22   C24   A    
C20   Br2   S    
S2    O26   S    
C24   C26   A    
C25   C27   A    
C9    H5    S    
C26   C28   A    
C14   C30   A    
S3    O28   D    
C11   H7    S    
C34   O17   A    
C12   H8    S    
O4    C2    A    
C7    H3    S    
O20   V3    S    
C4    C11   S    
O13   V3    S    
C5    H1    S    
O4    V2    S    
C15   C19   A    
S1    O21   D    
C23   C25   A    
S4    O31   D    
O26   H16   S    
O12   C36   A    
C7    C34   S    
O6    C4    A    
C1    C14   S    
O1    V2    S    
O2    V1    S    
S1    O22   D    
O11   V4    S    
C19   Br1   S    
O11   C35   A    
S2    O25   D    
C10   H6    S    
C13   C27   A    
C14   C28   A    
C17   C25   A    
O3    V1    S    
C16   C35   S    
S4    O32   S    
S3    O29   S    
C33   O18   A    
C6    H2    S    
S2    O24   D    
O3    C1    A    
O19   V4    S    
C9    C11   D    
C10   C12   D    
C2    C13   S    
C5    C9    S    
C28   S2    S    
C8    C33   S    
O7    V1    S    
C21   H13   S    
C1    O8    A    
C17   C19   A    
O8    V2    S    
C18   C20   A    
O23   H15   S    
C23   C31   A    
S4    O30   D    
O16   C36   A    
C3    C12   S    
C29   H9    S    
C5    C7    D    
C6    C8    D    
C15   C21   A    
S1    O23   S    
C18   C26   A    
C27   S1    S    
C17   H11   S    
C18   H12   S    
O29   H17   S    
O9    V2    S    
O10   V1    S    
O14   V4    S    
C13   C29   A    
