data_mof_unit_49952.cif
_audit_creation_date              2012-12-10T18:49:59-0500
_audit_creation_method            fapswitch 2.2
_symmetry_space_group_name_H-M    P1
_symmetry_Int_Tables_number       1
_space_group_crystal_system       triclinic
_cell_length_a                    10.687555
_cell_length_b                    9.790524
_cell_length_c                    10.696234
_cell_angle_alpha                 90.912391
_cell_angle_beta                  89.849445
_cell_angle_gamma                 89.834782
_cell_volume                      1119.06875315

loop_
_atom_site_label
_atom_site_type_symbol
_atom_type_description
_atom_site_fract_x
_atom_site_fract_y
_atom_site_fract_z
_atom_type_partial_charge
C1    C     C_R   0.260142 0.500573 0.512733 0.879931
C2    C     C_3   0.623907 0.580519 0.930562 0.435583
C3    C     C_R   0.062981 0.377438 0.551348 0.191748
C4    C     C_R   0.061964 0.627993 0.538487 0.187688
C5    C     C_R   0.934794 0.377773 0.539231 -0.275012
C6    C     C_R   0.934091 0.625354 0.526783 -0.274817
C7    C     C_R   0.872064 0.500618 0.520779 -0.084001
C8    C     C_R   0.127691 0.502218 0.537377 -0.121843
C9    C     C_R   0.590563 0.072917 0.562230 -0.086607
C10   C     C_R   0.590674 0.928683 0.562049 -0.091540
C11   C     C_R   0.409016 0.927136 0.438299 -0.074456
C12   C     C_R   0.408942 0.071312 0.438404 -0.073622
C13   C     C_R   0.495961 0.498088 0.257471 0.880367
C14   C     C_R   0.740283 0.499959 0.503954 0.900650
C15   C     C_R   0.502292 0.501138 0.742357 0.846775
C16   C     C_3   0.364979 0.556617 0.069970 0.392676
C17   C     C_3   0.516996 0.339530 0.067067 0.424225
C18   C     C_3   0.378287 0.566387 0.925737 -0.430202
C19   C     C_3   0.506740 0.350365 0.923392 -0.434632
C20   C     C_3   0.606742 0.585193 0.075649 -0.496937
C21   C     C_3   0.493841 0.493012 0.120750 0.044946
C22   C     C_3   0.504098 0.502944 0.878597 -0.030026
H1    H     H_    0.336377 0.871710 0.389206 0.137070
H2    H     H_    0.336151 0.125530 0.389516 0.132785
H3    H     H_    0.299979 0.512406 0.877500 0.145488
H4    H     H_    0.420066 0.300724 0.887905 0.177318
H5    H     H_    0.365878 0.672074 0.894859 0.187688
H6    H     H_    0.583948 0.291658 0.877258 0.189328
H7    H     H_    0.596367 0.692033 0.108600 0.183696
H8    H     H_    0.693182 0.553943 0.124503 0.168854
H9    H     H_    0.884625 0.281942 0.544410 0.154535
H10   H     H_    0.883705 0.721383 0.521913 0.159025
H11   H     H_    0.662671 0.128498 0.612129 0.120667
H12   H     H_    0.662947 0.874371 0.611693 0.141869
N1    N     N_R   0.499970 0.857200 0.499970 -0.075722
N2    N     N_R   0.499970 0.142800 0.499970 -0.072202
O1    O     O_R   0.316750 0.614620 0.499990 -0.598711
O2    O     O_R   0.316750 0.385380 0.499990 -0.596114
O3    O     O_R   0.499970 0.614670 0.314790 -0.622892
O4    O     O_R   0.499970 0.385330 0.314790 -0.621886
O5    O     O_R   0.683220 0.614710 0.500010 -0.626095
O6    O     O_R   0.683220 0.385290 0.500010 -0.636068
O7    O     O_R   0.500010 0.614660 0.685200 -0.604308
O8    O     O_R   0.500010 0.385340 0.685200 -0.639740
Zn1   Zn    Zn3+2 0.499980 0.653120 0.500000 0.939977
Zn2   Zn    Zn3+2 0.499980 0.346880 0.500000 0.930555
C23   C     C_3   0.332639 0.700332 0.127703 -0.877338
H13   H     H_    0.412450 0.770152 0.136628 0.223847
H14   H     H_    0.259763 0.752352 0.071574 0.224250
H15   H     H_    0.293334 0.690730 0.223489 0.250822
C24   C     C_3   0.650116 0.282244 0.100342 -0.887288
H16   H     H_    0.729143 0.343272 0.067316 0.256217
H17   H     H_    0.662777 0.270158 0.202328 0.258296
H18   H     H_    0.663597 0.179279 0.056793 0.225251
C25   C     C_3   0.246773 0.470158 0.098956 -0.927403
H19   H     H_    0.160314 0.527119 0.074115 0.247135
H20   H     H_    0.241927 0.375103 0.042018 0.238255
H21   H     H_    0.240161 0.447598 0.200193 0.228477
C26   C     C_3   0.423290 0.226162 0.114330 -0.846650
H22   H     H_    0.472176 0.135790 0.152984 0.237647
H23   H     H_    0.360668 0.260798 0.190456 0.241205
H24   H     H_    0.362436 0.182207 0.040266 0.201600
N3    N     N_2   0.644182 0.718855 0.879570 -0.281526
H25   H     H_    0.732328 0.756637 0.897165 0.236385
C27   C     C_3   0.554467 0.830607 0.884529 -0.825975
H26   H     H_    0.603304 0.928250 0.865379 0.217309
H27   H     H_    0.511403 0.842705 0.977277 0.234943
H28   H     H_    0.483451 0.820761 0.810148 0.271271
N4    N     N_2   0.734796 0.497662 0.896329 -0.319472
H29   H     H_    0.733564 0.455845 0.807214 0.219103
C28   C     C_3   0.860124 0.543314 0.928839 -0.882742
H30   H     H_    0.922207 0.452927 0.937815 0.253669
H31   H     H_    0.862226 0.602001 0.018217 0.242161
H32   H     H_    0.898414 0.607924 0.853368 0.248771
N5    N     N_2   0.125454 0.251837 0.576165 -0.281440
H33   H     H_    0.079141 0.165704 0.544480 0.208242
C29   C     C_3   0.167366 0.239025 0.704027 -0.757593
H34   H     H_    0.085627 0.234366 0.768272 0.220278
H35   H     H_    0.227446 0.326694 0.731689 0.237306
H36   H     H_    0.223351 0.144041 0.712974 0.228706
N6    N     N_2   0.122971 0.756994 0.549276 -0.283174
H37   H     H_    0.077386 0.835968 0.505476 0.205644
C30   C     C_3   0.159824 0.793515 0.675499 -0.762302
H38   H     H_    0.075658 0.810169 0.735118 0.218678
H39   H     H_    0.215480 0.889005 0.674300 0.230559
H40   H     H_    0.218625 0.711918 0.716266 0.240867

loop_
_geom_bond_atom_site_label_1
_geom_bond_atom_site_label_2
_ccdc_geom_bond_type
C6    H10   S    
C25   H19   S    
N3    C27   S    
C16   C21   S    
C1    C8    S    
C4    C8    A    
C17   C24   S    
N6    H37   S    
C23   H14   S    
C20   H8    S    
C29   H34   S    
O4    Zn2   S    
C15   O8    A    
O6    Zn2   S    
N4    C28   S    
C19   H4    S    
C13   O4    A    
C15   C22   S    
C4    N6    S    
C23   H13   S    
C27   H27   S    
C2    C22   S    
C9    N2    A    
N2    Zn2   S    
C10   N1    A    
C12   N2    A    
C2    N4    S    
C3    N5    S    
C9    C10   A    
C1    O1    A    
O3    Zn1   S    
C26   H22   S    
C9    H11   S    
C18   H3    S    
C16   C23   S    
N6    C30   S    
O8    Zn2   S    
C23   H15   S    
C20   H7    S    
C29   H35   S    
C26   H23   S    
C13   O3    A    
C2    C20   S    
C24   H16   S    
C19   C22   S    
C4    C6    A    
C3    C8    A    
C5    C7    A    
C7    C14   S    
C24   H17   S    
N5    H33   S    
O7    Zn1   S    
C30   H38   S    
C27   H28   S    
C13   C21   S    
C10   H12   S    
C19   H6    S    
N5    C29   S    
C1    O2    A    
C17   C26   S    
C14   O5    A    
C30   H39   S    
C25   H20   S    
O1    Zn1   S    
N1    Zn1   S    
C2    N3    S    
C28   H31   S    
C29   H36   S    
C26   H24   S    
C18   C22   S    
C18   H5    S    
C3    C5    A    
C28   H32   S    
C11   C12   A    
C6    C7    A    
C12   H2    S    
C14   O6    A    
C24   H18   S    
C11   N1    A    
C16   C25   S    
C15   O7    A    
C28   H30   S    
C11   H1    S    
C17   C19   S    
N4    H29   S    
C17   C21   S    
O2    Zn2   S    
N3    H25   S    
C30   H40   S    
C20   C21   S    
C16   C18   S    
C27   H26   S    
C25   H21   S    
O5    Zn1   S    
C5    H9    S    
