data_mof_unit_20696.cif
_audit_creation_date              2012-12-11T17:15:59-0500
_audit_creation_method            fapswitch 2.2
_symmetry_space_group_name_H-M    P1
_symmetry_Int_Tables_number       1
_space_group_crystal_system       triclinic
_cell_length_a                    14.619075
_cell_length_b                    7.228965
_cell_length_c                    13.467605
_cell_angle_alpha                 90.000011
_cell_angle_beta                  99.435457
_cell_angle_gamma                 90.000042
_cell_volume                      1404.01149934

loop_
_atom_site_label
_atom_site_type_symbol
_atom_type_description
_atom_site_fract_x
_atom_site_fract_y
_atom_site_fract_z
_atom_type_partial_charge
O1    O     O_R   0.398210 0.494340 0.401550 -0.531753
O2    O     O_R   0.601790 0.994340 0.598450 -0.531735
O3    O     O_R   0.586310 0.821730 0.403360 -0.552096
O4    O     O_R   0.413690 0.321730 0.596640 -0.552120
C1    C     C_R   0.614767 0.655135 0.381128 0.716009
C2    C     C_R   0.385235 0.155136 0.618874 0.716024
O5    O     O_R   0.397970 0.823900 0.389580 -0.536759
O6    O     O_R   0.602030 0.323900 0.610420 -0.536761
O7    O     O_R   0.412100 0.996500 0.584560 -0.517393
O8    O     O_R   0.587900 0.496500 0.415440 -0.517384
C3    C     C_R   0.365016 0.655232 0.363049 0.713516
C4    C     C_R   0.634984 0.155232 0.636951 0.713545
O9    O     O_3   0.504860 0.661550 0.563990 -0.368937
O10   O     O_3   0.495140 0.161550 0.436010 -0.368927
V1    V     V_3+5 0.499100 0.935510 0.488130 1.486388
V2    V     V_3+5 0.500900 0.435510 0.511870 1.486340
C5    C     C_1   0.716059 0.144650 0.716815 -0.170116
C6    C     C_1   0.283941 0.644650 0.283185 -0.170112
C7    C     C_1   0.783953 0.134137 0.783170 -0.181731
C8    C     C_1   0.216047 0.634137 0.216830 -0.181735
C9    C     C_3   0.276923 0.230670 0.863208 -0.349182
C10   C     C_3   0.723051 0.730519 0.136765 -0.349158
H1    H     H_    0.260286 0.372056 0.887648 0.159153
H2    H     H_    0.739643 0.871901 0.112279 0.159130
H3    H     H_    0.307731 0.152920 0.931903 0.138572
H4    H     H_    0.692269 0.652671 0.068094 0.138578
C11   C     C_3   0.349055 0.245177 0.790584 -0.434051
C12   C     C_3   0.650912 0.745013 0.209382 -0.434086
H5    H     H_    0.416669 0.187003 0.826910 0.144539
H6    H     H_    0.583321 0.686705 0.173077 0.144526
H7    H     H_    0.238609 0.393507 0.628316 0.100460
H8    H     H_    0.761313 0.893676 0.371577 0.100538
C13   C     C_3   0.148806 0.237950 0.713380 -0.362562
C14   C     C_3   0.851169 0.738095 0.286589 -0.362542
C15   C     C_3   0.214023 0.933735 0.781886 -0.364929
C16   C     C_3   0.786047 0.433738 0.218196 -0.364930
C17   C     C_3   0.187006 0.132089 0.811757 0.050100
C18   C     C_3   0.812999 0.632089 0.188250 0.050079
H9    H     H_    0.239586 0.851664 0.850806 0.149559
H10   H     H_    0.760502 0.351568 0.149307 0.149590
C19   C     C_3   0.313459 0.145357 0.689227 0.055235
C20   C     C_3   0.686546 0.645355 0.310778 0.055248
C21   C     C_3   0.222129 0.245417 0.641129 0.148872
C22   C     C_3   0.777843 0.745584 0.358834 0.148877
C23   C     C_3   0.288462 0.940209 0.712134 0.239773
C24   C     C_3   0.711615 0.440206 0.287954 0.239769
H11   H     H_    0.258312 0.872672 0.639880 0.148081
H12   H     H_    0.741795 0.372800 0.360235 0.148060
O11   O     O_R   0.912140 0.786650 0.084610 -0.538352
O12   O     O_R   0.087860 0.286650 0.915390 -0.538353
O13   O     O_R   0.102040 0.454810 0.110430 -0.534341
O14   O     O_R   0.897960 0.954810 0.889570 -0.534336
C25   C     C_R   0.134980 0.623568 0.136951 0.718697
C26   C     C_R   0.865020 0.123568 0.863048 0.718704
O15   O     O_R   0.913690 0.457060 0.096650 -0.544343
O16   O     O_R   0.086310 0.957060 0.903350 -0.544342
O17   O     O_R   0.898200 0.284560 0.901540 -0.531330
O18   O     O_R   0.101800 0.784560 0.098460 -0.531332
C27   C     C_R   0.884831 0.625158 0.117958 0.673273
C28   C     C_R   0.115172 0.125158 0.882046 0.673272
O19   O     O_3   0.995160 0.617270 0.936040 -0.374658
O20   O     O_3   0.004840 0.117270 0.063960 -0.374663
V3    V     V_3+5 0.000900 0.343280 0.011870 1.401213
V4    V     V_3+5 0.999100 0.843280 0.988130 1.401223
H13   H     H_    0.084077 0.169885 0.675547 0.149496
H14   H     H_    0.915915 0.670125 0.324449 0.149517
O21   O     O_3   0.186224 0.163906 0.548088 -0.664185
H15   H     H_    0.139861 0.251746 0.512487 0.286713
O22   O     O_3   0.813773 0.664240 0.451913 -0.664188
H16   H     H_    0.860080 0.752209 0.487494 0.286710
H17   H     H_    0.361854 0.393852 0.776283 0.182373
H18   H     H_    0.638054 0.893688 0.223622 0.182337
H19   H     H_    0.129893 0.381597 0.731779 0.130447
H20   H     H_    0.870047 0.881736 0.268137 0.130463
H21   H     H_    0.151491 0.860846 0.742055 0.131043
H22   H     H_    0.848605 0.360954 0.258045 0.131010
O23   O     O_3   0.367427 0.836119 0.752509 -0.652639
H23   H     H_    0.389264 0.878309 0.822417 0.285823
O24   O     O_3   0.632687 0.335962 0.247629 -0.652625
H24   H     H_    0.610823 0.378046 0.177707 0.285814

loop_
_geom_bond_atom_site_label_1
_geom_bond_atom_site_label_2
_ccdc_geom_bond_type
C1    C20   S    
C3    C6    S    
O15   C27   A    
C11   H5    S    
O1    C3    A    
O2    C4    A    
C14   H14   S    
C2    O7    A    
C13   H13   S    
O23   H23   S    
O5    C3    A    
C15   H21   S    
H7    C21   S    
C15   C17   S    
C24   O24   S    
C10   C18   S    
C20   C24   S    
C12   C20   S    
C16   H22   S    
C2    C19   S    
O15   V3    S    
C4    C5    S    
O16   V4    S    
C16   C24   S    
O5    V1    S    
C9    C11   S    
O6    V2    S    
O11   V4    S    
C10   C12   S    
O12   V3    S    
C19   C21   S    
C12   H18   S    
C20   C22   S    
O14   C26   A    
O17   V3    S    
C23   H11   S    
O18   V4    S    
C24   H12   S    
O21   H15   S    
C13   C21   S    
C16   H10   S    
O13   V3    S    
O24   H24   S    
O4    C2    A    
O14   V4    S    
C13   C17   S    
O16   C28   A    
C11   H17   S    
O13   C25   A    
O4    V2    S    
O19   V4    S    
C15   H9    S    
O20   V3    S    
C11   C19   S    
O6    C4    A    
H8    C22   S    
C14   C22   S    
C22   O22   S    
O1    V2    S    
O2    V1    S    
C14   H20   S    
C7    C26   S    
C13   H19   S    
C9    H1    S    
C10   H2    S    
C15   C23   S    
O3    V1    S    
C9    H3    S    
C14   C18   S    
C8    C25   S    
O3    C1    A    
C25   O18   A    
O11   C27   A    
O12   C28   A    
C12   H6    S    
O7    V1    S    
C1    O8    A    
O8    V2    S    
C16   C18   S    
C5    C7    T    
C6    C8    T    
O22   H16   S    
C17   C28   S    
C18   C27   S    
C9    C17   S    
C21   O21   S    
C10   H4    S    
O9    V2    S    
C19   C23   S    
O10   V1    S    
C23   O23   S    
C26   O17   A    
