data_mof_unit_61673.cif
_audit_creation_date              2012-12-10T17:11:51-0500
_audit_creation_method            fapswitch 2.2
_symmetry_space_group_name_H-M    P1
_symmetry_Int_Tables_number       1
_space_group_crystal_system       triclinic
_cell_length_a                    21.709655
_cell_length_b                    21.56683
_cell_length_c                    21.99331
_cell_angle_alpha                 61.072247
_cell_angle_beta                  119.664951
_cell_angle_gamma                 90.192082
_cell_volume                      7444.63216562

loop_
_atom_site_label
_atom_site_type_symbol
_atom_type_description
_atom_site_fract_x
_atom_site_fract_y
_atom_site_fract_z
_atom_type_partial_charge
C1    C     C_R   0.622148 0.498315 0.503698 0.921899
C2    C     C_3   0.288544 0.704944 0.083119 -0.052079
C3    C     C_3   0.213337 0.706811 0.970543 0.114205
C4    C     C_3   0.205733 0.789690 0.917504 -0.087468
C5    C     C_3   0.203636 0.721730 0.028033 0.113921
C6    C     C_3   0.195232 0.805171 0.973851 0.159406
C7    C     C_1   0.334980 0.660539 0.173878 0.089792
C8    C     C_1   0.161306 0.835964 0.826546 0.118642
C9    C     C_R   0.740611 0.538305 0.608954 0.050440
C10   C     C_R   0.777270 0.587451 0.626067 0.088605
C11   C     C_R   0.832666 0.601954 0.611326 0.108260
C12   C     C_R   0.419146 0.580897 0.337518 0.868408
C13   C     C_R   0.858909 0.557287 0.594056 0.054175
C14   C     C_R   0.809269 0.525525 0.553475 -0.035722
C15   C     C_R   0.746396 0.519546 0.557603 0.045145
C16   C     C_R   0.692233 0.495171 0.510900 -0.161457
C17   C     C_R   0.701958 0.474124 0.463823 0.030127
C18   C     C_R   0.765038 0.476359 0.463221 0.188941
C19   C     C_R   0.817186 0.503459 0.505457 -0.169503
C20   C     C_3   0.714382 0.205210 0.027957 0.154060
C21   C     C_3   0.683132 0.291755 0.972379 0.166017
C22   C     C_1   0.625412 0.375244 0.751259 -0.162136
C23   C     C_R   0.376419 0.503421 0.493177 0.869307
C24   C     C_1   0.874740 0.127508 0.249061 -0.164543
C25   C     C_3   0.737938 0.206311 0.971080 -0.290041
C26   C     C_3   0.707662 0.292603 0.916909 0.037582
C27   C     C_3   0.814046 0.211794 0.027019 0.093743
C28   C     C_3   0.791261 0.209916 0.083475 0.049261
C29   C     C_3   0.783930 0.296787 0.972532 0.073384
C30   C     C_3   0.760461 0.295194 0.028171 0.001768
C31   C     C_1   0.662729 0.337927 0.826197 0.027170
C32   C     C_1   0.837163 0.165017 0.174166 0.036325
C33   C     C_R   0.242995 0.477328 0.375578 0.033319
C34   C     C_R   0.581040 0.419043 0.662490 0.930324
C35   C     C_R   0.196224 0.438413 0.347903 0.180438
C36   C     C_R   0.161683 0.401004 0.388614 0.131423
C37   C     C_R   0.166935 0.410596 0.449635 0.063007
C38   C     C_R   0.200430 0.462657 0.463567 -0.048298
C39   C     C_R   0.250741 0.483155 0.440704 0.015174
C40   C     C_R   0.305430 0.508879 0.484093 -0.096759
C41   C     C_R   0.296460 0.532723 0.528969 -0.211655
C42   C     C_R   0.235783 0.528301 0.534691 0.087274
C43   C     C_R   0.187888 0.492876 0.502379 -0.036527
C44   C     C_R   0.998873 0.880364 0.498373 0.949052
C45   C     C_3   0.290836 0.772992 0.972616 0.112089
C46   C     C_R   0.081079 0.918798 0.662442 0.896212
C47   C     C_R   0.001658 0.118786 0.502525 0.885213
C48   C     C_R   0.918965 0.082431 0.337780 0.861078
C49   C     C_R   0.010413 0.619591 0.500357 0.924796
C50   C     C_R   0.880667 0.505256 0.500948 0.926276
C51   C     C_R   0.989561 0.380497 0.499500 0.951925
C52   C     C_R   0.120499 0.496322 0.500421 0.938948
C53   C     C_R   0.901072 0.880710 0.344785 0.048145
C54   C     C_R   0.877363 0.887858 0.268817 0.091064
C55   C     C_R   0.915512 0.834952 0.269560 0.038642
C56   C     C_3   0.280134 0.786934 0.029415 0.009675
C57   C     C_R   0.971189 0.770278 0.346830 0.150426
C58   C     C_R   0.985328 0.757240 0.422933 -0.023753
C59   C     C_R   0.960913 0.817695 0.422431 -0.013072
C60   C     C_R   0.999374 0.812984 0.499320 -0.155751
C61   C     C_R   0.053498 0.746401 0.575402 0.077857
C62   C     C_R   0.065442 0.682161 0.576441 0.153788
C63   C     C_R   0.024290 0.686510 0.500114 -0.200583
C64   C     C_R   0.100725 0.120161 0.655442 0.030317
C65   C     C_R   0.127014 0.115956 0.730590 0.121157
C66   C     C_R   0.087444 0.168380 0.729353 0.053192
C67   C     C_1   0.373603 0.624232 0.248784 -0.140799
C68   C     C_R   0.029522 0.230686 0.652143 0.204780
C69   C     C_R   0.014505 0.242771 0.576182 -0.067767
C70   C     C_R   0.039343 0.181731 0.577909 0.019246
C71   C     C_R   0.001809 0.185784 0.501570 -0.083247
C72   C     C_R   0.952474 0.253317 0.424193 0.033159
C73   C     C_R   0.943466 0.318132 0.422403 0.143117
C74   C     C_R   0.978121 0.313547 0.498961 -0.115206
C75   C     C_1   0.124936 0.873985 0.751499 -0.119142
C76   C     C_3   0.298861 0.689692 0.026699 0.113017
H1    H     H_    0.728901 0.169925 0.947020 0.181663
H2    H     H_    0.336876 0.554488 0.560257 0.171829
O1    O     O_R   0.591660 0.448290 0.500000 -0.636037
O2    O     O_R   0.948250 0.908380 0.499990 -0.595675
O3    O     O_R   0.113330 0.938270 0.623230 -0.595903
O4    O     O_R   0.009880 0.938380 0.623210 -0.601750
O5    O     O_R   0.051750 0.091470 0.500010 -0.593720
O6    O     O_R   0.948300 0.091580 0.500000 -0.622142
O7    O     O_R   0.990120 0.061470 0.376790 -0.609565
O8    O     O_R   0.886670 0.061580 0.376770 -0.607565
O9    O     O_R   0.965170 0.626380 0.430470 -0.617079
O10   O     O_R   0.034730 0.556800 0.569600 -0.583332
O11   O     O_R   0.873600 0.534810 0.430420 -0.609297
O12   O     O_R   0.591590 0.551700 0.500020 -0.613043
O13   O     O_R   0.943150 0.465220 0.569550 -0.578854
O14   O     O_R   0.965270 0.443220 0.430400 -0.590295
O15   O     O_R   0.034830 0.373630 0.569530 -0.602806
O16   O     O_R   0.056850 0.534790 0.430450 -0.603239
O17   O     O_R   0.126400 0.465210 0.569580 -0.591009
O18   O     O_R   0.438430 0.509910 0.376770 -0.628656
O19   O     O_R   0.438360 0.613320 0.376790 -0.605892
O20   O     O_R   0.408410 0.448300 0.499980 -0.617093
O21   O     O_R   0.408340 0.551710 0.500000 -0.618296
O22   O     O_R   0.561640 0.386680 0.623210 -0.600757
O23   O     O_R   0.561570 0.490090 0.623230 -0.628140
O24   O     O_R   0.051700 0.908270 0.500000 -0.606486
Zn1   Zn    Zn3+2 0.500040 0.430950 0.499990 0.998322
Zn2   Zn    Zn3+2 0.499960 0.569050 0.500010 0.979348
Zn3   Zn    Zn3+2 0.069070 0.999850 0.500010 1.039858
Zn4   Zn    Zn3+2 0.930930 1.000000 0.499990 1.027787
Zn5   Zn    Zn3+2 0.953560 0.546470 0.407100 1.042061
Zn6   Zn    Zn3+2 0.046440 0.453550 0.592900 1.096262
N1    N     N_3   0.317711 0.828545 0.064857 -0.393355
H3    H     H_    0.305728 0.881631 0.014938 0.248678
H4    H     H_    0.375070 0.802962 0.099949 0.209816
N2    N     N_3   0.871391 0.650671 0.630747 -0.404989
H5    H     H_    0.909289 0.621517 0.695987 0.233513
H6    H     H_    0.901635 0.665715 0.603521 0.203748
I1    I     I_    0.975571 0.500865 0.689924 -0.243170
I2    I     I_    0.779274 0.434419 0.398427 -0.288227
I3    I     I_    0.578815 0.357752 0.927290 -0.250461
I4    I     I_    0.661283 0.129682 0.074319 -0.285749
N3    N     N_3   0.773391 0.342621 0.060201 -0.410620
H7    H     H_    0.748522 0.397869 0.008370 0.204992
H8    H     H_    0.830798 0.334020 0.094384 0.196175
N4    N     N_3   0.821750 0.346322 0.941667 -0.435446
H9    H     H_    0.871075 0.338337 0.994050 0.208721
H10   H     H_    0.788262 0.400959 0.907736 0.180272
N5    N     N_3   0.886056 0.168748 0.057777 -0.423686
H11   H     H_    0.884707 0.179700 0.005293 0.212360
H12   H     H_    0.890519 0.112437 0.091417 0.188306
I5    I     I_    0.358378 0.816754 0.927073 -0.244056
N6    N     N_3   0.272665 0.518674 0.328298 -0.401767
H13   H     H_    0.282750 0.564326 0.332392 0.179578
H14   H     H_    0.321555 0.482517 0.351133 0.237356
I6    I     I_    0.182730 0.434051 0.247187 -0.191524
I7    I     I_    0.100211 0.331534 0.357450 -0.279428
I8    I     I_    0.162054 0.322520 0.547663 -0.288849
N7    N     N_3   0.223525 0.558432 0.574753 -0.428998
H15   H     H_    0.270713 0.532288 0.636327 0.220194
H16   H     H_    0.218279 0.615156 0.542898 0.212043
I9    I     I_    0.115191 0.742929 0.689402 -0.230377
N8    N     N_3   0.860193 0.934116 0.343104 -0.413988
H17   H     H_    0.805922 0.930840 0.320121 0.221607
H18   H     H_    0.856685 0.987078 0.300243 0.202610
N9    N     N_3   0.816782 0.951468 0.190784 -0.441659
H19   H     H_    0.776003 0.932543 0.159352 0.225957
H20   H     H_    0.836535 0.981306 0.153901 0.206372
N10   N     N_3   0.896723 0.847749 0.191243 -0.454890
H21   H     H_    0.943135 0.852813 0.188145 0.226398
H22   H     H_    0.883540 0.801674 0.189605 0.219309
I10   I     I_    0.048378 0.707446 0.348263 -0.356589
I11   I     I_    0.113377 0.897805 0.930790 -0.257561
I12   I     I_    0.153963 0.583022 0.690753 -0.190549
N11   N     N_3   0.913720 0.257626 0.346396 -0.457621
H23   H     H_    0.952941 0.236901 0.340980 0.207088
H24   H     H_    0.878829 0.224201 0.347821 0.203334
N12   N     N_3   0.140894 0.066603 0.656696 -0.408615
H25   H     H_    0.145912 0.013572 0.700981 0.198264
H26   H     H_    0.194440 0.071295 0.676303 0.240570
I13   I     I_    0.224723 0.029437 0.845905 -0.365640
N13   N     N_3   0.105589 0.159323 0.805882 -0.401292
H27   H     H_    0.101635 0.107794 0.842521 0.236002
H28   H     H_    0.160602 0.159260 0.838560 0.230260
I14   I     I_    0.952840 0.291441 0.652891 -0.256135
N14   N     N_3   0.898642 0.388341 0.342910 -0.392546
H29   H     H_    0.844862 0.385644 0.310120 0.225538
H30   H     H_    0.921381 0.396878 0.308280 0.225319
I15   I     I_    0.137808 0.678720 0.076518 -0.193328
I16   I     I_    0.158272 0.643011 0.922685 -0.152193
I17   I     I_    0.381970 0.596854 0.071873 -0.189709
N15   N     N_3   0.646668 0.453164 0.412519 -0.398180
H31   H     H_    0.643543 0.401941 0.450890 0.235458
H32   H     H_    0.595022 0.494542 0.371378 0.204610
N16   N     N_3   0.705391 0.501587 0.651001 -0.439574
H33   H     H_    0.668224 0.541936 0.640645 0.210611
H34   H     H_    0.746473 0.468072 0.715604 0.184040
N17   N     N_3   0.762254 0.619159 0.663389 -0.424068
H35   H     H_    0.773916 0.576075 0.721467 0.185692
H36   H     H_    0.705623 0.649482 0.624000 0.190346

loop_
_geom_bond_atom_site_label_1
_geom_bond_atom_site_label_2
_ccdc_geom_bond_type
C10   N17   S    
C66   C68   A    
C21   C26   S    
C1    O12   A    
C49   C63   S    
C64   N12   S    
C27   C29   S    
N8    H18   S    
C41   C42   A    
C49   O9    A    
C23   O21   A    
C35   C36   A    
C51   C74   S    
C66   N13   S    
C4    C8    S    
C36   I7    S    
N2    H6    S    
N10   H21   S    
C53   C59   A    
N7    H15   S    
C68   I14   S    
N16   H34   S    
C73   N14   S    
N5    H11   S    
C76   I17   S    
C45   C76   S    
C25   H1    S    
C36   C37   A    
C37   C38   A    
N6    H13   S    
N1    H4    S    
O15   Zn6   S    
C5    C6    S    
O10   Zn6   S    
C43   C52   S    
C55   N10   S    
C20   C25   S    
C45   I5    S    
C23   C40   S    
O2    Zn4   S    
C11   C13   A    
C52   O17   A    
C18   C19   A    
C73   C74   A    
N17   H35   S    
N2    H5    S    
C21   I3    S    
O24   Zn3   S    
C50   O11   A    
C46   O4    A    
C6    I11   S    
C2    C7    S    
C45   C56   S    
C16   C17   A    
C34   O22   A    
N11   H23   S    
C52   O16   A    
C70   C71   A    
C5    I15   S    
O4    Zn4   S    
C9    C10   A    
N12   H26   S    
C61   C62   A    
N15   H32   S    
O21   Zn2   S    
C59   C60   A    
C13   C14   A    
N13   H28   S    
C49   O10   A    
O1    Zn1   S    
O8    Zn4   S    
O7    Zn3   S    
C14   C19   A    
C20   I4    S    
C46   C75   S    
N10   H22   S    
N14   H30   S    
C4    C45   S    
N3    H8    S    
C22   C34   S    
C12   C67   S    
O3    Zn3   S    
O16   Zn5   S    
C34   O23   A    
C22   C31   T    
C24   C48   S    
C44   O2    A    
C4    C6    S    
C10   C11   A    
C18   I2    S    
C41   H2    S    
C44   O24   A    
C68   C69   A    
C20   C28   S    
C25   C26   S    
C53   C54   A    
C8    C75   T    
O5    Zn3   S    
C60   C61   A    
O22   Zn1   S    
C24   C32   T    
C29   C30   S    
C51   O14   A    
C46   O3    A    
O14   Zn5   S    
O6    Zn4   S    
C14   C15   A    
C28   C32   S    
N3    H7    S    
C72   N11   S    
O12   Zn2   S    
C29   N4    S    
O11   Zn5   S    
C62   C63   A    
C17   C18   A    
N12   H25   S    
C69   C74   A    
C1    C16   S    
C33   C39   A    
C47   O6    A    
C3    C76   S    
N16   H33   S    
C47   C71   S    
C12   O19   A    
C13   I1    S    
C51   O15   A    
C65   I13   S    
N15   H31   S    
C54   N9    S    
O23   Zn2   S    
C64   C70   A    
C55   C57   A    
N13   H27   S    
C1    O1    A    
C48   O8    A    
C9    N16   S    
C2    C5    S    
C42   C43   A    
N4    H10   S    
C3    C4    S    
C56   N1    S    
C39   C40   A    
C2    C76   S    
N5    H12   S    
N14   H29   S    
C33   N6    S    
C58   C63   A    
N7    H16   S    
C54   C55   A    
C40   C41   A    
C62   I12   S    
C11   N2    S    
C53   N8    S    
O13   Zn6   S    
C48   O7    A    
C12   O18   A    
C6    C56   S    
C72   C73   A    
C3    C5    S    
C17   N15   S    
N8    H17   S    
C25   C27   S    
C21   C30   S    
C64   C65   A    
C28   C30   S    
C58   C59   A    
C38   C43   A    
C2    C56   S    
N1    H3    S    
C27   N5    S    
C19   C50   S    
C57   C58   A    
C38   C39   A    
C44   C60   S    
C15   C16   A    
C33   C35   A    
N9    H20   S    
N11   H24   S    
C9    C15   A    
C69   C70   A    
C61   I9    S    
N17   H36   S    
O19   Zn2   S    
O17   Zn6   S    
C7    C67   T    
C47   O5    A    
C50   O13   A    
C26   C31   S    
C23   O20   A    
O9    Zn5   S    
C20   C21   S    
C26   C29   S    
C65   C66   A    
C30   N3    S    
C57   I10   S    
C27   C28   S    
N9    H19   S    
C37   I8    S    
C42   N7    S    
C71   C72   A    
N4    H9    S    
O18   Zn1   S    
C35   I6    S    
O20   Zn1   S    
C3    I16   S    
N6    H14   S    
