data_mof_unit_39253.cif
_audit_creation_date              2012-12-10T17:02:13-0500
_audit_creation_method            fapswitch 2.2
_symmetry_space_group_name_H-M    P1
_symmetry_Int_Tables_number       1
_space_group_crystal_system       triclinic
_cell_length_a                    10.659812
_cell_length_b                    10.68919
_cell_length_c                    10.069125
_cell_angle_alpha                 89.091772
_cell_angle_beta                  90.184434
_cell_angle_gamma                 90.777838
_cell_volume                      1147.06895722

loop_
_atom_site_label
_atom_site_type_symbol
_atom_type_description
_atom_site_fract_x
_atom_site_fract_y
_atom_site_fract_z
_atom_type_partial_charge
C1    C     C_R   0.488381 0.263491 0.501159 0.950636
C2    C     C_R   0.068582 0.607997 0.561172 0.092193
C3    C     C_R   0.128268 0.507727 0.498351 -0.138491
C4    C     C_R   0.060688 0.412426 0.434312 -0.022153
C5    C     C_R   0.932260 0.415420 0.435054 -0.230092
C6    C     C_R   0.871678 0.510501 0.500788 -0.113530
C7    C     C_2   0.428369 0.934135 0.409193 -0.041268
C8    C     C_2   0.506565 0.870562 0.491849 -0.185222
C9    C     C_2   0.438734 0.068866 0.396496 -0.174337
C10   C     C_2   0.452700 0.134718 0.506396 -0.327846
C11   C     C_2   0.465698 0.593768 0.923212 -0.124698
C12   C     C_R   0.260769 0.501405 0.499658 0.861309
C13   C     C_2   0.487972 0.598809 0.070805 -0.130664
C14   C     C_R   0.500271 0.737487 0.498552 0.850813
C15   C     C_R   0.739288 0.504154 0.500251 0.877562
C16   C     C_R   0.136423 0.708768 0.618310 -0.156914
C17   C     C_R   0.074243 0.804346 0.682191 -0.138337
C18   C     C_R   0.944061 0.802785 0.688398 -0.108986
C19   C     C_R   0.875450 0.706939 0.628425 -0.165241
C20   C     C_R   0.937150 0.608212 0.564489 0.085303
H1    H     H_    0.440072 0.091270 0.604022 0.164680
H2    H     H_    0.422943 0.673670 0.874233 0.166906
H3    H     H_    0.560239 0.437513 0.896336 0.181278
H4    H     H_    0.492331 0.690640 0.114980 0.165510
H5    H     H_    0.237505 0.715725 0.613435 0.143396
H6    H     H_    0.127266 0.880120 0.726513 0.143625
H7    H     H_    0.896254 0.876885 0.738767 0.160694
H8    H     H_    0.774382 0.711715 0.632140 0.155834
H9    H     H_    0.878651 0.341576 0.387115 0.160097
H10   H     H_    0.440562 0.112019 0.298053 0.193194
N1    N     N_2   0.501340 0.501330 0.852150 -0.189231
N2    N     N_2   0.501380 0.501360 0.147810 -0.148981
O1    O     O_R   0.499980 0.319060 0.613040 -0.609853
O2    O     O_R   0.500020 0.319100 0.386900 -0.620403
O3    O     O_R   0.316750 0.499980 0.613090 -0.613152
O4    O     O_R   0.316790 0.500020 0.386950 -0.606031
O5    O     O_R   0.499980 0.680900 0.613100 -0.630617
O6    O     O_R   0.500020 0.680940 0.386960 -0.613361
O7    O     O_R   0.683210 0.499980 0.613050 -0.615642
O8    O     O_R   0.683250 0.500020 0.386910 -0.606502
Zn1   Zn    Zn3+2 0.499970 0.499970 0.650990 0.953953
Zn2   Zn    Zn3+2 0.500030 0.500030 0.349010 0.971455
C21   C     C_1   0.120828 0.308489 0.370837 0.190059
N3    N     N_1   0.168774 0.225425 0.320066 -0.191298
C22   C     C_1   0.450224 0.388149 0.105091 0.343877
N4    N     N_1   0.407557 0.294010 0.070244 -0.245724
C23   C     C_1   0.330391 0.873497 0.332164 0.200308
N5    N     N_1   0.252149 0.825057 0.270884 -0.193572
C24   C     C_1   0.611606 0.928038 0.561232 0.151533
N6    N     N_1   0.694871 0.974770 0.616307 -0.222068

loop_
_geom_bond_atom_site_label_1
_geom_bond_atom_site_label_2
_ccdc_geom_bond_type
C21   N3    T    
C4    C21   S    
C12   O4    A    
C6    C20   A    
C9    C10   D    
C13   N2    D    
O4    Zn2   S    
C23   N5    T    
O2    Zn2   S    
O1    Zn1   S    
O8    Zn2   S    
C17   C18   A    
C11   N1    D    
C7    C8    D    
O7    Zn1   S    
N1    Zn1   S    
C22   N4    T    
C14   O5    A    
C19   H8    S    
C11   C13   S    
C15   O7    A    
C16   C17   A    
C9    H10   S    
C17   H6    S    
C1    O2    A    
O6    Zn2   S    
C2    C3    A    
C10   H1    S    
O5    Zn1   S    
C5    C6    A    
O3    Zn1   S    
C15   O8    A    
C14   O6    A    
C1    C10   S    
C1    O1    A    
C2    C20   A    
C3    C4    A    
C5    H9    S    
C2    C16   A    
C24   N6    T    
N2    C22   S    
C16   H5    S    
C7    C9    S    
N2    Zn2   S    
C18   C19   A    
C8    C14   S    
C3    C12   S    
C11   H2    S    
C6    C15   S    
C8    C24   S    
C18   H7    S    
C19   C20   A    
C13   H4    S    
C7    C23   S    
C4    C5    A    
C12   O3    A    
H3    N1    S    
