data_mof_unit_22275.cif
_audit_creation_date              2013-03-05T16:24:18-0500
_audit_creation_method            fapswitch 2.2
_symmetry_space_group_name_H-M    P1
_symmetry_Int_Tables_number       1
_space_group_crystal_system       triclinic
_cell_length_a                    22.329593
_cell_length_b                    15.72146
_cell_length_c                    14.956287
_cell_angle_alpha                 90.57747
_cell_angle_beta                  90.086727
_cell_angle_gamma                 89.444051
_cell_volume                      5249.94234382

loop_
_atom_site_label
_atom_site_type_symbol
_atom_site_description
_atom_site_fract_x
_atom_site_fract_y
_atom_site_fract_z
_atom_type_partial_charge
O1    O     O_R   0.500000 0.376780 0.574460 -0.592784
O2    O     O_R   0.500000 0.623220 0.425540 -0.596295
O3    O     O_R   0.500010 0.376780 0.425520 -0.599799
O4    O     O_R   0.499990 0.623220 0.574480 -0.596928
C1    C     C_R   0.500845 0.337591 0.499601 0.899550
C2    C     C_R   0.499716 0.662374 0.500382 0.895005
O5    O     O_R   0.416150 0.499970 0.574490 -0.601939
O6    O     O_R   0.583850 0.500030 0.425510 -0.611213
O7    O     O_R   0.416160 0.499980 0.425550 -0.593069
O8    O     O_R   0.583840 0.500020 0.574450 -0.588199
C3    C     C_R   0.387698 0.501260 0.500049 0.859601
C4    C     C_R   0.612270 0.500764 0.500001 0.860585
Zn1   Zn    Zn3+2 0.499990 0.500000 0.599450 1.032626
Zn2   Zn    Zn3+2 0.500010 0.500000 0.400550 1.023940
C5    C     C_R   0.872578 0.649061 0.571775 0.611829
C6    C     C_R   0.125939 0.536064 0.661262 0.598049
N1    N     N_R   0.849444 0.570200 0.589248 -0.321575
N2    N     N_R   0.149696 0.577277 0.588990 -0.318307
C7    C     C_R   0.876330 0.525597 0.657281 0.486881
C8    C     C_R   0.122657 0.653317 0.567447 0.488048
C9    C     C_R   0.937642 0.535471 0.673324 -0.030870
C10   C     C_R   0.060798 0.663363 0.579899 -0.021709
C11   C     C_R   0.967779 0.599553 0.627410 -0.029824
C12   C     C_R   0.030542 0.600612 0.627640 -0.028070
C13   C     C_R   0.934730 0.662353 0.581445 -0.053085
C14   C     C_R   0.063543 0.539354 0.675888 -0.045755
C15   C     C_R   0.969799 0.479859 0.728727 -0.200773
C16   C     C_R   0.028456 0.731121 0.542290 -0.209322
C17   C     C_R   0.032541 0.481571 0.731228 -0.009616
C18   C     C_R   0.965588 0.731792 0.543235 -0.008362
O9    O     O_2   0.835878 0.713480 0.548036 -0.572913
O10   O     O_2   0.162268 0.494407 0.718365 -0.583836
O11   O     O_2   0.844442 0.472732 0.708827 -0.533200
O12   O     O_2   0.155024 0.719228 0.538104 -0.587363
H1    H     H_    0.946514 0.431750 0.766334 0.193711
H2    H     H_    0.051796 0.781228 0.507761 0.189117
C19   C     C_R   0.229144 0.583488 0.466883 -0.049666
C20   C     C_R   0.774208 0.454796 0.556574 0.038628
C21   C     C_R   0.291237 0.569974 0.451510 -0.119691
C22   C     C_R   0.711734 0.443224 0.548027 -0.087385
C23   C     C_R   0.322016 0.507453 0.501624 -0.165180
C24   C     C_R   0.677898 0.504607 0.500812 -0.191348
C25   C     C_R   0.289175 0.448872 0.552080 -0.102977
C26   C     C_R   0.707627 0.569934 0.454718 -0.113103
C27   C     C_R   0.227202 0.461564 0.562551 0.020822
C28   C     C_R   0.769430 0.581223 0.468884 0.002669
C29   C     C_R   0.202023 0.542029 0.540497 0.118054
C30   C     C_R   0.797495 0.536604 0.539938 0.106452
C31   C     C_3   0.539156 0.970878 0.563701 -0.003590
C32   C     C_3   0.466889 0.028741 0.435742 -0.000868
C33   C     C_3   0.559244 0.024344 0.483724 -0.028674
C34   C     C_3   0.446876 0.975349 0.515717 -0.031660
H3    H     H_    0.534581 0.941750 0.353106 0.153508
H4    H     H_    0.471624 0.057807 0.646358 0.156550
C35   C     C_1   0.503435 0.248923 0.498845 -0.141346
C36   C     C_1   0.499705 0.750985 0.501042 -0.141937
C37   C     C_3   0.484793 0.030618 0.580440 -0.237634
C38   C     C_3   0.521307 0.969041 0.418965 -0.241723
C39   C     C_3   0.504930 0.083025 0.499394 0.093633
C40   C     C_3   0.501205 0.916730 0.500055 0.094274
C41   C     C_1   0.504989 0.173767 0.498868 -0.021067
C42   C     C_1   0.500129 0.826083 0.500818 -0.022083
C43   C     C_3   0.501752 0.420398 0.969467 -0.006562
C44   C     C_3   0.497665 0.580107 0.030598 -0.006449
C45   C     C_3   0.549904 0.461439 0.030869 -0.331618
C46   C     C_3   0.449546 0.539048 0.969159 -0.315652
H5    H     H_    0.591297 0.429467 0.055171 0.159980
H6    H     H_    0.408152 0.571027 0.944870 0.162871
N3    N     N_1   0.500020 0.500000 0.268010 -0.072101
N4    N     N_1   0.499980 0.500000 0.731990 -0.072508
C47   C     C_3   0.451838 0.458859 0.028947 -0.016998
C48   C     C_3   0.547611 0.541674 0.971145 -0.027591
C49   C     C_3   0.499350 0.500389 0.090068 0.063916
C50   C     C_3   0.500114 0.500116 0.909981 0.063421
C51   C     C_1   0.499760 0.500141 0.189989 0.225786
C52   C     C_1   0.499995 0.500110 0.810026 0.232078
C53   C     C_2   0.503981 0.329401 0.938868 0.371279
H7    H     H_    0.505369 0.279117 0.987951 0.085889
O13   O     O_2   0.504133 0.311356 0.859341 -0.562857
C54   C     C_2   0.494906 0.671098 0.061108 0.362387
H8    H     H_    0.495558 0.721419 0.012076 0.088349
O14   O     O_2   0.491768 0.689094 0.140504 -0.569594
C55   C     C_2   0.602265 0.588754 0.942787 0.405340
H9    H     H_    0.632008 0.615067 0.993111 0.053642
O15   O     O_2   0.613595 0.597790 0.863702 -0.527585
C56   C     C_2   0.397164 0.411910 0.057487 0.404434
H10   H     H_    0.367362 0.385547 0.007270 0.055191
O16   O     O_2   0.385872 0.403059 0.136611 -0.532470
C57   C     C_R   0.063538 0.416720 0.785396 0.162371
C58   C     C_R   0.083961 0.437158 0.871663 -0.082738
C59   C     C_R   0.114201 0.375978 0.922327 -0.118091
C60   C     C_R   0.123960 0.294247 0.887226 -0.106877
C61   C     C_R   0.103290 0.273460 0.801536 -0.146247
C62   C     C_R   0.072945 0.334407 0.750740 -0.102798
H11   H     H_    0.076840 0.500434 0.899185 0.134369
H12   H     H_    0.130176 0.391957 0.988700 0.144197
H13   H     H_    0.147478 0.247022 0.926447 0.137486
H14   H     H_    0.110826 0.210162 0.774461 0.139015
H15   H     H_    0.057182 0.317799 0.684366 0.163046
C63   C     C_R   0.934401 0.801760 0.496701 0.159013
C64   C     C_R   0.911830 0.871759 0.545417 -0.086151
C65   C     C_R   0.881105 0.937082 0.501416 -0.117210
C66   C     C_R   0.873057 0.932950 0.408753 -0.107757
C67   C     C_R   0.895823 0.863604 0.359903 -0.138848
C68   C     C_R   0.926583 0.798190 0.403634 -0.094230
H16   H     H_    0.917599 0.875242 0.617276 0.132037
H17   H     H_    0.863424 0.990803 0.539121 0.139261
H18   H     H_    0.849267 0.983499 0.374792 0.124475
H19   H     H_    0.889557 0.860488 0.288177 0.140312
H20   H     H_    0.943843 0.744548 0.365298 0.161485
C69   C     C_2   0.190641 0.626312 0.399224 0.571363
H21   H     H_    0.144781 0.605553 0.390180 0.039829
O17   O     O_2   0.208154 0.686687 0.356145 -0.537790
C70   C     C_2   0.816566 0.380592 0.557639 0.521615
H22   H     H_    0.864467 0.390888 0.554314 0.054524
O18   O     O_2   0.799119 0.307303 0.556628 -0.587867
C71   C     C_2   0.324748 0.621184 0.385984 0.554538
H23   H     H_    0.362223 0.659436 0.408308 0.017572
O19   O     O_2   0.312990 0.617043 0.306340 -0.494839
C72   C     C_2   0.681537 0.368712 0.587967 0.554848
H24   H     H_    0.640984 0.343619 0.558046 0.000581
O20   O     O_2   0.700411 0.336753 0.656674 -0.503504
C73   C     C_R   0.318844 0.372323 0.589628 0.087004
C74   C     C_R   0.334813 0.303604 0.533644 -0.166800
C75   C     C_R   0.361059 0.230497 0.569836 -0.148173
C76   C     C_R   0.372581 0.226384 0.661605 -0.086117
C77   C     C_R   0.357144 0.294906 0.717539 -0.101070
C78   C     C_R   0.329927 0.367514 0.681850 -0.120495
H25   H     H_    0.326280 0.306376 0.462424 0.154594
H26   H     H_    0.372647 0.177133 0.526740 0.135004
H27   H     H_    0.393335 0.170095 0.689432 0.124203
H28   H     H_    0.366005 0.291589 0.788604 0.144852
H29   H     H_    0.317688 0.420030 0.725785 0.147509
C79   C     C_R   0.674194 0.629218 0.395965 0.097924
C80   C     C_R   0.657857 0.604337 0.308928 -0.130541
C81   C     C_R   0.626646 0.660888 0.253846 -0.096028
C82   C     C_R   0.612277 0.742745 0.284966 -0.057999
C83   C     C_R   0.629233 0.768206 0.371109 -0.172100
C84   C     C_R   0.660007 0.711634 0.426618 -0.147887
H30   H     H_    0.669035 0.541199 0.284143 0.130858
H31   H     H_    0.613763 0.641301 0.186994 0.131656
H32   H     H_    0.588208 0.786536 0.242264 0.153102
H33   H     H_    0.618455 0.831681 0.395023 0.132864
H34   H     H_    0.672769 0.731901 0.493349 0.161917
C85   C     C_2   0.188627 0.386735 0.580129 0.458886
H35   H     H_    0.206061 0.331995 0.615653 0.076439
O21   O     O_2   0.137348 0.384302 0.551767 -0.599869
C86   C     C_2   0.805028 0.625305 0.399416 0.466389
H36   H     H_    0.784670 0.673936 0.358017 0.076532
O22   O     O_2   0.857130 0.605055 0.385326 -0.599194
C87   C     C_R   0.622375 0.054143 0.470232 0.106287
C88   C     C_R   0.655072 0.030092 0.393764 -0.120127
C89   C     C_R   0.714321 0.056380 0.383663 -0.142785
C90   C     C_R   0.741268 0.106616 0.449720 -0.106875
C91   C     C_R   0.708922 0.130862 0.525865 -0.086965
C92   C     C_R   0.649644 0.105036 0.536029 -0.196217
H37   H     H_    0.635161 0.990769 0.342181 0.124029
H38   H     H_    0.739419 0.037511 0.324749 0.133226
H39   H     H_    0.787215 0.126566 0.442014 0.148706
H40   H     H_    0.729827 0.169221 0.577342 0.210677
H41   H     H_    0.625153 0.123969 0.595561 0.152670
C93   C     C_R   0.384145 0.944272 0.530435 0.111203
C94   C     C_R   0.351576 0.969074 0.606764 -0.124261
C95   C     C_R   0.293411 0.939436 0.619611 -0.146302
C96   C     C_R   0.267465 0.884811 0.556612 -0.075419
C97   C     C_R   0.299609 0.859793 0.480532 -0.108643
C98   C     C_R   0.357682 0.889573 0.467265 -0.197204
H42   H     H_    0.370841 0.011233 0.656349 0.123099
H43   H     H_    0.268443 0.958802 0.678487 0.140957
H44   H     H_    0.222445 0.862048 0.566737 0.187308
H45   H     H_    0.279521 0.817447 0.431797 0.193431
H46   H     H_    0.382102 0.869873 0.407929 0.147994
C99   C     C_2   0.579022 0.935571 0.635146 0.404922
H47   H     H_    0.627269 0.940176 0.629161 0.068405
O23   O     O_2   0.557392 0.899820 0.699334 -0.532411
C100  C     C_2   0.426772 0.063555 0.364369 0.392901
H48   H     H_    0.378639 0.056482 0.369358 0.064576
O24   O     O_2   0.448032 0.101264 0.301175 -0.535007

loop_
_geom_bond_atom_site_label_1
_geom_bond_atom_site_label_2
_geom_bond_distance
_ccdc_geom_bond_type
C46   H6    1.110291 S    
C68   H20   1.083108 S    
C43   C45   1.553791 S    
C61   C62   1.398182 A    
C15   C17   1.401962 A    
C23   C25   1.408638 A    
C44   C49   1.544256 S    
C69   H21   1.085661 S    
N1    C30   1.473054 S    
C82   H32   1.082294 S    
N2    C29   1.476560 S    
C31   C99   1.497286 S    
C70   H22   1.084626 S    
C58   C59   1.398511 A    
C83   C84   1.397781 A    
C45   C49   1.553026 S    
C73   C74   1.403782 A    
C21   C23   1.414367 A    
C99   H47   1.084354 S    
O5    C3    1.281276 A    
C63   C68   1.403207 A    
C96   C97   1.397365 A    
C31   C40   1.531067 S    
C50   C52   1.494954 S    
C55   H9    1.084564 S    
C27   C85   1.490514 S    
C32   C39   1.533435 S    
C62   H15   1.083061 S    
C10   C12   1.402905 A    
C32   C100  1.496965 S    
C95   C96   1.397369 A    
C7    C9    1.399432 A    
C12   C14   1.410624 A    
C83   H33   1.081711 S    
C71   O19   1.220626 D    
C67   H19   1.082312 S    
C20   C70   1.494896 S    
C56   O16   1.219943 D    
C37   C39   1.542495 S    
Zn1   N4    1.982307 S    
C38   C40   1.541968 S    
C46   C50   1.552960 S    
C18   C63   1.475963 S    
C89   H38   1.082355 S    
C31   C37   1.546721 S    
C40   C42   1.425687 S    
C57   C62   1.403212 A    
C77   H28   1.082515 S    
C60   C61   1.398237 A    
C4    C24   1.467313 S    
C34   C40   1.533206 S    
C59   H12   1.082340 S    
C75   H26   1.082429 S    
C28   C86   1.489744 S    
C94   C95   1.398303 A    
C72   O20   1.221082 D    
C31   C33   1.538747 S    
C32   C34   1.537590 S    
C87   C88   1.404449 A    
N3    C51   1.166929 T    
C66   H18   1.082068 S    
C19   C29   1.424060 A    
C66   C67   1.398244 A    
C20   C30   1.416432 A    
O1    C1    1.272558 A    
C8    O12   1.346595 S    
C100  O24   1.219939 D    
C9    C15   1.402581 A    
C33   C87   1.504341 S    
C97   H45   1.081998 S    
C10   C16   1.403076 A    
C96   H44   1.081728 S    
C6    C14   1.411024 A    
C44   C54   1.497867 S    
C95   H43   1.082466 S    
O2    C2    1.272000 A    
C24   C26   1.414085 A    
C17   C57   1.475165 S    
C67   C68   1.398452 A    
C85   O21   1.221292 D    
C26   C28   1.408555 A    
C60   H13   1.082305 S    
C85   H35   1.084679 S    
C27   C29   1.421001 A    
C26   C79   1.482960 S    
C80   H30   1.083084 S    
C28   C30   1.420774 A    
C39   C41   1.426724 S    
C32   C38   1.547386 S    
C64   C65   1.398945 A    
C80   C81   1.398496 A    
C86   H36   1.084672 S    
C48   C50   1.545011 S    
C7    O11   1.348393 S    
C2    C36   1.393024 S    
C79   C84   1.403512 A    
C47   C49   1.544662 S    
C56   H10   1.084558 S    
C13   C18   1.421810 A    
C45   H5    1.110281 S    
C53   H7    1.084414 S    
C44   C46   1.553721 S    
O7    Zn2   1.909863 S    
C81   H31   1.082555 S    
C47   C56   1.497629 S    
O7    C3    1.283466 A    
C84   H34   1.083209 S    
C46   C47   1.553337 S    
C8    C10   1.401260 A    
O6    C4    1.281342 A    
C53   O13   1.220020 D    
C65   H17   1.082483 S    
C69   O17   1.220361 D    
C33   C38   1.551275 S    
C87   C92   1.403959 A    
C25   C27   1.405005 A    
C90   C91   1.397255 A    
C98   H46   1.083266 S    
O3    Zn2   1.976562 S    
O8    C4    1.282780 A    
O4    C2    1.273093 A    
C100  H48   1.084360 S    
C55   O15   1.219929 D    
C43   C47   1.542193 S    
C92   H41   1.083245 S    
C9    C11   1.402823 A    
N4    C52   1.167108 T    
C97   C98   1.398052 A    
Zn2   N3    1.982305 S    
C36   C42   1.180829 T    
C33   C39   1.533510 S    
C49   C51   1.494507 S    
C77   C78   1.398268 A    
C25   C73   1.483114 S    
C59   C60   1.398362 A    
C72   H24   1.085357 S    
C93   C94   1.404358 A    
C43   C53   1.498015 S    
C64   H16   1.083135 S    
C5    N1    1.375368 A    
C88   H37   1.081556 S    
O6    Zn2   1.908422 S    
C22   C72   1.488095 S    
C91   H40   1.081369 S    
C1    C35   1.394568 S    
C86   O22   1.221275 D    
C54   H8    1.084356 S    
O3    C1    1.273193 A    
O8    Zn1   1.909863 S    
C58   H11   1.083132 S    
C70   O18   1.219823 D    
H3    C38   1.109995 S    
C5    O9    1.346700 S    
C79   C80   1.404191 A    
C43   C50   1.544379 S    
C6    O10   1.347306 S    
C45   C48   1.553391 S    
C82   C83   1.398050 A    
C15   H1    1.084376 S    
C16   C18   1.403839 A    
C94   H42   1.081191 S    
C57   C58   1.403080 A    
C90   H39   1.082426 S    
C19   C21   1.419390 A    
C21   C71   1.482696 S    
C71   H23   1.085462 S    
C20   C22   1.414012 A    
C99   O23   1.219987 D    
C73   C78   1.403604 A    
C75   C76   1.398058 A    
C76   H27   1.081665 S    
C76   C77   1.398088 A    
C35   C41   1.181730 T    
C22   C24   1.413773 A    
C63   C64   1.403617 A    
N1    C7    1.375449 A    
C54   O14   1.219887 D    
C74   H25   1.083054 S    
C3    C23   1.469137 S    
N2    C8    1.375010 A    
C44   C48   1.542299 S    
C65   C66   1.398173 A    
O2    Zn2   1.969221 S    
C19   C69   1.488732 S    
C48   C55   1.497501 S    
C5    C13   1.412454 A    
C34   C37   1.550410 S    
C11   C12   1.401725 A    
C93   C98   1.404687 A    
O5    Zn1   1.908420 S    
C11   C13   1.410673 A    
O1    Zn1   1.969222 S    
C88   C89   1.398720 A    
C16   H2    1.084364 S    
C14   C17   1.420796 A    
C6    N2    1.375561 A    
C91   C92   1.397258 A    
C81   C82   1.398610 A    
C89   C90   1.397711 A    
C78   H29   1.083210 S    
C61   H14   1.082313 S    
O4    Zn1   1.976561 S    
C34   C93   1.505194 S    
C74   C75   1.398572 A    
H4    C37   1.109550 S    
