data_mof_unit_16937.cif
_audit_creation_date              2012-12-10T18:47:01-0500
_audit_creation_method            fapswitch 2.2
_symmetry_space_group_name_H-M    P1
_symmetry_Int_Tables_number       1
_space_group_crystal_system       triclinic
_cell_length_a                    10.697974
_cell_length_b                    9.847567
_cell_length_c                    14.918151
_cell_angle_alpha                 89.843741
_cell_angle_beta                  89.970089
_cell_angle_gamma                 89.981673
_cell_volume                      1571.60638584

loop_
_atom_site_label
_atom_site_type_symbol
_atom_type_description
_atom_site_fract_x
_atom_site_fract_y
_atom_site_fract_z
_atom_type_partial_charge
C1    C     C_R   0.259929 0.499990 0.499440 0.899133
C2    C     C_R   0.740071 0.500010 0.500560 0.899132
C3    C     C_R   0.277533 0.463866 0.052437 -0.205215
C4    C     C_R   0.722467 0.536134 0.947563 -0.205215
C5    C     C_R   0.064083 0.380750 0.522305 -0.132431
C6    C     C_R   0.935917 0.619250 0.477695 -0.132431
C7    C     C_R   0.936080 0.380874 0.522911 -0.161224
C8    C     C_R   0.063920 0.619126 0.477089 -0.161224
C9    C     C_R   0.872516 0.500102 0.500567 -0.004402
C10   C     C_R   0.127484 0.499898 0.499433 -0.004402
C11   C     C_R   0.582354 0.071687 0.552058 -0.049763
C12   C     C_R   0.417646 0.928313 0.447941 -0.049763
C13   C     C_R   0.417648 0.072167 0.447941 -0.051352
C14   C     C_R   0.582352 0.927833 0.552059 -0.051351
C15   C     C_R   0.501402 0.500222 0.327157 0.940251
C16   C     C_R   0.498598 0.499778 0.672842 0.940251
C17   C     C_R   0.607179 0.508905 0.812269 -0.268852
C18   C     C_R   0.392821 0.491095 0.187730 -0.268852
C19   C     C_R   0.494293 0.498853 0.768054 -0.119559
C20   C     C_R   0.505706 0.501147 0.231946 -0.119559
C21   C     C_R   0.379714 0.490235 0.813213 0.239805
C22   C     C_R   0.620286 0.509765 0.186787 0.239805
C23   C     C_R   0.380196 0.480938 0.907800 -0.021747
C24   C     C_R   0.619803 0.519062 0.092200 -0.021747
C25   C     C_R   0.497183 0.498507 0.953062 -0.003992
C26   C     C_R   0.502817 0.501493 0.046938 -0.003992
C27   C     C_R   0.609254 0.513216 0.904414 0.087668
C28   C     C_R   0.390746 0.486784 0.095586 0.087668
C29   C     C_R   0.271086 0.456055 0.959832 0.325012
C30   C     C_R   0.728914 0.543945 0.040168 0.325012
H1    H     H_    0.693409 0.517793 0.774161 0.152288
H2    H     H_    0.306591 0.482206 0.225839 0.152288
H3    H     H_    0.193476 0.446554 0.091570 0.205263
H4    H     H_    0.806524 0.553445 0.908430 0.205263
H5    H     H_    0.113054 0.288350 0.540479 0.167750
H6    H     H_    0.886946 0.711650 0.459521 0.167750
H7    H     H_    0.887238 0.288533 0.541374 0.155619
H8    H     H_    0.112762 0.711467 0.458626 0.155619
H9    H     H_    0.648205 0.125964 0.593698 0.130693
H10   H     H_    0.351795 0.874036 0.406302 0.130693
H11   H     H_    0.351805 0.126826 0.406294 0.134246
H12   H     H_    0.648195 0.873174 0.593706 0.134246
N1    N     N_R   0.500000 0.857200 0.500000 -0.086014
N2    N     N_R   0.500000 0.142800 0.500000 -0.086014
O1    O     O_R   0.316770 0.614620 0.499990 -0.622559
O2    O     O_R   0.683230 0.385380 0.500010 -0.622559
O3    O     O_R   0.683230 0.614620 0.500010 -0.631839
O4    O     O_R   0.316770 0.385380 0.499990 -0.631840
O5    O     O_R   0.499980 0.614680 0.367850 -0.610652
O6    O     O_R   0.500020 0.385320 0.632150 -0.610652
O7    O     O_R   0.500020 0.614680 0.632150 -0.603707
O8    O     O_R   0.499980 0.385320 0.367850 -0.603708
Zn1   Zn    Zn3+2 0.500000 0.653120 0.500000 0.985742
Zn2   Zn    Zn3+2 0.500000 0.346880 0.500000 0.985742
Br1   Br    Br    0.230485 0.515790 0.741553 -0.449374
Br2   Br    Br    0.769515 0.484210 0.258447 -0.449374
Br3   Br    Br    0.113122 0.388696 0.916917 -0.400789
Br4   Br    Br    0.886878 0.611304 0.083083 -0.400789

loop_
_geom_bond_atom_site_label_1
_geom_bond_atom_site_label_2
_ccdc_geom_bond_type
C12   H10   S    
O4    Zn2   S    
C1    O4    A    
C6    C8    A    
C2    O3    A    
C25   C27   A    
C5    H5    S    
C26   C28   A    
C16   O7    A    
O3    Zn1   S    
C14   H12   S    
C7    C9    A    
O2    Zn2   S    
C6    C9    A    
C13   H11   S    
C7    H7    S    
O1    Zn1   S    
C11   N2    A    
C15   O8    A    
C2    O2    A    
C11   H9    S    
C1    O1    A    
O6    Zn2   S    
C8    H8    S    
C16   C19   S    
O5    Zn1   S    
C23   C29   A    
C8    C10   A    
C3    C28   A    
C19   C21   A    
C17   H1    S    
C20   C22   A    
O8    Zn2   S    
C12   N1    A    
C22   C24   A    
C15   O5    A    
C21   C23   A    
C15   C20   S    
C16   O6    A    
C11   C14   A    
C4    H4    S    
C24   C30   A    
C18   H2    S    
C3    H3    S    
C17   C27   A    
N2    Zn2   S    
C5    C10   A    
C4    C27   A    
C18   C28   A    
C12   C13   A    
C18   C20   A    
C5    C7    A    
C23   C25   A    
C29   Br3   S    
C3    C29   A    
C21   Br1   S    
C22   Br2   S    
C17   C19   A    
C25   C26   A    
C30   Br4   S    
C2    C9    S    
N1    Zn1   S    
C13   N2    A    
C4    C30   A    
C1    C10   S    
C24   C26   A    
C6    H6    S    
C14   N1    A    
O7    Zn1   S    
