data_mof_unit_40511.cif
_audit_creation_date              2012-10-26T17:10:34-0400
_audit_creation_method            fapswitch 2.2
_symmetry_space_group_name_H-M    P1
_symmetry_Int_Tables_number       1
_space_group_crystal_system       triclinic
_cell_length_a                    16.894093
_cell_length_b                    16.884906
_cell_length_c                    16.874126
_cell_angle_alpha                 67.166211
_cell_angle_beta                  67.015978
_cell_angle_gamma                 66.927738
_cell_volume                      3916.74106898

loop_
_atom_site_label
_atom_site_type_symbol
_atom_type_description
_atom_site_fract_x
_atom_site_fract_y
_atom_site_fract_z
_atom_type_partial_charge
C1    C     C_R   0.592115 0.040426 0.593232 0.017186
C2    C     C_R   0.405219 0.977025 0.400953 0.008374
C3    C     C_R   0.028180 0.593865 0.597059 0.009372
C4    C     C_R   0.968420 0.402948 0.406975 0.017198
C5    C     C_R   0.595010 0.595538 0.028826 0.008208
C6    C     C_R   0.405972 0.406170 0.963757 0.015537
C7    C     C_R   0.028727 0.828530 0.565113 0.814985
C8    C     C_R   0.969969 0.171073 0.435454 0.839954
C9    C     C_R   0.828614 0.565027 0.029119 0.823855
C10   C     C_R   0.171165 0.435386 0.969819 0.839328
C11   C     C_R   0.564581 0.030142 0.828896 0.841225
C12   C     C_R   0.435540 0.970151 0.171248 0.816769
C13   C     C_R   0.435435 0.171126 0.969835 0.840974
C14   C     C_R   0.564427 0.828642 0.030111 0.819049
C15   C     C_R   0.970653 0.435198 0.171275 0.827878
C16   C     C_R   0.030504 0.564238 0.828631 0.819086
C17   C     C_R   0.171497 0.971495 0.434826 0.812712
C18   C     C_R   0.828730 0.030470 0.564495 0.841167
C19   C     C_R   0.544984 0.019128 0.545906 -0.168530
C20   C     C_R   0.450807 0.005194 0.444163 -0.165560
C21   C     C_R   0.002756 0.547117 0.552851 -0.166881
C22   C     C_R   0.992141 0.447468 0.454811 -0.168167
C23   C     C_R   0.549779 0.550196 0.002705 -0.165389
C24   C     C_R   0.452225 0.452673 0.987218 -0.167549
C25   C     C_R   0.589887 0.999264 0.462209 0.355929
C26   C     C_R   0.405609 0.028214 0.525926 0.362465
C27   C     C_R   0.991007 0.460170 0.594989 0.359543
C28   C     C_R   0.005711 0.533379 0.413423 0.366794
C29   C     C_R   0.462777 0.591736 0.990857 0.360513
C30   C     C_R   0.539630 0.411409 0.998304 0.360319
C31   C     C_R   0.541396 0.006439 0.407521 0.365539
C32   C     C_R   0.453680 0.019727 0.581470 0.365749
C33   C     C_R   0.411105 0.540378 0.997809 0.361245
C34   C     C_R   0.591161 0.462970 0.991167 0.362508
C35   C     C_R   0.998807 0.407500 0.543852 0.362775
C36   C     C_R   0.993316 0.586751 0.465245 0.370305
C37   C     C_R   0.549732 0.056130 0.678652 0.357342
C38   C     C_R   0.449468 0.954834 0.318652 0.361997
C39   C     C_R   0.043315 0.679464 0.552918 0.351615
C40   C     C_R   0.949140 0.319645 0.449699 0.355853
C41   C     C_R   0.679884 0.551699 0.045810 0.354295
C42   C     C_R   0.320893 0.449263 0.947476 0.361110
C43   C     C_R   0.319818 0.961294 0.445914 0.354286
C44   C     C_R   0.678187 0.054408 0.550397 0.360817
C45   C     C_R   0.449212 0.320913 0.947614 0.358437
C46   C     C_R   0.550724 0.679914 0.047195 0.364159
C47   C     C_R   0.953987 0.446999 0.321073 0.356153
C48   C     C_R   0.048163 0.550075 0.680308 0.361394
C49   C     C_R   0.601395 0.048790 0.730728 -0.188990
C50   C     C_R   0.399839 0.952836 0.269618 -0.189974
C51   C     C_R   0.045627 0.729796 0.601630 -0.171165
C52   C     C_R   0.952654 0.268890 0.398637 -0.188303
C53   C     C_R   0.729992 0.601395 0.046245 -0.170633
C54   C     C_R   0.269332 0.398531 0.951715 -0.189886
C55   C     C_R   0.270168 0.955726 0.398315 -0.172721
C56   C     C_R   0.730361 0.049212 0.601196 -0.190588
C57   C     C_R   0.398611 0.269280 0.951721 -0.189986
C58   C     C_R   0.600079 0.729965 0.048285 -0.191444
C59   C     C_R   0.954248 0.397954 0.269485 -0.195339
C60   C     C_R   0.049080 0.599810 0.730005 -0.191325
C61   C     C_R   0.688646 0.058002 0.688772 -0.033252
C62   C     C_R   0.315592 0.937280 0.314794 -0.011272
C63   C     C_R   0.063460 0.684738 0.685385 -0.010042
C64   C     C_R   0.943246 0.311326 0.311485 -0.031844
C65   C     C_R   0.684662 0.685421 0.063423 -0.010748
C66   C     C_R   0.311437 0.311295 0.942170 -0.035446
Cu1   Cu    Cu3+1 0.995180 0.995180 0.424630 1.086867
Cu2   Cu    Cu3+1 0.004820 0.004820 0.575370 1.087161
Cu3   Cu    Cu3+1 0.995180 0.424630 0.995180 1.067687
Cu4   Cu    Cu3+1 0.004820 0.575370 0.004820 1.109053
Cu5   Cu    Cu3+1 0.424630 0.995180 0.995180 1.085397
Cu6   Cu    Cu3+1 0.575370 0.004820 0.004820 1.088181
O1    O     O_R   0.124540 0.978640 0.385460 -0.598073
O2    O     O_R   0.875460 0.021360 0.614540 -0.601094
O3    O     O_R   0.978640 0.385460 0.124540 -0.601562
O4    O     O_R   0.021360 0.614540 0.875460 -0.603987
O5    O     O_R   0.385460 0.124540 0.978640 -0.599574
O6    O     O_R   0.614540 0.875460 0.021360 -0.605004
O7    O     O_R   0.614540 0.021360 0.875460 -0.599505
O8    O     O_R   0.385460 0.978640 0.124540 -0.606365
O9    O     O_R   0.875460 0.614540 0.021360 -0.595102
O10   O     O_R   0.124540 0.385460 0.978640 -0.603264
O11   O     O_R   0.021360 0.875460 0.614540 -0.598464
O12   O     O_R   0.978640 0.124540 0.385460 -0.601100
O13   O     O_R   0.013780 0.867370 0.487190 -0.511315
O14   O     O_R   0.986220 0.132630 0.512810 -0.517399
O15   O     O_R   0.867370 0.487190 0.013780 -0.517158
O16   O     O_R   0.132630 0.512810 0.986220 -0.514978
O17   O     O_R   0.487190 0.013780 0.867370 -0.520770
O18   O     O_R   0.512810 0.986220 0.132630 -0.515022
O19   O     O_R   0.512810 0.132630 0.986220 -0.518425
O20   O     O_R   0.487190 0.867370 0.013780 -0.513462
O21   O     O_R   0.986220 0.512810 0.132630 -0.510809
O22   O     O_R   0.013780 0.487190 0.867370 -0.514265
O23   O     O_R   0.132630 0.986220 0.512810 -0.511738
O24   O     O_R   0.867370 0.013780 0.487190 -0.515201
Cl1   Cl    Cl    0.407979 0.971221 0.696529 -0.368950
Cl2   Cl    Cl    0.585937 0.052029 0.291416 -0.366049
Cl3   Cl    Cl    0.929685 0.699464 0.432383 -0.362503
Cl4   Cl    Cl    0.048870 0.291292 0.583018 -0.360166
Cl5   Cl    Cl    0.706785 0.427569 0.936364 -0.369578
Cl6   Cl    Cl    0.295446 0.576779 0.051964 -0.368071
Cl7   Cl    Cl    0.291942 0.092766 0.549238 -0.372519
Cl8   Cl    Cl    0.704481 0.937959 0.435138 -0.375879
Cl9   Cl    Cl    0.575228 0.296027 0.053181 -0.376060
Cl10  Cl    Cl    0.427830 0.707320 0.936346 -0.380119
Cl11  Cl    Cl    0.071648 0.562389 0.301162 -0.368640
Cl12  Cl    Cl    0.937323 0.425998 0.710961 -0.370465
Cl13  Cl    Cl    0.441758 0.133809 0.697437 -0.490080
Cl14  Cl    Cl    0.559141 0.879822 0.303565 -0.498212
Cl15  Cl    Cl    0.105724 0.702156 0.438508 -0.514234
Cl16  Cl    Cl    0.874985 0.301883 0.559629 -0.487962
Cl17  Cl    Cl    0.700037 0.439475 0.114580 -0.486283
Cl18  Cl    Cl    0.300284 0.560474 0.876545 -0.500271
Cl19  Cl    Cl    0.295521 0.905557 0.562218 -0.505720
Cl20  Cl    Cl    0.702407 0.119566 0.436882 -0.484633
Cl21  Cl    Cl    0.560927 0.299718 0.877328 -0.482781
Cl22  Cl    Cl    0.438089 0.700153 0.115443 -0.492743
Cl23  Cl    Cl    0.893482 0.562042 0.296954 -0.513945
Cl24  Cl    Cl    0.117349 0.437762 0.699595 -0.480845
C67   C     C_3   0.723243 0.106067 0.723786 -0.247779
C68   C     C_3   0.784382 0.043238 0.784697 -0.586948
H1    H     H_    0.793954 0.971597 0.793760 0.229819
H2    H     H_    0.851003 0.056150 0.755983 0.245968
H3    H     H_    0.755501 0.056115 0.851498 0.246442
H4    H     H_    0.759173 0.152189 0.666519 0.227083
H5    H     H_    0.665700 0.152190 0.760002 0.228549
C69   C     C_3   0.287229 0.879218 0.286117 -0.317025
C70   C     C_3   0.279220 0.791537 0.359061 -0.649416
H6    H     H_    0.341413 0.757149 0.380893 0.253106
H7    H     H_    0.221351 0.803567 0.417965 0.237077
H8    H     H_    0.270003 0.746513 0.331871 0.303195
H9    H     H_    0.224522 0.916040 0.265841 0.239584
H10   H     H_    0.338521 0.857015 0.227815 0.240793
C71   C     C_3   0.118873 0.715062 0.715497 -0.313146
C72   C     C_3   0.206096 0.726987 0.642980 -0.647772
H11   H     H_    0.243446 0.665707 0.619619 0.254874
H12   H     H_    0.193165 0.785153 0.584841 0.235515
H13   H     H_    0.248960 0.738134 0.671210 0.301202
H14   H     H_    0.079351 0.776660 0.737564 0.238357
H15   H     H_    0.141976 0.663589 0.773018 0.242449
C73   C     C_3   0.893988 0.277694 0.276903 -0.247966
C74   C     C_3   0.955876 0.216290 0.215683 -0.593914
H16   H     H_    0.027808 0.206535 0.205495 0.225491
H17   H     H_    0.942712 0.149804 0.244788 0.247354
H18   H     H_    0.942227 0.245051 0.149356 0.244855
H19   H     H_    0.847611 0.242227 0.334411 0.225425
H20   H     H_    0.847971 0.335648 0.241184 0.220900
C75   C     C_3   0.712961 0.714419 0.121306 -0.326499
C76   C     C_3   0.719737 0.642114 0.209632 -0.627844
H21   H     H_    0.656605 0.622130 0.244106 0.255766
H22   H     H_    0.776441 0.582021 0.198420 0.241977
H23   H     H_    0.729927 0.669180 0.254146 0.301244
H24   H     H_    0.776155 0.733645 0.084861 0.241807
H25   H     H_    0.662124 0.773347 0.142671 0.241721
C77   C     C_3   0.277010 0.276654 0.893592 -0.241144
C78   C     C_3   0.215847 0.215825 0.955955 -0.597606
H26   H     H_    0.244845 0.149082 0.942948 0.247724
H27   H     H_    0.206030 0.206604 0.027723 0.225919
H28   H     H_    0.149315 0.244711 0.942680 0.244889
H29   H     H_    0.241135 0.334126 0.847410 0.225260
H30   H     H_    0.334636 0.240494 0.847508 0.229747

loop_
_geom_bond_atom_site_label_1
_geom_bond_atom_site_label_2
_ccdc_geom_bond_type
C25   C31   A    
C74   H18   S    
C15   O3    A    
C26   C32   A    
C78   H26   S    
C6    C45   A    
Cu2   O14   S    
C7    O11   A    
C57   C66   A    
Cu4   O16   S    
C69   C70   S    
C75   C76   S    
C71   C72   S    
C48   Cl24  S    
C21   C36   A    
C22   C35   A    
C45   C57   A    
C59   C64   A    
C64   C73   S    
C60   C63   A    
C23   C29   A    
C12   O18   A    
C77   C78   S    
C67   H5    S    
Cu6   O7    S    
C13   C57   S    
C28   Cl11  S    
Cu2   O2    S    
C74   H16   S    
C55   C62   A    
C29   C33   A    
C3    C48   A    
C4    C22   S    
C32   Cl1   S    
C46   Cl22  S    
C61   C67   S    
C16   C60   S    
C31   Cl2   S    
Cu4   O9    S    
C44   C56   A    
Cu6   O6    S    
Cu3   O10   S    
C1    C44   A    
C43   Cl19  S    
C39   C51   A    
C42   Cl18  S    
Cu5   O20   S    
C4    C40   A    
C76   H23   S    
C5    C23   S    
Cu1   O1    S    
C38   Cl14  S    
C53   C65   A    
C8    C52   S    
C37   Cl13  S    
Cu3   O15   S    
C18   C56   S    
C70   H8    S    
C39   Cl15  S    
C21   C27   A    
C77   H30   S    
Cu1   O12   S    
C78   H27   S    
C16   O4    A    
C46   C58   A    
C17   O1    A    
C72   H13   S    
C10   C54   S    
C19   C32   A    
Cu5   O8    S    
C48   C60   A    
C71   H14   S    
C14   C58   S    
C13   O5    A    
Cu1   O13   S    
C34   Cl5   S    
C49   C61   A    
C30   C34   A    
C2    C20   S    
C33   Cl6   S    
Cu2   O23   S    
C73   H20   S    
Cu4   O21   S    
C51   C63   A    
C40   Cl16  S    
Cu3   O22   S    
C52   C64   A    
Cu6   O19   S    
C27   C35   A    
C40   C52   A    
C1    C19   S    
C47   C59   A    
C10   O10   A    
Cu1   Cu2   S    
C63   C71   S    
C75   H24   S    
C11   C49   S    
C69   H10   S    
C26   Cl7   S    
C37   C49   A    
C2    C38   A    
C58   C65   A    
Cu5   O17   S    
C71   H15   S    
C2    C43   A    
C23   C34   A    
C10   O16   A    
C11   O17   A    
C41   C53   A    
C67   C68   S    
C11   O7    A    
C17   O23   A    
C43   C55   A    
C14   O20   A    
C77   H29   S    
C78   H28   S    
C30   Cl9   S    
Cu4   O4    S    
Cu1   O24   S    
C50   C62   A    
C76   H22   S    
C29   Cl10  S    
C3    C21   S    
C9    C53   S    
C68   H2    S    
C35   Cl4   S    
Cu5   O5    S    
C72   H12   S    
C70   H6    S    
C45   Cl21  S    
C74   H17   S    
C5    C41   A    
C28   C36   A    
C8    O12   A    
Cu2   O11   S    
C15   C59   S    
C73   H19   S    
C18   O24   A    
C41   Cl17  S    
C72   H11   S    
C15   O21   A    
C12   C50   S    
C25   Cl8   S    
C6    C24   S    
C38   C50   A    
C1    C37   A    
C5    C46   A    
C16   O22   A    
C24   C33   A    
C76   H21   S    
C42   C54   A    
C68   H3    S    
C75   H25   S    
C7    C51   S    
C67   H4    S    
C69   H9    S    
C9    O15   A    
C62   C69   S    
C7    O13   A    
C20   C26   A    
C27   Cl12  S    
C17   C55   S    
C12   O8    A    
C47   Cl23  S    
Cu3   O3    S    
C36   Cl3   S    
C8    O14   A    
C14   O6    A    
C65   C75   S    
Cu3   Cu4   S    
C19   C25   A    
C24   C30   A    
C3    C39   A    
Cu5   Cu6   S    
C44   Cl20  S    
C18   O2    A    
C6    C42   A    
C73   C74   S    
C56   C61   A    
C22   C28   A    
C66   C77   S    
Cu6   O18   S    
C68   H1    S    
C54   C66   A    
C20   C31   A    
C13   O19   A    
C9    O9    A    
C70   H7    S    
C4    C47   A    
