data_mof_unit_50005.cif
_audit_creation_date              2012-12-10T20:34:49-0500
_audit_creation_method            fapswitch 2.2
_symmetry_space_group_name_H-M    P1
_symmetry_Int_Tables_number       1
_space_group_crystal_system       triclinic
_cell_length_a                    10.638443
_cell_length_b                    10.717721
_cell_length_c                    9.928449
_cell_angle_alpha                 90.995525
_cell_angle_beta                  91.646709
_cell_angle_gamma                 91.072008
_cell_volume                      1131.19311532

loop_
_atom_site_label
_atom_site_type_symbol
_atom_type_description
_atom_site_fract_x
_atom_site_fract_y
_atom_site_fract_z
_atom_type_partial_charge
C1    C     C_R   0.497293 0.260052 0.498993 0.889679
C2    C     C_3   0.878415 0.489332 0.500413 0.111742
C3    C     C_3   0.928080 0.620011 0.459202 -0.468442
C4    C     C_3   0.923341 0.390885 0.396311 -0.357591
C5    C     C_R   0.494244 0.065987 0.619657 0.113928
C6    C     C_R   0.481064 0.127924 0.498478 -0.102982
C7    C     C_R   0.443705 0.061401 0.380861 -0.228461
C8    C     C_R   0.440716 0.931938 0.382242 -0.221248
C9    C     C_R   0.473840 0.870757 0.501780 -0.096639
C10   C     C_R   0.487540 0.938590 0.622047 0.137027
C11   C     C_3   0.588660 0.932577 0.728502 -0.523208
C12   C     C_R   0.257837 0.496123 0.498637 0.834958
C13   C     C_3   0.601065 0.072463 0.720653 -0.419446
C14   C     C_R   0.404607 0.443042 0.066477 0.206374
C15   C     C_R   0.581657 0.572140 0.079015 -0.148037
C16   C     C_R   0.585465 0.571350 0.935917 0.144847
C17   C     C_R   0.403342 0.444657 0.924816 0.183154
C18   C     C_3   0.359145 0.312204 0.914165 -0.487484
C19   C     C_3   0.363884 0.309470 0.067421 -0.511201
C20   C     C_R   0.494562 0.739663 0.500614 0.868399
C21   C     C_R   0.741841 0.493818 0.500866 0.870025
C22   C     C_3   0.075701 0.460355 0.640639 -0.399402
C23   C     C_3   0.932973 0.457833 0.641898 0.097441
C24   C     C_3   0.072157 0.621770 0.457950 -0.407009
C25   C     C_3   0.068086 0.391384 0.396474 -0.403848
C26   C     C_3   0.121240 0.492380 0.497656 0.135117
H1    H     H_    0.111413 0.531408 0.716428 0.168288
H2    H     H_    0.887205 0.412745 0.293215 0.183218
H3    H     H_    0.103853 0.646302 0.355654 0.184190
H4    H     H_    0.890472 0.643609 0.357112 0.190610
H5    H     H_    0.423791 0.108237 0.287326 0.162115
H6    H     H_    0.420466 0.880682 0.288892 0.169448
H7    H     H_    0.548498 0.903401 0.825105 0.201777
H8    H     H_    0.673548 0.882834 0.695361 0.206372
H9    H     H_    0.578950 0.120448 0.816507 0.206695
H10   H     H_    0.690342 0.102886 0.675225 0.248548
H11   H     H_    0.644174 0.631229 0.140718 0.150953
H12   H     H_    0.113743 0.368733 0.671309 0.203623
H13   H     H_    0.262032 0.303402 0.870279 0.205346
H14   H     H_    0.428171 0.250929 0.866735 0.217251
H15   H     H_    0.269871 0.296489 0.111737 0.198679
H16   H     H_    0.438685 0.248544 0.108151 0.210775
H17   H     H_    0.904350 0.531218 0.711973 0.157245
H18   H     H_    0.110155 0.694883 0.529941 0.168145
H19   H     H_    0.895834 0.693256 0.530289 0.154678
H20   H     H_    0.100200 0.410354 0.292950 0.181461
H21   H     H_    0.102708 0.297789 0.424911 0.171923
H22   H     H_    0.886771 0.296166 0.420085 0.197069
N1    N     N_R   0.499150 0.499140 0.142800 -0.121543
N2    N     N_R   0.499150 0.499180 0.857150 -0.119321
O1    O     O_R   0.500020 0.316790 0.614690 -0.602322
O2    O     O_R   0.500000 0.316760 0.385350 -0.622913
O3    O     O_R   0.314800 0.500000 0.614670 -0.630116
O4    O     O_R   0.314790 0.499960 0.385330 -0.624624
O5    O     O_R   0.500000 0.683240 0.614650 -0.636113
O6    O     O_R   0.499980 0.683210 0.385310 -0.624173
O7    O     O_R   0.685210 0.500040 0.614670 -0.608931
O8    O     O_R   0.685200 0.500000 0.385330 -0.631671
Zn1   Zn    Zn3+2 0.500010 0.500020 0.653130 0.950262
Zn2   Zn    Zn3+2 0.499990 0.499980 0.346870 0.934439
C27   C     C_3   0.680558 0.661268 0.879698 -0.389464
C28   C     C_3   0.815670 0.641144 0.934563 -0.375215
C29   C     C_3   0.908008 0.735644 0.876466 -0.902217
H23   H     H_    0.898083 0.738829 0.765194 0.250143
H24   H     H_    0.890182 0.830396 0.917961 0.274819
H25   H     H_    0.005869 0.710071 0.904471 0.252156
H26   H     H_    0.822448 0.654524 0.045477 0.211290
H27   H     H_    0.844085 0.543892 0.914398 0.249273
H28   H     H_    0.678047 0.661262 0.769376 0.256306
H29   H     H_    0.654644 0.755485 0.914538 0.176791
Br1   Br    Br    0.871928 0.299313 0.712126 -0.622958

loop_
_geom_bond_atom_site_label_1
_geom_bond_atom_site_label_2
_ccdc_geom_bond_type
C27   H29   S    
C17   N2    A    
C3    H4    S    
C2    C4    S    
C18   H13   S    
C29   H24   S    
C21   O7    A    
C28   C29   S    
O5    Zn1   S    
C8    C9    A    
C11   C13   S    
C9    C10   A    
C25   H21   S    
C9    C20   S    
C5    C13   S    
C12   O3    A    
C11   H8    S    
C19   H16   S    
C28   H27   S    
C20   O6    A    
C10   C11   S    
C2    C21   S    
C17   C18   S    
O3    Zn1   S    
C29   H25   S    
C23   H17   S    
C21   O8    A    
O4    Zn2   S    
O6    Zn2   S    
C1    O1    A    
C14   C17   A    
C19   H15   S    
C3    C24   S    
C6    C7    A    
N1    Zn2   S    
C28   H26   S    
C20   O5    A    
C5    C6    A    
N2    Zn1   S    
C14   C19   S    
C5    C10   A    
C4    H2    S    
C12   C26   S    
C24   C26   S    
C4    C25   S    
C2    C3    S    
C22   H1    S    
C15   N1    A    
C22   C26   S    
C27   C28   S    
C24   H18   S    
C1    O2    A    
O7    Zn1   S    
C14   N1    A    
C7    H5    S    
C16   C27   S    
O8    Zn2   S    
C1    C6    S    
C22   H12   S    
C23   Br1   S    
C11   H7    S    
O1    Zn1   S    
C13   H10   S    
C18   C19   S    
C4    H22   S    
C27   H28   S    
C2    C23   S    
C7    C8    A    
C18   H14   S    
C22   C23   S    
C15   H11   S    
O2    Zn2   S    
C25   C26   S    
C24   H3    S    
C25   H20   S    
C3    H19   S    
C13   H9    S    
C12   O4    A    
C15   C16   A    
C16   N2    A    
C29   H23   S    
C8    H6    S    
