data_mof_unit_19026.cif
_audit_creation_date              2013-03-05T16:13:43-0500
_audit_creation_method            fapswitch 2.2
_symmetry_space_group_name_H-M    P1
_symmetry_Int_Tables_number       1
_space_group_crystal_system       triclinic
_cell_length_a                    10.69588
_cell_length_b                    9.989405
_cell_length_c                    8.904867
_cell_angle_alpha                 89.16789
_cell_angle_beta                  92.878028
_cell_angle_gamma                 86.336259
_cell_volume                      948.152567332

loop_
_atom_site_label
_atom_site_type_symbol
_atom_site_description
_atom_site_fract_x
_atom_site_fract_y
_atom_site_fract_z
_atom_type_partial_charge
O1    O     O_R   0.316770 0.614620 0.499990 -0.651912
O2    O     O_R   0.683230 0.385380 0.500010 -0.636344
O3    O     O_R   0.683230 0.614620 0.500010 -0.651343
O4    O     O_R   0.316770 0.385380 0.499990 -0.646840
C1    C     C_R   0.261405 0.503930 0.513394 0.878122
C2    C     C_R   0.741337 0.495806 0.501554 0.862251
O5    O     O_R   0.500010 0.614640 0.285340 -0.603540
O6    O     O_R   0.499990 0.385360 0.714660 -0.627655
O7    O     O_R   0.499990 0.614640 0.714660 -0.608423
O8    O     O_R   0.500010 0.385360 0.285340 -0.606627
C3    C     C_R   0.498107 0.500712 0.219005 0.924638
C4    C     C_R   0.497622 0.499584 0.780741 0.882820
Zn1   Zn    Zn3+2 0.500000 0.653120 0.500000 0.921899
Zn2   Zn    Zn3+2 0.500000 0.346880 0.500000 0.921339
C5    C     C_1   0.496727 0.500983 0.065278 -0.165210
C6    C     C_1   0.496501 0.499297 0.934313 -0.172973
C7    C     C_R   0.080909 0.407042 0.625416 0.064845
C8    C     C_R   0.936853 0.591640 0.432975 0.059303
C9    C     C_R   0.949806 0.397898 0.611093 0.041158
C10   C     C_R   0.054924 0.620248 0.488789 0.037569
C11   C     C_R   0.877808 0.488469 0.508220 -0.134500
C12   C     C_R   0.131490 0.512522 0.547857 -0.147108
C13   C     C_R   0.562438 0.064669 0.612073 0.365243
C14   C     C_R   0.434240 0.934348 0.389948 0.377370
C15   C     C_R   0.435544 0.076310 0.388550 0.380059
C16   C     C_R   0.563983 0.923187 0.611248 0.399563
N1    N     N_R   0.500000 0.857200 0.500000 -0.266825
N2    N     N_R   0.500000 0.142800 0.500000 -0.264258
C17   C     C_3   0.164351 0.325330 0.743447 -0.369783
C18   C     C_3   0.202215 0.181781 0.694048 -0.374831
C19   C     C_3   0.278223 0.103385 0.819840 -0.769510
H1    H     H_    0.365216 0.154001 0.850447 0.301592
H2    H     H_    0.222030 0.095651 0.920817 0.273203
H3    H     H_    0.304924 0.000676 0.781425 0.239449
H4    H     H_    0.119285 0.127608 0.659416 0.207190
H5    H     H_    0.259295 0.182061 0.594483 0.256955
H6    H     H_    0.250934 0.377170 0.772018 0.201543
H7    H     H_    0.117508 0.323215 0.851907 0.194867
C20   C     C_3   0.874461 0.683642 0.308805 -0.385340
C21   C     C_3   0.828589 0.604680 0.172967 -0.389589
C22   C     C_3   0.767140 0.698703 0.050117 -0.775924
H8    H     H_    0.684236 0.756124 0.092702 0.294665
H9    H     H_    0.835123 0.769690 0.012108 0.258320
H10   H     H_    0.735652 0.639781 0.952325 0.239277
H11   H     H_    0.909745 0.546397 0.127483 0.220769
H12   H     H_    0.759459 0.533468 0.206456 0.221396
H13   H     H_    0.797835 0.750348 0.351293 0.232336
H14   H     H_    0.943569 0.751988 0.266870 0.195814
C23   C     C_3   0.889255 0.300074 0.712562 -0.405810
C24   C     C_3   0.830336 0.372967 0.844703 -0.371932
C25   C     C_3   0.815881 0.278585 0.978569 -0.821139
H15   H     H_    0.768221 0.188110 0.943519 0.314360
H16   H     H_    0.909581 0.246654 0.031290 0.246608
H17   H     H_    0.759445 0.330985 0.063655 0.245958
H18   H     H_    0.890682 0.453546 0.883187 0.215109
H19   H     H_    0.738017 0.420664 0.807239 0.219369
H20   H     H_    0.824227 0.241685 0.645271 0.219016
H21   H     H_    0.956195 0.220482 0.759775 0.219303
C26   C     C_3   0.067882 0.758335 0.555852 -0.397851
C27   C     C_3   0.980394 0.776805 0.687803 -0.342337
C28   C     C_3   0.980572 0.917181 0.750983 -0.864673
H22   H     H_    0.075205 0.934945 0.799853 0.266583
H23   H     H_    0.951352 0.992142 0.660736 0.257287
H24   H     H_    0.912824 0.928124 0.841039 0.276078
H25   H     H_    0.882311 0.759718 0.650052 0.244368
H26   H     H_    0.010001 0.702532 0.779037 0.220359
H27   H     H_    0.165217 0.771782 0.599161 0.228734
H28   H     H_    0.044325 0.838049 0.469043 0.198823
O9    O     O_3   0.627040 0.120090 0.729387 -0.732737
H29   H     H_    0.639101 0.212617 0.699822 0.377417
O10   O     O_3   0.361446 0.877334 0.279669 -0.705176
H30   H     H_    0.342341 0.787827 0.316173 0.371229
O11   O     O_3   0.366544 0.143899 0.273448 -0.708484
H31   H     H_    0.343972 0.234995 0.306766 0.373677
O12   O     O_3   0.632195 0.855439 0.726834 -0.714946
H32   H     H_    0.655520 0.764654 0.693219 0.365788

loop_
_geom_bond_atom_site_label_1
_geom_bond_atom_site_label_2
_geom_bond_distance
_ccdc_geom_bond_type
C17   H7    1.110693 S    
C28   H24   1.109464 S    
C21   H12   1.106753 S    
C8    C20   1.526633 S    
C19   H2    1.110830 S    
O12   H32   0.980182 S    
C17   C18   1.541363 S    
C7    C12   1.403272 A    
C26   H28   1.109981 S    
C8    C11   1.419715 A    
C7    C17   1.534692 S    
O11   H31   0.980486 S    
C13   O9    1.366918 S    
O7    Zn1   1.944311 S    
C8    C10   1.382301 A    
C19   H1    1.111017 S    
O3    Zn1   1.972918 S    
C14   N1    1.374267 A    
C18   H5    1.101508 S    
C18   C19   1.526659 S    
O6    C4    1.290800 A    
C25   H17   1.108838 S    
C26   H27   1.108908 S    
O3    C2    1.303666 A    
O5    Zn1   1.955254 S    
C16   O12   1.375126 S    
C19   H3    1.110777 S    
C27   H26   1.112394 S    
O10   H30   0.984101 S    
O2    C2    1.300179 A    
C13   N2    1.376585 A    
Zn1   N1    2.038638 S    
C10   C26   1.522718 S    
O5    C3    1.290668 A    
O4    C1    1.299587 A    
C22   H9    1.108945 S    
C16   N1    1.375773 A    
C28   H22   1.107408 S    
C18   H4    1.101570 S    
O1    C1    1.294028 A    
C5    C6    1.166475 T    
C21   C22   1.526418 S    
C7    C9    1.410572 A    
C10   C12   1.390335 A    
C27   H25   1.109898 S    
C24   C25   1.529160 S    
C9    C11   1.437646 A    
C15   O11   1.375259 S    
O9    H29   0.975633 S    
O4    Zn2   1.972919 S    
C21   H11   1.110892 S    
O2    Zn2   2.021154 S    
C22   H10   1.108596 S    
O1    Zn1   2.021155 S    
O8    C3    1.285757 A    
C23   H21   1.099474 S    
C15   N2    1.382159 A    
C25   H15   1.106884 S    
C4    C6    1.368152 S    
C26   C27   1.544339 S    
C23   H20   1.096897 S    
C14   C15   1.418950 A    
C20   H13   1.107946 S    
C23   C24   1.533843 S    
C22   H8    1.110949 S    
C13   C16   1.412491 A    
C17   H6    1.109946 S    
C20   C21   1.530902 S    
C28   H23   1.109786 S    
C9    C23   1.518163 S    
C20   H14   1.112095 S    
O6    Zn2   1.955254 S    
Zn2   N2    2.038638 S    
O7    C4    1.285869 A    
C2    C11   1.455008 S    
C3    C5    1.368223 S    
C24   H19   1.102503 S    
C1    C12   1.435530 S    
C24   H18   1.110925 S    
C14   O10   1.375167 S    
O8    Zn2   1.944311 S    
C27   C28   1.518564 S    
C25   H16   1.110909 S    
