data_mof_unit_25126.cif
_audit_creation_date              2013-03-05T15:55:18-0500
_audit_creation_method            fapswitch 2.2
_symmetry_space_group_name_H-M    P1
_symmetry_Int_Tables_number       1
_space_group_crystal_system       triclinic
_cell_length_a                    27.728645
_cell_length_b                    10.681206
_cell_length_c                    9.929422
_cell_angle_alpha                 89.491739
_cell_angle_beta                  89.041153
_cell_angle_gamma                 93.737489
_cell_volume                      2934.0383987

loop_
_atom_site_label
_atom_site_type_symbol
_atom_site_description
_atom_site_fract_x
_atom_site_fract_y
_atom_site_fract_z
_atom_type_partial_charge
O1    O     O_R   0.500000 0.316780 0.614690 -0.571693
O2    O     O_R   0.500000 0.316750 0.385360 -0.653773
C1    C     C_R   0.503521 0.260342 0.501062 0.882669
O3    O     O_R   0.428760 0.500030 0.614650 -0.522419
O4    O     O_R   0.428750 0.500010 0.385320 -0.662323
C2    C     C_R   0.406101 0.499461 0.501049 0.913894
Zn1   Zn    Zn3+2 0.500000 0.500020 0.653130 1.013616
Zn2   Zn    Zn3+2 0.500000 0.499980 0.346870 0.936844
O5    O     O_R   0.500000 0.683250 0.614640 -0.579750
O6    O     O_R   0.500000 0.683220 0.385310 -0.633139
O7    O     O_R   0.571250 0.499990 0.614680 -0.637272
O8    O     O_R   0.571240 0.499970 0.385350 -0.619012
C3    C     C_R   0.494488 0.738134 0.500337 0.909838
C4    C     C_R   0.593903 0.500374 0.498958 0.889463
C5    C     C_R   0.174621 0.374838 0.484903 0.518008
O9    O     O_2   0.196922 0.268718 0.459363 -0.570319
N1    N     N_R   0.201338 0.483094 0.512547 -0.336746
C6    C     C_R   0.180336 0.592285 0.539976 0.567538
C7    C     C_R   0.277595 0.490229 0.387047 -0.192528
C8    C     C_R   0.327728 0.495043 0.383565 -0.225830
C9    C     C_R   0.328121 0.485639 0.628089 -0.340007
C10   C     C_R   0.277583 0.477244 0.631924 0.577487
C11   C     C_R   0.252678 0.482966 0.510626 0.233245
C12   C     C_R   0.101514 0.485603 0.509940 -0.051524
C13   C     C_R   0.124160 0.373958 0.483170 -0.022075
C14   C     C_R   0.096189 0.264638 0.453923 -0.139964
C15   C     C_R   0.130028 0.595675 0.539166 -0.036783
C16   C     C_R   0.353319 0.493968 0.504142 -0.118095
H1    H     H_    0.347525 0.486649 0.721812 0.197121
H2    H     H_    0.112847 0.178108 0.431166 0.188551
C17   C     C_R   0.646625 0.500502 0.496414 -0.103675
C18   C     C_R   0.971089 0.375470 0.484656 0.045700
C19   C     C_R   0.977635 0.604982 0.518569 0.046620
C20   C     C_R   0.949176 0.491228 0.499807 0.073382
C21   C     C_R   0.940885 0.264084 0.473936 -0.210019
C22   C     C_R   0.890989 0.267050 0.472569 -0.130992
C23   C     C_R   0.869273 0.380838 0.482543 -0.039366
C24   C     C_R   0.898172 0.493269 0.496346 -0.051302
C25   C     C_R   0.875933 0.607733 0.507029 -0.019491
C26   C     C_R   0.825526 0.607502 0.504415 0.503936
N2    N     N_R   0.798400 0.497102 0.491744 -0.339051
C27   C     C_R   0.818971 0.384918 0.480672 0.570513
C28   C     C_R   0.722246 0.509394 0.614703 -0.185503
C29   C     C_R   0.672221 0.510426 0.616992 -0.211303
C30   C     C_R   0.671759 0.490220 0.373439 -0.312316
C31   C     C_R   0.722163 0.491499 0.370627 0.586520
C32   C     C_R   0.747105 0.498912 0.492229 0.223141
O10   O     O_2   0.790730 0.277900 0.468661 -0.537542
C33   C     C_R   0.022187 0.374594 0.481602 0.046438
C34   C     C_R   0.050492 0.487317 0.507038 0.074144
C35   C     C_R   0.028414 0.601849 0.529273 0.045215
C36   C     C_R   0.046201 0.264727 0.452774 -0.214290
H3    H     H_    0.653667 0.518619 0.713057 0.172767
H4    H     H_    0.741827 0.516188 0.708103 0.160679
H5    H     H_    0.869452 0.179193 0.464007 0.192583
H6    H     H_    0.954490 0.172070 0.469273 0.138489
H7    H     H_    0.027559 0.177216 0.425780 0.140181
O11   O     O_2   0.208187 0.697214 0.566895 -0.551509
C37   C     C_R   0.107911 0.706345 0.566999 -0.132817
H8    H     H_    0.346362 0.500768 0.286740 0.182489
H9    H     H_    0.257965 0.493358 0.293824 0.163793
H10   H     H_    0.129072 0.791538 0.592240 0.191444
C38   C     C_R   0.954160 0.718602 0.524697 -0.214650
C39   C     C_R   0.904277 0.719617 0.519472 -0.139370
O12   O     O_2   0.803661 0.716426 0.514449 -0.567747
C40   C     C_R   0.058084 0.709551 0.562662 -0.212006
H11   H     H_    0.973285 0.809342 0.530760 0.138213
H12   H     H_    0.652519 0.480530 0.279667 0.178962
H13   H     H_    0.888010 0.809005 0.525269 0.188042
H14   H     H_    0.043970 0.797854 0.588805 0.141589
H15   H     H_    0.502758 0.113223 0.285786 0.176798
C41   C     C_R   0.518592 0.108818 0.753038 -0.129903
H16   H     H_    0.540992 0.195140 0.759276 0.168776
C42   C     C_R   0.506168 0.045978 0.873562 -0.252399
H17   H     H_    0.517081 0.086673 0.968683 0.168462
C43   C     C_R   0.477469 0.934375 0.871696 -0.233422
H18   H     H_    0.464783 0.890554 0.965631 0.163687
C44   C     C_R   0.465014 0.879143 0.748904 0.552947
C45   C     C_R   0.484280 0.934137 0.626208 -0.044468
C46   C     C_R   0.503395 0.058239 0.628098 0.041925
C47   C     C_R   0.505550 0.126073 0.504381 -0.098179
C48   C     C_R   0.500496 0.063730 0.381668 -0.215712
H19   H     H_    0.493548 0.888807 0.284413 0.171174
C49   C     C_R   0.493248 0.935911 0.380623 -0.216649
C50   C     C_R   0.487083 0.870054 0.502301 -0.113758
H20   H     H_    0.551599 0.651935 0.120580 0.141638
C51   C     C_R   0.440175 0.327500 0.153602 -0.159218
H21   H     H_    0.436014 0.331224 0.259209 0.226377
C52   C     C_R   0.413345 0.230668 0.096857 -0.308405
H22   H     H_    0.392211 0.163517 0.159892 0.183046
C53   C     C_R   0.411854 0.221868 0.960178 -0.276751
H23   H     H_    0.389020 0.144190 0.923668 0.157353
C54   C     C_R   0.436453 0.313228 0.874742 0.563618
C55   C     C_R   0.469447 0.409951 0.932202 0.044659
C56   C     C_R   0.470178 0.413023 0.077124 0.111961
N3    N     N_R   0.499540 0.498800 0.142780 -0.110250
C57   C     C_R   0.528333 0.583483 0.068907 -0.118988
H24   H     H_    0.551421 0.652217 0.870783 0.140736
C58   C     C_R   0.528275 0.583647 0.926146 -0.088133
N4    N     N_R   0.499520 0.498720 0.857170 -0.097071
O13   O     O_3   0.747141 0.476835 0.250768 -0.595494
C59   C     C_3   0.749220 0.591448 0.178731 -0.303388
H25   H     H_    0.766723 0.669080 0.238459 0.190243
H26   H     H_    0.712677 0.615692 0.146804 0.155841
H27   H     H_    0.771557 0.581532 0.086180 0.201864
O14   O     O_3   0.251900 0.473483 0.752882 -0.595348
C60   C     C_3   0.259933 0.361454 0.822991 -0.309459
H28   H     H_    0.296440 0.365980 0.867874 0.160058
H29   H     H_    0.254746 0.277534 0.757589 0.172777
H30   H     H_    0.233157 0.349716 0.907141 0.206778
O15   O     O_3   0.432944 0.774284 0.751620 -0.592826
C61   C     C_3   0.388034 0.808514 0.703467 -0.309974
H31   H     H_    0.389937 0.827620 0.593204 0.157205
H32   H     H_    0.374938 0.890756 0.758158 0.148915
H33   H     H_    0.360907 0.729066 0.721352 0.213673
O16   O     O_3   0.427100 0.313769 0.738689 -0.557377
C62   C     C_3   0.394004 0.219099 0.689734 -0.332510
H34   H     H_    0.357303 0.227047 0.734281 0.152177
H35   H     H_    0.407361 0.124342 0.705206 0.160539
H36   H     H_    0.390969 0.232383 0.579383 0.179542

loop_
_geom_bond_atom_site_label_1
_geom_bond_atom_site_label_2
_geom_bond_distance
_ccdc_geom_bond_type
C51   H21   1.054412 S    
C54   C55   1.461004 A    
N2    C27   1.364782 A    
C56   N3    1.363230 A    
Zn2   N3    2.026895 S    
C12   C15   1.408605 A    
C4    C17   1.461614 S    
C61   H32   1.114402 S    
C47   C48   1.398453 A    
C40   H14   1.076666 S    
C30   C31   1.396623 A    
Zn1   O7    2.005955 S    
C25   C39   1.394472 A    
O13   C59   1.409792 S    
C42   C43   1.389907 A    
C22   C23   1.394674 A    
C43   C44   1.397918 A    
C62   H35   1.110493 S    
C37   C40   1.385665 A    
O4    C2    1.300060 A    
O7    C4    1.300119 A    
C5    C13   1.399029 A    
O14   C60   1.411121 S    
C5    O9    1.350086 S    
H24   C58   1.081796 S    
O16   C62   1.415520 S    
C59   H27   1.109321 S    
N1    C6    1.364708 A    
C23   C27   1.398751 A    
H20   C57   1.081782 S    
O5    C3    1.288738 A    
C29   H3    1.083120 S    
C6    O11   1.350317 S    
C2    C16   1.460730 S    
C58   N4    1.364819 A    
C51   C56   1.403833 A    
C1    C47   1.439024 S    
C60   H28   1.111208 S    
C44   O15   1.383751 S    
C8    H8    1.083160 S    
C19   C38   1.415351 A    
H15   C48   1.083763 S    
O1    Zn1   1.997415 S    
C9    C10   1.398226 A    
C60   H29   1.114681 S    
C55   C56   1.440110 A    
O3    Zn1   2.018279 S    
C61   H31   1.111681 S    
C57   C58   1.417548 A    
C34   C35   1.420571 A    
C43   H18   1.082866 S    
C12   C34   1.416839 A    
C31   O13   1.382213 S    
C38   H11   1.076718 S    
C17   C29   1.403324 A    
C18   C21   1.415479 A    
C12   C13   1.408806 A    
C41   C42   1.393982 A    
Zn1   N4    2.025738 S    
C62   H36   1.108914 S    
C53   H23   1.079461 S    
C44   C45   1.428040 A    
C41   H16   1.080453 S    
C27   O10   1.350155 S    
C8    C16   1.402267 A    
C13   C14   1.394573 A    
C10   O14   1.384946 S    
C9    H1    1.082518 S    
C38   C39   1.385772 A    
O1    C1    1.289164 A    
C21   C22   1.386274 A    
C18   C20   1.420855 A    
C7    C11   1.397154 A    
C28   C29   1.387688 A    
C23   C24   1.408617 A    
C14   C36   1.386425 A    
C53   C54   1.419988 A    
C28   H4    1.083080 S    
H19   C49   1.083794 S    
C55   N4    1.418810 A    
Zn2   O8    2.018275 S    
C33   C36   1.415591 A    
N3    C57   1.366784 A    
C30   H12   1.083236 S    
C19   C20   1.420446 A    
N2    C32   1.423673 S    
N1    C11   1.423476 S    
C39   H13   1.083792 S    
C49   C50   1.395028 A    
C59   H26   1.112578 S    
O3    C2    1.300191 A    
C26   N2    1.364645 A    
C9    C16   1.404269 A    
O8    C4    1.300352 A    
C14   H2    1.083740 S    
C48   C49   1.367111 A    
C26   O12   1.350230 S    
C51   C52   1.365548 A    
C60   H30   1.109225 S    
C52   C53   1.362357 A    
C35   C40   1.415166 A    
C45   C50   1.416662 A    
C5    N1    1.364536 A    
C31   C32   1.401784 A    
C37   H10   1.083741 S    
O15   C61   1.410404 S    
C21   H6    1.076549 S    
C20   C24   1.416847 A    
O2    Zn2   1.990753 S    
C6    C15   1.397973 A    
C46   C47   1.419054 A    
O6    C3    1.299856 A    
O4    Zn2   2.005958 S    
C19   C35   1.416346 A    
C7    C8    1.387557 A    
O2    C1    1.300598 A    
C41   C46   1.417112 A    
C22   H5    1.083766 S    
C15   C37   1.394429 A    
C62   H34   1.111474 S    
C24   C25   1.408789 A    
C7    H9    1.083014 S    
C59   H25   1.113890 S    
C18   C33   1.417335 A    
C36   H7    1.076490 S    
C45   C46   1.395547 A    
C25   C26   1.398221 A    
Zn1   O5    1.990755 S    
C42   H17   1.082722 S    
Zn2   O6    1.997414 S    
C33   C34   1.420658 A    
C17   C30   1.404514 A    
C3    C50   1.437395 S    
C10   C11   1.401176 A    
C52   H22   1.083787 S    
C28   C32   1.396778 A    
C54   O16   1.379887 S    
C61   H33   1.107734 S    
