data_mof_unit_34086.cif
_audit_creation_date              2012-12-10T17:18:52-0500
_audit_creation_method            fapswitch 2.2
_symmetry_space_group_name_H-M    P1
_symmetry_Int_Tables_number       1
_space_group_crystal_system       triclinic
_cell_length_a                    9.62163
_cell_length_b                    10.779529
_cell_length_c                    13.428595
_cell_angle_alpha                 92.494123
_cell_angle_beta                  72.651712
_cell_angle_gamma                 90.332871
_cell_volume                      1328.11460462

loop_
_atom_site_label
_atom_site_type_symbol
_atom_type_description
_atom_site_fract_x
_atom_site_fract_y
_atom_site_fract_z
_atom_type_partial_charge
C1    C     C_R   0.498686 0.737337 0.503889 0.811415
C2    C     C_R   0.433966 0.482422 0.979127 0.102278
C3    C     C_R   0.469112 0.452676 0.870565 0.104348
C4    C     C_R   0.541155 0.462935 0.030740 0.029657
C5    C     C_R   0.675484 0.403034 0.976157 0.079580
C6    C     C_R   0.698489 0.359944 0.872808 -0.171146
C7    C     C_R   0.596485 0.382852 0.821460 -0.179212
C8    C     C_R   0.519349 0.503219 0.134929 -0.245511
C9    C     C_R   0.754777 0.423413 0.131815 -0.248349
C10   C     C_R   0.374558 0.492200 0.814493 -0.104835
C11   C     C_R   0.278974 0.878021 0.667398 -0.164598
C12   C     C_R   0.421823 0.494995 0.699726 0.778706
C13   C     C_R   0.171702 0.946124 0.742278 -0.121945
C14   C     C_R   0.170137 0.075005 0.741413 -0.101204
C15   C     C_R   0.276142 0.136725 0.666001 -0.174424
C16   C     C_R   0.384305 0.069547 0.587721 0.088805
C17   C     C_R   0.385394 0.938307 0.588280 0.102907
C18   C     C_R   0.496179 0.871519 0.511661 -0.086785
C19   C     C_R   0.607326 0.933291 0.440056 -0.174655
C20   C     C_R   0.606631 0.061223 0.439688 -0.194883
C21   C     C_R   0.494710 0.129446 0.510862 -0.088056
C22   C     C_R   0.912929 0.336859 0.360158 -0.135010
C23   C     C_R   0.498196 0.262948 0.503503 0.750483
C24   C     C_R   0.012711 0.257063 0.291446 -0.193510
C25   C     C_R   0.155686 0.255915 0.292009 -0.187353
C26   C     C_R   0.199856 0.334733 0.361133 -0.118311
C27   C     C_R   0.102389 0.419015 0.431711 0.185610
C28   C     C_R   0.953076 0.419514 0.431466 0.136745
C29   C     C_R   0.900886 0.577161 0.565269 0.453576
C30   C     C_R   0.048325 0.576616 0.564957 -0.099489
C31   C     C_R   0.578151 0.497485 0.300189 0.796895
C32   C     C_R   0.782664 0.385600 0.027105 0.370323
C33   C     C_R   0.621657 0.479060 0.186500 -0.112722
C34   C     C_R   0.236972 0.541424 0.869166 -0.133732
C35   C     C_R   0.195348 0.556895 0.977073 -0.077235
C36   C     C_R   0.292641 0.529854 0.031730 -0.172007
Cu1   Cu    Cu3+1 0.359340 0.500010 0.500010 0.932563
Cu2   Cu    Cu3+1 0.640660 0.499990 0.499990 0.981926
H1    H     H_    0.835095 0.404945 0.171217 0.179957
H2    H     H_    0.278844 0.778427 0.673796 0.140012
H3    H     H_    0.090619 0.898727 0.802095 0.152342
H4    H     H_    0.087539 0.127450 0.800337 0.200756
H5    H     H_    0.273331 0.236995 0.671287 0.165026
H6    H     H_    0.805969 0.329788 0.353758 0.190102
H7    H     H_    0.978403 0.195335 0.237567 0.166389
H8    H     H_    0.311603 0.325142 0.355571 0.197683
H9    H     H_    0.795822 0.308453 0.830252 0.195421
H10   H     H_    0.082711 0.639320 0.618058 0.162418
H11   H     H_    0.162005 0.570490 0.828277 0.159644
H12   H     H_    0.252262 0.544587 0.115272 0.132523
H13   H     H_    0.088054 0.593344 0.018550 0.153488
H14   H     H_    0.693153 0.881935 0.382329 0.152891
N1    N     N_R   0.852480 0.498790 0.499000 -0.233684
N2    N     N_R   0.148360 0.498710 0.498970 -0.223859
O1    O     O_R   0.381190 0.680360 0.500010 -0.587830
O2    O     O_R   0.618760 0.680340 0.500000 -0.518907
O3    O     O_R   0.323240 0.499990 0.650990 -0.594228
O4    O     O_R   0.560820 0.499960 0.650980 -0.528151
O5    O     O_R   0.381240 0.319660 0.500000 -0.601214
O6    O     O_R   0.618810 0.319640 0.499990 -0.598815
O7    O     O_R   0.439180 0.500040 0.349020 -0.596418
O8    O     O_R   0.676760 0.500010 0.349010 -0.602531
H15   H     H_    0.692162 0.107230 0.381779 0.141656
Cl1   Cl    Cl    0.782938 0.682860 0.653299 -0.601399
H16   H     H_    0.233249 0.193157 0.238633 0.159268
Cl2   Cl    Cl    0.951904 0.313360 0.964466 -0.715156
H17   H     H_    0.422606 0.553453 0.178771 0.162094
H18   H     H_    0.617961 0.342229 0.743342 0.169681

loop_
_geom_bond_atom_site_label_1
_geom_bond_atom_site_label_2
_ccdc_geom_bond_type
C2    C4    A    
C28   N1    A    
C31   C33   S    
C16   C21   A    
Cu1   O3    S    
Cu1   Cu2   S    
C11   C13   A    
C31   O7    A    
Cu1   O7    S    
C19   C20   A    
C4    C8    A    
C14   H4    S    
C5    C32   A    
C12   O4    A    
Cu1   O5    S    
C20   H15   S    
C13   H3    S    
C17   C18   A    
C1    C18   S    
C27   N2    A    
C15   H5    S    
C10   C34   A    
C3    C10   A    
C22   C28   A    
C13   C14   A    
C24   C25   A    
C23   O5    A    
C5    C6    A    
C30   N2    A    
C31   O8    A    
C12   O3    A    
C26   C27   A    
C29   C30   A    
Cu2   N1    S    
C10   C12   S    
C9    C33   A    
Cu2   O6    S    
C24   H7    S    
C30   H10   S    
C25   C26   A    
C1    O2    A    
C22   H6    S    
C1    O1    A    
C6    C7    A    
C3    C7    A    
C8    C33   A    
C21   C23   S    
C35   H13   S    
C23   O6    A    
C22   C24   A    
C29   Cl1   S    
C16   C17   A    
C6    H9    S    
Cu1   N2    S    
C11   H2    S    
Cu1   O1    S    
C9    H1    S    
Cu2   O2    S    
C20   C21   A    
C8    H17   S    
C32   Cl2   S    
C34   C35   A    
C2    C36   A    
C27   C28   A    
C25   H16   S    
C26   H8    S    
C14   C15   A    
C18   C19   A    
C34   H11   S    
C2    C3    A    
C9    C32   A    
Cu2   O8    S    
C7    H18   S    
Cu2   O4    S    
C19   H14   S    
C11   C17   A    
C15   C16   A    
C36   H12   S    
C4    C5    A    
C29   N1    A    
C35   C36   A    
