data_mof_unit_44729.cif
_audit_creation_date              2012-12-11T15:43:58-0500
_audit_creation_method            fapswitch 2.2
_symmetry_space_group_name_H-M    P1
_symmetry_Int_Tables_number       1
_space_group_crystal_system       triclinic
_cell_length_a                    14.47893
_cell_length_b                    16.330332
_cell_length_c                    6.981058
_cell_angle_alpha                 90.482196
_cell_angle_beta                  98.562438
_cell_angle_gamma                 89.944844
_cell_volume                      1632.18579133

loop_
_atom_site_label
_atom_site_type_symbol
_atom_type_description
_atom_site_fract_x
_atom_site_fract_y
_atom_site_fract_z
_atom_type_partial_charge
O1    O     O_R   0.831700 0.662810 0.581550 -0.557575
O2    O     O_R   0.168300 0.337190 0.418450 -0.558653
O3    O     O_R   0.168300 0.162810 0.418450 -0.548279
O4    O     O_R   0.831700 0.837190 0.581550 -0.557326
O5    O     O_R   0.842890 0.834390 0.255500 -0.551704
O6    O     O_R   0.157110 0.165610 0.744500 -0.530757
O7    O     O_R   0.157110 0.334390 0.744500 -0.558045
O8    O     O_R   0.842890 0.665610 0.255500 -0.551106
O9    O     O_R   0.661690 0.835580 0.024130 -0.504427
O10   O     O_R   0.338310 0.164420 0.975870 -0.489312
O11   O     O_R   0.338310 0.335580 0.975870 -0.513957
O12   O     O_R   0.661690 0.664420 0.024130 -0.506844
C1    C     C_R   0.863879 0.865463 0.430713 0.680133
C2    C     C_R   0.132253 0.137084 0.568595 0.762715
C3    C     C_R   0.134708 0.364407 0.569132 0.643440
C4    C     C_R   0.867327 0.636601 0.430391 0.652461
C5    C     C_R   0.058871 0.070343 0.537911 -0.075867
C6    C     C_R   0.929056 0.937610 0.463882 -0.087505
C7    C     C_R   0.940314 0.569338 0.460225 -0.072358
C8    C     C_R   0.068894 0.435980 0.535430 -0.062617
H1    H     H_    0.010079 0.105055 0.250180 0.128604
H2    H     H_    0.964289 0.914831 0.769459 0.123144
H3    H     H_    0.991140 0.606780 0.746986 0.132256
H4    H     H_    0.032446 0.410188 0.230143 0.121241
C9    C     C_R   0.932406 0.999461 0.324063 0.157317
C10   C     C_R   0.031365 0.025123 0.691559 0.214168
C11   C     C_R   0.067805 0.500107 0.672164 0.130363
C12   C     C_R   0.967165 0.522327 0.306673 0.149830
O13   O     O_3   0.687240 0.750000 0.366320 -0.280635
O14   O     O_3   0.312760 0.250000 0.633680 -0.307092
V1    V     V_3+5 0.757720 0.750000 0.115230 1.557994
V2    V     V_3+5 0.242280 0.250000 0.884770 1.580407
O15   O     O_R   0.650500 0.664000 0.690740 -0.527140
O16   O     O_R   0.349500 0.336000 0.309260 -0.526740
O17   O     O_R   0.349500 0.164000 0.309260 -0.524321
O18   O     O_R   0.650500 0.836000 0.690740 -0.501045
C13   C     C_R   0.628262 0.636154 0.853419 0.819546
C14   C     C_R   0.375415 0.360303 0.147073 0.805503
C15   C     C_R   0.369605 0.135319 0.143537 0.868167
C16   C     C_R   0.625387 0.861474 0.855902 0.827140
C17   C     C_R   0.003813 0.059645 0.356780 -0.236979
C18   C     C_R   0.977523 0.953241 0.650652 -0.209642
C19   C     C_R   0.996274 0.560147 0.640761 -0.223065
C20   C     C_R   0.019870 0.449981 0.348557 -0.209169
V3    V     V_3+5 0.735670 0.750000 0.607790 1.634165
V4    V     V_3+5 0.264330 0.250000 0.392210 1.608772
O19   O     O_3   0.806150 0.750000 0.906560 -0.419200
O20   O     O_3   0.193850 0.250000 0.093440 -0.415062
C21   C     C_2   0.553188 0.926799 0.857042 -0.341719
C22   C     C_2   0.438890 0.069220 0.140532 -0.381315
C23   C     C_2   0.443053 0.428597 0.154996 -0.302055
C24   C     C_2   0.572073 0.559486 0.846632 -0.302362
C25   C     C_2   0.507687 0.946874 0.010492 0.329511
C26   C     C_2   0.437333 0.013064 0.993316 0.379229
C27   C     C_2   0.488609 0.449596 0.005333 0.321495
C28   C     C_2   0.517629 0.537632 0.981879 0.295290
H5    H     H_    0.495016 0.067357 0.262450 0.120252
H6    H     H_    0.537539 0.962275 0.725580 0.143244
H7    H     H_    0.585028 0.516571 0.734962 0.175930
H8    H     H_    0.446240 0.468471 0.280524 0.190380
C29   C     C_3   0.852053 0.011166 0.160428 -0.417230
C30   C     C_3   0.762681 0.035682 0.237891 -0.668357
H9    H     H_    0.746515 0.992175 0.348543 0.248214
H10   H     H_    0.770917 0.097616 0.305381 0.221851
H11   H     H_    0.703319 0.036972 0.117254 0.209707
H12   H     H_    0.866207 0.061905 0.066998 0.198551
H13   H     H_    0.840839 0.956089 0.066118 0.186242
C31   C     C_3   0.030418 0.065319 0.885637 -0.315893
C32   C     C_3   0.967296 0.142244 0.859313 -0.768170
H14   H     H_    0.991816 0.187672 0.761422 0.214843
H15   H     H_    0.895247 0.124705 0.794173 0.221962
H16   H     H_    0.964571 0.174954 0.997563 0.202458
H17   H     H_    0.002729 0.021292 0.981368 0.158293
H18   H     H_    0.101124 0.080000 0.961283 0.230677
C33   C     C_3   0.152031 0.515444 0.825089 -0.396103
C34   C     C_3   0.239281 0.532142 0.731065 -0.618326
H19   H     H_    0.262995 0.476588 0.660333 0.209265
H20   H     H_    0.225181 0.581523 0.621984 0.227528
H21   H     H_    0.297403 0.552128 0.841994 0.267165
H22   H     H_    0.141282 0.570754 0.910593 0.203350
H23   H     H_    0.164039 0.463810 0.927973 0.186065
C35   C     C_3   0.969947 0.561428 0.113326 -0.349484
C36   C     C_3   0.034160 0.637627 0.142962 -0.688023
H24   H     H_    0.012038 0.682210 0.247450 0.216813
H25   H     H_    0.106557 0.618759 0.201254 0.220252
H26   H     H_    0.035008 0.671974 0.007725 0.194697
H27   H     H_    0.998894 0.517322 0.017089 0.163821
H28   H     H_    0.899186 0.576391 0.038053 0.188599
S1    S     S_3+6 0.339965 0.999400 0.808852 -0.002331
O21   O     O_2   0.251174 0.010133 0.893185 -0.365987
O22   O     O_2   0.344054 0.061012 0.651856 -0.353624
O23   O     O_3   0.341411 0.904423 0.714258 -0.472120
H29   H     H_    0.284023 0.900908 0.617621 0.379521
S2    S     S_3+6 0.515078 0.892421 0.231108 0.068828
O24   O     O_2   0.521191 0.802440 0.198161 -0.208770
O25   O     O_2   0.599907 0.920614 0.364931 -0.396653
O26   O     O_3   0.419047 0.909557 0.334964 -0.462423
H30   H     H_    0.436345 0.953727 0.431258 0.364987
S3    S     S_3+6 0.465393 0.616949 0.105998 0.015049
O27   O     O_2   0.531781 0.640825 0.283820 -0.293361
O28   O     O_2   0.446905 0.688330 0.971213 -0.288607
O29   O     O_3   0.363161 0.589496 0.174228 -0.551247
H31   H     H_    0.341371 0.638874 0.237677 0.380515
S4    S     S_3+6 0.525245 0.371310 0.852326 -0.025477
O30   O     O_2   0.508867 0.286882 0.924715 -0.335518
O31   O     O_2   0.472653 0.381146 0.651638 -0.351684
O32   O     O_3   0.640376 0.381102 0.845319 -0.529938
H32   H     H_    0.653365 0.343260 0.740936 0.361245

loop_
_geom_bond_atom_site_label_1
_geom_bond_atom_site_label_2
_ccdc_geom_bond_type
O6    V2    S    
C27   C28   S    
O11   C14   A    
O15   V3    S    
C34   H21   S    
S4    O31   D    
O26   H30   S    
C25   C26   S    
O2    V4    S    
C22   C26   D    
C1    C6    S    
C5    C10   A    
C34   H20   S    
C32   H14   S    
C6    C18   A    
C21   C25   D    
C31   H18   S    
C16   C21   S    
O12   C13   A    
H3    C19   S    
O4    C1    A    
C32   H15   S    
C30   H10   S    
C29   H12   S    
C36   H24   S    
C31   C32   S    
S3    O29   S    
O32   H32   S    
O16   V4    S    
S1    O22   D    
C33   H22   S    
O5    C1    A    
O7    C3    A    
O8    C4    A    
V1    O19   S    
V2    O20   S    
C2    C5    S    
S2    O24   D    
C6    C9    A    
C11   C33   S    
S4    O30   D    
C8    C20   A    
C7    C19   A    
O4    V3    S    
V3    O19   S    
C3    C8    S    
V4    O20   S    
C12   C35   S    
O29   H31   S    
O18   C16   A    
C34   H19   S    
C26   S1    S    
C9    C17   A    
C13   C24   S    
C33   H23   S    
C14   C23   S    
S2    O26   S    
C31   H17   S    
C27   S4    S    
C12   C20   A    
O9    C16   A    
O15   C13   A    
C21   H6    S    
O13   V3    S    
O10   C15   A    
C32   H16   S    
O17   C15   A    
C33   C34   S    
C30   H9    S    
C7    C12   A    
C24   H7    S    
O10   V2    S    
O6    C2    A    
C29   H13   S    
S3    O27   D    
C15   C22   S    
C35   H27   S    
O18   V3    S    
O1    C4    A    
C9    C29   S    
S1    O23   S    
S2    O25   D    
O2    C3    A    
O3    C2    A    
H1    C17   S    
C36   H25   S    
O11   V2    S    
O12   V1    S    
H4    C20   S    
C10   C18   A    
O7    V2    S    
C30   H11   S    
S3    O28   D    
C25   S2    S    
O16   C14   A    
O8    V1    S    
O14   V4    S    
C8    C11   A    
O3    V4    S    
C10   C31   S    
O13   V1    S    
O14   V2    S    
C22   H5    S    
O1    V3    S    
H2    C18   S    
C4    C7    S    
C35   H28   S    
O23   H29   S    
C23   C27   D    
C29   C30   S    
C5    C17   A    
O9    V1    S    
C11   C19   A    
C36   H26   S    
C35   C36   S    
C23   H8    S    
C28   S3    S    
S1    O21   D    
O17   V4    S    
S4    O32   S    
C24   C28   D    
O5    V1    S    
