data_mof_unit_21231.cif
_audit_creation_date              2013-03-05T16:35:14-0500
_audit_creation_method            fapswitch 2.2
_symmetry_space_group_name_H-M    P1
_symmetry_Int_Tables_number       1
_space_group_crystal_system       triclinic
_cell_length_a                    10.777805
_cell_length_b                    9.087293
_cell_length_c                    7.78929
_cell_angle_alpha                 90.014603
_cell_angle_beta                  90.228173
_cell_angle_gamma                 90.185865
_cell_volume                      762.881321377

loop_
_atom_site_label
_atom_site_type_symbol
_atom_site_description
_atom_site_fract_x
_atom_site_fract_y
_atom_site_fract_z
_atom_type_partial_charge
O1    O     O_R   0.500000 0.288400 0.642760 -0.550762
O2    O     O_R   0.500000 0.288400 0.357240 -0.548832
C1    C     C_R   0.501331 0.220073 0.500020 0.949447
O3    O     O_R   0.317700 0.499990 0.642790 -0.574812
O4    O     O_R   0.317700 0.499990 0.357210 -0.582856
O5    O     O_R   0.682300 0.499990 0.642790 -0.575274
O6    O     O_R   0.682300 0.499990 0.357210 -0.586140
N1    N     N_1   0.500000 0.499970 0.076820 -0.019493
N2    N     N_1   0.500000 0.499970 0.923180 -0.015675
C2    C     C_R   0.259727 0.491360 0.499892 0.871072
C3    C     C_R   0.740095 0.490434 0.500599 0.864106
Cu1   Cu    Cu3+1 0.500000 0.500010 0.669080 1.099265
Cu2   Cu    Cu3+1 0.500000 0.500010 0.330920 1.092586
O7    O     O_R   0.500000 0.711620 0.642810 -0.584823
O8    O     O_R   0.500000 0.711620 0.357190 -0.581562
C4    C     C_R   0.500280 0.779951 0.500018 0.828222
C5    C     C_1   0.501335 0.065406 0.500044 -0.028949
C6    C     C_3   0.072943 0.426116 0.679906 0.114218
C7    C     C_3   0.071115 0.383972 0.345984 0.133852
C8    C     C_3   0.928505 0.431235 0.684527 0.119576
C9    C     C_3   0.925961 0.378511 0.353596 0.123610
H1    H     H_    0.104228 0.510500 0.775109 0.107338
H2    H     H_    0.094558 0.446708 0.227228 0.110922
H3    H     H_    0.904053 0.522515 0.774031 0.095051
H4    H     H_    0.893971 0.430853 0.231656 0.131232
C10   C     C_1   0.500917 0.934631 0.500047 -0.103492
H5    H     H_    0.104004 0.711972 0.578358 0.225049
H6    H     H_    0.107224 0.685773 0.351217 0.224369
H7    H     H_    0.892761 0.715737 0.565834 0.227024
H8    H     H_    0.896191 0.677512 0.340951 0.222380
C11   C     C_3   0.071521 0.638063 0.473181 -0.498895
C12   C     C_3   0.928486 0.636958 0.468387 -0.492289
C13   C     C_3   0.122315 0.479530 0.500263 -0.166126
C14   C     C_3   0.877349 0.479216 0.502853 -0.169520
N3    N     N_R   0.127065 0.285778 0.737866 0.186197
O9    O     O_R   0.086841 0.159678 0.681573 -0.214260
O10   O     O_R   0.208098 0.286482 0.862198 -0.301929
N4    N     N_R   0.129051 0.238888 0.320790 0.193804
O11   O     O_R   0.225506 0.197890 0.409037 -0.352501
O12   O     O_R   0.099896 0.163249 0.184484 -0.224634
N5    N     N_R   0.872239 0.298650 0.761649 0.193255
O13   O     O_R   0.780464 0.228592 0.689426 -0.312196
O14   O     O_R   0.899232 0.266955 0.920326 -0.272958
N6    N     N_R   0.870923 0.229806 0.353877 0.182011
O15   O     O_R   0.918609 0.122121 0.441690 -0.231033
O16   O     O_R   0.776105 0.202134 0.254875 -0.305576

loop_
_geom_bond_atom_site_label_1
_geom_bond_atom_site_label_2
_geom_bond_distance
_ccdc_geom_bond_type
O6    C3    1.279789 A    
C11   C13   1.556913 S    
N1    Cu2   1.979258 S    
C7    N4    1.474060 S    
O3    Cu1   1.974626 S    
C9    N6    1.474034 S    
C6    N3    1.474269 S    
O4    Cu2   1.976248 S    
C11   C12   1.541912 S    
C3    C14   1.483175 S    
C8    C14   1.578701 S    
C8    N5    1.476066 S    
Cu1   O7    1.933870 S    
O4    C2    1.279450 A    
N4    O12   1.301540 A    
N6    O15   1.300155 A    
H8    C12   1.113802 S    
N5    O14   1.301192 A    
O1    Cu1   1.933809 S    
C5    C10   1.188387 T    
C7    C9    1.566421 S    
N6    O16   1.301626 A    
C1    C5    1.405508 S    
H7    C12   1.113882 S    
C6    C8    1.558136 S    
Cu2   O8    1.933766 S    
O5    Cu1   1.976248 S    
N4    O11   1.299604 A    
C6    C13   1.575240 S    
O7    C4    1.273988 A    
N2    Cu1   1.979258 S    
H5    C11   1.113892 S    
O8    C4    1.273933 A    
C8    H3    1.116308 S    
O6    Cu2   1.974626 S    
Cu1   Cu2   2.634027 S    
C2    C13   1.484561 S    
N5    O13   1.300572 A    
O5    C3    1.275951 A    
O2    Cu2   1.933913 S    
C9    H4    1.116231 S    
C7    H2    1.116118 S    
O2    C1    1.273934 A    
C9    C14   1.571957 S    
N3    O10   1.301514 A    
C6    H1    1.116989 S    
O3    C2    1.276553 A    
H6    C11   1.113821 S    
N3    O9    1.299356 A    
C7    C13   1.579166 S    
N1    N2    1.196747 T    
O1    C1    1.273478 A    
C4    C10   1.405614 S    
C12   C14   1.557834 S    
