data_mof_unit_48120.cif
_audit_creation_date              2012-12-10T20:21:36-0500
_audit_creation_method            fapswitch 2.2
_symmetry_space_group_name_H-M    P1
_symmetry_Int_Tables_number       1
_space_group_crystal_system       triclinic
_cell_length_a                    19.335321
_cell_length_b                    18.451038
_cell_length_c                    8.909632
_cell_angle_alpha                 90.002197
_cell_angle_beta                  89.969028
_cell_angle_gamma                 90.003235
_cell_volume                      3178.57081751

loop_
_atom_site_label
_atom_site_type_symbol
_atom_type_description
_atom_site_fract_x
_atom_site_fract_y
_atom_site_fract_z
_atom_type_partial_charge
C1    C     C_R   0.365642 0.500001 0.499941 0.856177
C2    C     C_R   0.634358 0.500005 0.500067 0.856181
C3    C     C_R   0.554615 0.726150 0.439919 0.021571
C4    C     C_R   0.525601 0.273821 0.379328 0.018295
C5    C     C_R   0.445386 0.726147 0.560083 0.021340
C6    C     C_R   0.474397 0.273821 0.620668 0.018052
C7    C     C_R   0.555774 0.802232 0.439415 -0.270922
C8    C     C_R   0.525767 0.197745 0.376796 -0.265957
C9    C     C_R   0.444231 0.802229 0.560595 -0.270946
C10   C     C_R   0.474230 0.197745 0.623195 -0.265987
C11   C     C_R   0.500003 0.841170 0.500007 0.160492
C12   C     C_R   0.499999 0.158729 0.499993 0.149789
C13   C     C_R   0.456129 0.961314 0.401445 -0.056615
C14   C     C_R   0.544012 0.038394 0.598506 -0.056722
C15   C     C_R   0.543877 0.961328 0.598557 -0.056574
C16   C     C_R   0.455994 0.038380 0.401482 -0.056702
C17   C     C_R   0.500001 0.077266 0.499994 -0.026079
C18   C     C_R   0.500003 0.922546 0.500004 -0.024185
C19   C     C_R   0.500020 0.499997 0.218401 0.946558
C20   C     C_R   0.499980 0.499998 0.781599 0.946554
C21   C     C_1   0.500008 0.499989 0.065326 -0.207630
C22   C     C_1   0.499992 0.499991 0.934674 -0.207623
C23   C     C_R   0.745622 0.434156 0.501806 -0.195968
C24   C     C_R   0.254411 0.565911 0.499028 -0.195644
C25   C     C_R   0.254378 0.434131 0.500546 -0.196047
C26   C     C_R   0.745588 0.565928 0.498869 -0.195563
C27   C     C_R   0.817250 0.434225 0.501986 -0.184702
C28   C     C_R   0.182782 0.565881 0.498917 -0.182110
C29   C     C_R   0.182751 0.434189 0.500607 -0.184692
C30   C     C_R   0.817216 0.565910 0.498940 -0.182075
C31   C     C_R   0.853155 0.500081 0.500483 0.121171
C32   C     C_R   0.146853 0.500042 0.499793 0.121103
C33   C     C_R   0.709469 0.500028 0.500234 -0.027020
C34   C     C_R   0.290530 0.500013 0.499839 -0.027025
C35   C     C_R   0.964179 0.544126 0.398769 -0.189548
C36   C     C_R   0.035848 0.456036 0.601573 -0.189431
C37   C     C_R   0.035811 0.544111 0.398583 -0.189031
C38   C     C_R   0.964216 0.456067 0.601791 -0.188977
C39   C     C_R   0.071753 0.500058 0.499970 0.108290
C40   C     C_R   0.928265 0.500104 0.500376 0.108580
H1    H     H_    0.718714 0.382662 0.502625 0.154985
H2    H     H_    0.281345 0.617392 0.498761 0.150810
H3    H     H_    0.281288 0.382640 0.500822 0.154893
H4    H     H_    0.718653 0.617403 0.497973 0.150614
H5    H     H_    0.844646 0.383004 0.501685 0.127341
H6    H     H_    0.155400 0.617109 0.499762 0.128135
H7    H     H_    0.155345 0.382971 0.499768 0.127430
H8    H     H_    0.844587 0.617148 0.499303 0.128116
H9    H     H_    0.936795 0.577696 0.318672 0.131692
H10   H     H_    0.063243 0.422450 0.681623 0.131861
H11   H     H_    0.063176 0.577682 0.318385 0.132193
H12   H     H_    0.936862 0.422501 0.682015 0.131820
H13   H     H_    0.597481 0.696428 0.392052 0.120060
H14   H     H_    0.546042 0.303488 0.284520 0.130420
H15   H     H_    0.402518 0.696423 0.607946 0.120379
H16   H     H_    0.453957 0.303488 0.715477 0.130341
H17   H     H_    0.599549 0.830551 0.391298 0.131175
H18   H     H_    0.546177 0.169495 0.279972 0.131143
H19   H     H_    0.400456 0.830546 0.608712 0.131272
H20   H     H_    0.453821 0.169495 0.720017 0.131132
N1    N     N_R   0.500000 0.689440 0.500000 -0.088780
N2    N     N_R   0.500000 0.310560 0.500000 -0.092960
O1    O     O_R   0.398180 0.560840 0.499960 -0.633625
O2    O     O_R   0.601820 0.439160 0.500040 -0.623250
O3    O     O_R   0.601820 0.560840 0.500040 -0.633550
O4    O     O_R   0.398180 0.439160 0.499960 -0.623229
O5    O     O_R   0.500000 0.560800 0.285330 -0.613342
O6    O     O_R   0.500000 0.439200 0.714670 -0.626413
O7    O     O_R   0.500000 0.560800 0.714670 -0.613211
O8    O     O_R   0.500000 0.439200 0.285330 -0.626300
Zn1   Zn    Zn3+2 0.500000 0.581210 0.500000 0.945436
Zn2   Zn    Zn3+2 0.500000 0.418790 0.500000 0.941809
C41   C     C_R   0.410099 0.920847 0.297737 0.142833
C42   C     C_R   0.438302 0.880740 0.178536 -0.154266
C43   C     C_R   0.394995 0.842344 0.081311 -0.142292
C44   C     C_R   0.323364 0.844045 0.102087 -0.109163
C45   C     C_R   0.294948 0.884037 0.220281 -0.139163
C46   C     C_R   0.338112 0.922312 0.318058 -0.141962
H21   H     H_    0.493692 0.879496 0.161101 0.120909
H22   H     H_    0.416904 0.811260 0.989897 0.125256
H23   H     H_    0.289882 0.814357 0.026645 0.119190
H24   H     H_    0.239472 0.885276 0.236274 0.122930
H25   H     H_    0.315613 0.952904 0.409628 0.119485
C47   C     C_R   0.589900 0.078543 0.703298 0.137907
C48   C     C_R   0.643539 0.122439 0.648057 -0.146492
C49   C     C_R   0.685886 0.160805 0.747377 -0.136611
C50   C     C_R   0.675248 0.155244 0.902178 -0.111829
C51   C     C_R   0.622284 0.111254 0.957879 -0.138180
C52   C     C_R   0.579695 0.073129 0.858838 -0.138737
H26   H     H_    0.652455 0.126871 0.528392 0.120133
H27   H     H_    0.727006 0.194769 0.704353 0.122860
H28   H     H_    0.708135 0.184874 0.978937 0.119478
H29   H     H_    0.614271 0.106608 0.077693 0.117915
H30   H     H_    0.538867 0.039191 0.902637 0.114948
C53   C     C_R   0.589906 0.920875 0.702274 0.142843
C54   C     C_R   0.561701 0.880765 0.821467 -0.154239
C55   C     C_R   0.605007 0.842384 0.918702 -0.142410
C56   C     C_R   0.676640 0.844105 0.897949 -0.108815
C57   C     C_R   0.705057 0.884100 0.779765 -0.138855
C58   C     C_R   0.661894 0.922359 0.681974 -0.142190
H31   H     H_    0.506310 0.879507 0.838887 0.120933
H32   H     H_    0.583097 0.811296 0.010107 0.125212
H33   H     H_    0.710121 0.814429 0.973401 0.119056
H34   H     H_    0.760534 0.885355 0.763791 0.123169
H35   H     H_    0.684395 0.952953 0.590412 0.119496
C59   C     C_R   0.410114 0.078513 0.296664 0.137974
C60   C     C_R   0.356473 0.122410 0.351875 -0.146775
C61   C     C_R   0.314132 0.160758 0.252527 -0.136308
C62   C     C_R   0.324779 0.155178 0.097731 -0.111692
C63   C     C_R   0.377745 0.111186 0.042062 -0.138346
C64   C     C_R   0.420328 0.073079 0.141130 -0.138694
H36   H     H_    0.347550 0.126856 0.471535 0.120082
H37   H     H_    0.273009 0.194722 0.295528 0.123454
H38   H     H_    0.291896 0.184794 0.020952 0.119333
H39   H     H_    0.385765 0.106525 0.922252 0.117896
H40   H     H_    0.461157 0.039138 0.097354 0.114947

loop_
_geom_bond_atom_site_label_1
_geom_bond_atom_site_label_2
_ccdc_geom_bond_type
C15   C18   A    
C50   C51   A    
C11   C18   S    
C24   H2    S    
C41   C42   A    
C53   C54   A    
C14   C47   S    
C4    C8    A    
C2    O3    A    
C25   H3    S    
C55   C56   A    
C26   H4    S    
C45   C46   A    
C31   C40   S    
C7    C11   A    
C28   H6    S    
C58   H35   S    
C13   C18   A    
C29   H7    S    
C30   H8    S    
C35   C37   A    
C29   C32   A    
C3    C7    A    
C49   H27   S    
C15   C53   S    
C30   C31   A    
C37   H11   S    
C38   H12   S    
C59   C60   A    
C56   H33   S    
C4    N2    A    
C61   C62   A    
C60   H36   S    
C32   C39   S    
C52   H30   S    
O7    Zn1   S    
C63   C64   A    
C8    H18   S    
C46   H25   S    
O4    Zn2   S    
C16   C17   A    
C23   C33   A    
C12   C17   S    
C35   H9    S    
C41   C46   A    
C19   O5    A    
C64   H40   S    
C23   C27   A    
C43   H22   S    
C55   H32   S    
C16   C59   S    
C25   C34   A    
N1    Zn1   S    
C57   H34   S    
C54   H31   S    
C14   C17   A    
C5    H15   S    
C1    O1    A    
C2    O2    A    
C1    C34   S    
C59   C64   A    
C3    N1    A    
C25   C29   A    
C42   C43   A    
C27   C31   A    
C28   C32   A    
C44   C45   A    
C6    H16   S    
C50   H28   S    
C49   C50   A    
C48   C49   A    
C24   C34   A    
O6    Zn2   S    
C9    H19   S    
C61   H37   S    
C10   H20   S    
C43   C44   A    
C5    C9    A    
C26   C33   A    
C57   C58   A    
C8    C12   A    
C54   C55   A    
C1    O4    A    
N2    Zn2   S    
C47   C48   A    
C9    C11   A    
C10   C12   A    
C62   H38   S    
C2    C33   S    
C13   C41   S    
C26   C30   A    
C42   H21   S    
C20   O7    A    
C47   C52   A    
C20   C22   S    
C60   C61   A    
C36   H10   S    
C51   H29   S    
C4    H14   S    
C53   C58   A    
C20   O6    A    
C36   C39   A    
C24   C28   A    
O1    Zn1   S    
C44   H23   S    
C6    C10   A    
C48   H26   S    
C23   H1    S    
C6    N2    A    
C36   C38   A    
C35   C40   A    
C37   C39   A    
O3    Zn1   S    
C62   C63   A    
C38   C40   A    
C3    H13   S    
C27   H5    S    
C45   H24   S    
O5    Zn1   S    
O2    Zn2   S    
C51   C52   A    
C56   C57   A    
C13   C16   A    
C14   C15   A    
C19   O8    A    
O8    Zn2   S    
C21   C22   T    
C63   H39   S    
C7    H17   S    
C5    N1    A    
C19   C21   S    
