data_mof_unit_52864.cif
_audit_creation_date              2012-12-10T17:08:41-0500
_audit_creation_method            fapswitch 2.2
_symmetry_space_group_name_H-M    P1
_symmetry_Int_Tables_number       1
_space_group_crystal_system       triclinic
_cell_length_a                    27.797535
_cell_length_b                    11.028531
_cell_length_c                    9.813765
_cell_angle_alpha                 111.079118
_cell_angle_beta                  98.235304
_cell_angle_gamma                 90.955532
_cell_volume                      2770.71384356

loop_
_atom_site_label
_atom_site_type_symbol
_atom_type_description
_atom_site_fract_x
_atom_site_fract_y
_atom_site_fract_z
_atom_type_partial_charge
C1    C     C_R   0.496485 0.254081 0.440648 0.863846
C2    C     C_R   0.873895 0.397536 0.529520 -0.148290
C3    C     C_R   0.354250 0.500571 0.502227 -0.077138
C4    C     C_R   0.645752 0.499428 0.497766 -0.077152
C5    C     C_R   0.974787 0.391355 0.512510 -0.025116
C6    C     C_R   0.025200 0.608469 0.487328 -0.025133
C7    C     C_R   0.976113 0.615271 0.514545 0.077770
C8    C     C_R   0.023882 0.384572 0.485350 0.077748
C9    C     C_R   0.950373 0.504386 0.517529 -0.015949
C10   C     C_R   0.049619 0.495456 0.482345 -0.015956
C11   C     C_R   0.950449 0.293607 0.546618 0.368234
C12   C     C_R   0.503515 0.745919 0.559352 0.863825
C13   C     C_R   0.049523 0.706181 0.453124 0.368232
C14   C     C_R   0.899885 0.294807 0.550437 0.343813
C15   C     C_R   0.100084 0.704974 0.449247 0.343783
C16   C     C_R   0.407389 0.499890 0.501190 0.837842
C17   C     C_R   0.592611 0.500110 0.498807 0.837819
C18   C     C_R   0.047181 0.267032 0.450240 -0.222800
C19   C     C_R   0.952830 0.732837 0.549736 -0.222771
C20   C     C_2   0.494567 0.114770 0.407124 -0.331417
C21   C     C_2   0.505432 0.885229 0.592876 -0.331416
C22   C     C_2   0.500899 0.069561 0.516663 -0.140854
C23   C     C_R   0.100035 0.492220 0.472104 -0.174681
C24   C     C_2   0.499100 0.930439 0.483337 -0.140864
C25   C     C_2   0.504169 0.510570 0.081361 -0.042659
C26   C     C_2   0.495831 0.489430 0.918639 -0.042678
C27   C     C_R   0.175530 0.383653 0.469837 0.592602
C28   C     C_R   0.824479 0.616288 0.530227 0.592616
C29   C     C_R   0.177371 0.604612 0.486057 0.570797
C30   C     C_R   0.822611 0.395254 0.513732 0.570833
C31   C     C_R   0.273354 0.506578 0.373298 -0.100857
C32   C     C_R   0.726651 0.493508 0.626729 -0.100931
C33   C     C_R   0.323578 0.507308 0.378349 -0.283111
C34   C     C_R   0.899959 0.507640 0.527785 -0.174677
C35   C     C_R   0.676427 0.492800 0.621693 -0.283064
C36   C     C_R   0.333520 0.493318 0.622913 0.391820
C37   C     C_R   0.666477 0.506566 0.377024 0.391855
C38   C     C_R   0.282542 0.492545 0.616070 -0.191537
C39   C     C_R   0.717455 0.507319 0.383853 -0.191552
C40   C     C_R   0.252639 0.498926 0.491653 0.298668
C41   C     C_R   0.747359 0.501030 0.508310 0.298760
C42   C     C_R   0.124517 0.378901 0.463995 -0.032498
C43   C     C_R   0.875489 0.621005 0.536020 -0.032517
C44   C     C_R   0.097228 0.263613 0.445207 0.424621
C45   C     C_R   0.902790 0.736298 0.554874 0.424673
C46   C     C_R   0.126086 0.602299 0.470263 -0.148268
Cu1   Cu    Cu3+1 0.508480 0.521810 0.644910 0.977058
Cu2   Cu    Cu3+1 0.491520 0.478190 0.355090 0.977061
H1    H     H_    0.749650 0.488967 0.723412 0.153567
H2    H     H_    0.452120 0.377313 0.065387 0.199746
H3    H     H_    0.265928 0.486621 0.707035 0.141328
H4    H     H_    0.734064 0.513158 0.292846 0.141269
H5    H     H_    0.095372 0.077530 0.411097 0.339246
H6    H     H_    0.904672 0.922430 0.589234 0.339166
H7    H     H_    0.661613 0.486811 0.715508 0.184813
H8    H     H_    0.338400 0.513407 0.284597 0.184817
H9    H     H_    0.857260 0.241978 0.660577 0.358084
H10   H     H_    0.142698 0.757711 0.339012 0.358074
H11   H     H_    0.956503 0.143820 0.611224 0.369704
H12   H     H_    0.250357 0.511210 0.276661 0.153623
H13   H     H_    0.043441 0.855809 0.388247 0.369715
H14   H     H_    0.026621 0.174957 0.420518 0.194822
H15   H     H_    0.973400 0.824896 0.579442 0.194782
H16   H     H_    0.492525 0.864645 0.368145 0.182609
H17   H     H_    0.507474 0.135355 0.631855 0.182612
H18   H     H_    0.342766 0.480415 0.817618 0.321178
H19   H     H_    0.657222 0.519280 0.182212 0.321169
H20   H     H_    0.512023 0.951307 0.707872 0.155288
H21   H     H_    0.487977 0.048693 0.292128 0.155285
H22   H     H_    0.467532 0.416963 0.845509 0.183191
H23   H     H_    0.532468 0.583037 0.154491 0.183169
H24   H     H_    0.547880 0.622687 0.934613 0.199744
N1    N     N_R   0.200672 0.496136 0.484199 -0.474962
N2    N     N_R   0.799324 0.503785 0.515742 -0.474986
N3    N     N_2   0.478780 0.445430 0.137360 -0.286028
N4    N     N_2   0.521220 0.554570 0.862640 -0.286035
O1    O     O_R   0.504520 0.332330 0.577400 -0.583198
O2    O     O_2   0.799900 0.722380 0.537686 -0.444850
O3    O     O_2   0.795887 0.284643 0.491738 -0.485350
O4    O     O_2   0.204082 0.715212 0.507917 -0.485384
O5    O     O_3   0.363188 0.485088 0.744406 -0.725051
O6    O     O_3   0.636807 0.514710 0.255485 -0.725028
O7    O     O_3   0.119507 0.147886 0.418855 -0.636198
O8    O     O_3   0.880528 0.852063 0.581380 -0.636222
O9    O     O_3   0.877574 0.198746 0.584050 -0.684752
O10   O     O_3   0.122380 0.800982 0.415515 -0.684813
O11   O     O_3   0.977704 0.207797 0.593622 -0.736266
O12   O     O_R   0.495480 0.667670 0.422600 -0.583210
O13   O     O_3   0.022253 0.791960 0.406105 -0.736247
O14   O     O_R   0.490210 0.295500 0.332650 -0.573623
O15   O     O_R   0.509790 0.704500 0.667350 -0.573629
O16   O     O_R   0.437420 0.518430 0.622370 -0.520572
O17   O     O_R   0.562580 0.481570 0.377630 -0.520562
O18   O     O_R   0.423110 0.481600 0.377610 -0.592771
O19   O     O_R   0.576890 0.518400 0.622390 -0.592767
O20   O     O_2   0.200122 0.277611 0.462539 -0.444888

loop_
_geom_bond_atom_site_label_1
_geom_bond_atom_site_label_2
_ccdc_geom_bond_type
C1    O14   A    
C1    O1    A    
Cu1   O16   S    
C12   O15   A    
H24   N4    S    
C44   O7    S    
C28   N2    A    
H6    O8    S    
C39   C41   A    
C31   C40   A    
C23   C42   A    
Cu2   O18   S    
Cu1   N4    S    
C5    C11   A    
C30   N2    A    
C11   C14   A    
C29   N1    A    
C3    C33   A    
C40   N1    S    
C41   N2    S    
C19   H15   S    
C26   N4    D    
C32   C41   A    
Cu2   O12   S    
C17   O19   A    
C28   O2    S    
C2    C34   A    
C33   H8    S    
C39   H4    S    
C4    C35   A    
C24   H16   S    
C23   C46   A    
Cu2   O14   S    
Cu2   N3    S    
C27   O20   S    
C42   C44   A    
H10   O10   S    
H13   O13   S    
Cu2   O17   S    
C12   O12   A    
C35   H7    S    
C32   C35   A    
C11   O11   S    
C18   H14   S    
C38   H3    S    
C25   C26   S    
C12   C21   S    
C8    C18   A    
C25   N3    D    
C31   H12   S    
C22   H17   S    
C5    C9    A    
C18   C44   A    
Cu1   Cu2   S    
C36   O5    S    
C31   C33   A    
C43   C45   A    
C15   O10   S    
C25   H23   S    
C30   O3    S    
C20   C22   D    
C16   O16   A    
C7    C19   A    
C13   C15   A    
C21   H20   S    
C9    C34   A    
C26   H22   S    
C22   C24   S    
C37   O6    S    
C45   O8    S    
C17   O17   A    
C4    C17   S    
C7    C9    A    
C1    C20   S    
Cu1   O19   S    
C13   O13   S    
Cu1   O15   S    
C34   C43   A    
C14   O9    S    
C6    C10   A    
C5    C8    A    
C19   C45   A    
C6    C7    A    
C10   C23   A    
C28   C43   A    
C16   O18   A    
C2    C30   A    
C29   C46   A    
H5    O7    S    
C36   C38   A    
C37   C39   A    
H2    N3    S    
H18   O5    S    
C38   C40   A    
C27   C42   A    
C29   O4    S    
C3    C36   A    
H9    O9    S    
C2    C14   A    
H11   O11   S    
C32   H1    S    
C4    C37   A    
H19   O6    S    
C8    C10   A    
C21   C24   D    
Cu1   O1    S    
C20   H21   S    
C15   C46   A    
C27   N1    A    
C3    C16   S    
C6    C13   A    
