data_mof_unit_37189.cif
_audit_creation_date              2012-10-26T21:10:40-0400
_audit_creation_method            fapswitch 2.2
_symmetry_space_group_name_H-M    P1
_symmetry_Int_Tables_number       1
_space_group_crystal_system       triclinic
_cell_length_a                    10.940856
_cell_length_b                    14.692969
_cell_length_c                    14.991858
_cell_angle_alpha                 64.988398
_cell_angle_beta                  104.147448
_cell_angle_gamma                 100.731823
_cell_volume                      2108.31257587

loop_
_atom_site_label
_atom_site_type_symbol
_atom_type_description
_atom_site_fract_x
_atom_site_fract_y
_atom_site_fract_z
_atom_type_partial_charge
C1    C     C_R   0.483071 0.119648 0.312678 0.544994
C2    C     C_R   0.512675 0.785299 0.967738 0.108917
C3    C     C_R   0.469465 0.152821 0.128862 0.119575
C4    C     C_R   0.513161 0.852916 0.866635 0.138261
C5    C     C_R   0.488934 0.292576 0.179066 -0.176252
C6    C     C_R   0.496746 0.709766 0.822144 -0.184418
C7    C     C_R   0.479320 0.362588 0.078833 -0.039809
C8    C     C_R   0.495885 0.642083 0.922075 -0.028557
C9    C     C_R   0.443451 0.324618 0.002504 0.078717
C10   C     C_R   0.523877 0.681573 0.996434 0.049836
C11   C     C_R   0.499261 0.469267 0.052267 -0.005799
C12   C     C_R   0.515666 0.880688 0.687199 0.553979
C13   C     C_R   0.472430 0.535934 0.950077 0.002299
C14   C     C_R   0.415360 0.495245 0.878799 -0.110024
C15   C     C_R   0.550617 0.511746 0.123672 -0.089138
C16   C     C_R   0.263266 0.001493 0.500973 0.541987
C17   C     C_R   0.736989 0.997509 0.500782 0.537819
C18   C     C_R   0.402123 0.391773 0.903184 0.174430
C19   C     C_R   0.561321 0.615932 0.097182 0.151517
C20   C     C_R   0.713764 0.285849 0.663633 -0.163654
C21   C     C_R   0.270591 0.716139 0.340051 -0.158934
C22   C     C_R   0.691021 0.208834 0.629246 0.258876
C23   C     C_R   0.870269 0.995083 0.500742 -0.010133
C24   C     C_R   0.310875 0.798298 0.366700 0.255881
C25   C     C_R   0.507273 0.280104 0.516348 0.020644
C26   C     C_R   0.478521 0.711408 0.490134 0.015341
C27   C     C_R   0.535842 0.367263 0.537929 -0.011695
C28   C     C_R   0.434246 0.622546 0.472251 -0.016549
C29   C     C_R   0.632754 0.362273 0.621340 -0.019158
C30   C     C_R   0.334620 0.629628 0.390466 -0.022858
C31   C     C_R   0.468014 0.455274 0.485696 0.011974
C32   C     C_R   0.489910 0.529572 0.528262 0.007360
C33   C     C_R   0.565241 0.507025 0.625804 0.087369
C34   C     C_R   0.130478 0.002836 0.503560 -0.008691
C35   C     C_R   0.379626 0.473683 0.393196 0.083111
C36   C     C_R   0.642042 0.428662 0.666855 -0.087126
C37   C     C_R   0.305766 0.554037 0.354310 -0.111374
C38   C     C_R   0.287230 0.229907 0.656661 -0.123181
C39   C     C_R   0.794698 0.715515 0.396685 -0.134503
C40   C     C_R   0.242233 0.149497 0.627061 -0.069952
C41   C     C_R   0.816219 0.812035 0.396952 -0.096602
C42   C     C_R   0.160054 0.165738 0.534667 0.045717
C43   C     C_R   0.844253 0.824161 0.487963 0.063750
C44   C     C_R   0.123738 0.263233 0.472974 -0.127080
C45   C     C_R   0.917626 0.917316 0.491428 -0.034582
C46   C     C_R   0.845995 0.738742 0.578185 -0.104698
C47   C     C_R   0.163388 0.341651 0.505195 -0.120256
C48   C     C_R   0.825185 0.642457 0.577462 -0.124604
C49   C     C_R   0.246013 0.325429 0.596125 -0.104301
C50   C     C_R   0.798732 0.630614 0.486772 -0.103218
C51   C     C_R   0.954505 0.075010 0.512046 -0.148179
C52   C     C_R   0.045976 0.922882 0.492007 -0.150075
C53   C     C_3   0.203933 0.325371 0.831476 -0.315980
C54   C     C_3   0.552500 0.645158 0.242850 -0.289740
C55   C     C_3   0.627491 0.007991 0.876106 -0.283818
C56   C     C_R   0.083581 0.079790 0.515282 -0.030738
C57   C     C_3   0.610248 0.021776 0.184742 -0.295848
C58   C     C_R   0.478963 0.187969 0.205229 -0.016920
C59   C     C_R   0.511817 0.814413 0.794151 -0.008014
C60   C     C_R   0.448097 0.220601 0.027815 0.135503
Cu1   Cu    Cu3+1 0.466270 0.918260 0.475690 0.957990
Cu2   Cu    Cu3+1 0.533730 0.081740 0.524310 0.975734
H1    H     H_    0.278572 0.388038 0.617971 0.118974
H2    H     H_    0.191224 0.720979 0.278990 0.084157
H3    H     H_    0.351146 0.217670 0.727495 0.149557
H4    H     H_    0.782629 0.706809 0.327030 0.119892
H5    H     H_    0.267089 0.074265 0.677598 0.117357
H6    H     H_    0.822301 0.876868 0.327201 0.091914
H7    H     H_    0.057190 0.276686 0.403020 0.107353
H8    H     H_    0.874336 0.746633 0.649240 0.103951
H9    H     H_    0.129670 0.415131 0.459659 0.119505
H10   H     H_    0.834912 0.577274 0.647650 0.108759
H11   H     H_    0.920133 0.135089 0.520140 0.147530
H12   H     H_    0.784963 0.555860 0.486455 0.117694
H13   H     H_    0.079950 0.861533 0.485497 0.147293
H14   H     H_    0.492167 0.681619 0.765620 0.138449
H15   H     H_    0.499408 0.318414 0.238044 0.134230
H16   H     H_    0.361217 0.127143 0.958206 0.232055
H17   H     H_    0.519513 0.152763 0.960981 0.233114
H18   H     H_    0.463680 0.891578 0.007049 0.229356
H19   H     H_    0.408372 0.774793 0.065878 0.222297
H20   H     H_    0.233947 0.908914 0.239905 0.182182
H21   H     H_    0.150453 0.863990 0.332538 0.204293
H22   H     H_    0.864067 0.170731 0.644926 0.197900
H23   H     H_    0.373961 0.542982 0.803777 0.104561
H24   H     H_    0.796469 0.106006 0.745125 0.188275
H25   H     H_    0.468818 0.584434 0.668709 0.218768
H26   H     H_    0.631391 0.605897 0.693540 0.225751
H27   H     H_    0.304248 0.362938 0.341014 0.237263
H28   H     H_    0.462698 0.405414 0.331332 0.224658
H29   H     H_    0.351749 0.405005 0.757704 0.254255
H30   H     H_    0.161098 0.292816 0.775014 0.141940
H31   H     H_    0.153363 0.391396 0.814664 0.126439
H32   H     H_    0.191516 0.266821 0.906414 0.158440
H33   H     H_    0.682422 0.720413 0.146387 0.269209
H34   H     H_    0.587712 0.465936 0.200542 0.121436
H35   H     H_    0.558351 0.718832 0.248669 0.150403
H36   H     H_    0.590782 0.588468 0.317172 0.162065
H37   H     H_    0.451205 0.622887 0.219670 0.183238
H38   H     H_    0.430726 0.980407 0.840809 0.229080
H39   H     H_    0.628776 0.090685 0.832450 0.143137
H40   H     H_    0.712268 0.980613 0.870658 0.151959
H41   H     H_    0.632036 0.993362 0.955628 0.132250
H42   H     H_    0.415798 0.997904 0.186990 0.278253
H43   H     H_    0.610186 0.943452 0.191690 0.144340
H44   H     H_    0.650477 0.025088 0.258979 0.166280
H45   H     H_    0.704890 0.416300 0.738395 0.125128
H46   H     H_    0.670958 0.072623 0.130074 0.135304
H47   H     H_    0.235109 0.563744 0.286841 0.126138
H48   H     H_    0.563933 0.715963 0.542468 0.140371
H49   H     H_    0.421238 0.267317 0.469139 0.146087
H50   H     H_    0.792901 0.284954 0.723827 0.078094
N1    N     N_R   0.584450 0.204570 0.560790 -0.209878
N2    N     N_2   0.625787 0.653558 0.171163 -0.527834
N3    N     N_2   0.513064 0.958679 0.837126 -0.486160
N4    N     N_2   0.482141 0.050549 0.150308 -0.529616
N5    N     N_R   0.415550 0.795430 0.439210 -0.210942
N6    N     N_3   0.436207 0.183960 0.950826 -0.594262
N7    N     N_3   0.489389 0.818099 0.039743 -0.646254
N8    N     N_3   0.242157 0.885633 0.317146 -0.551178
N9    N     N_3   0.778406 0.134076 0.667154 -0.549975
N10   N     N_3   0.554409 0.552433 0.691115 -0.662270
N11   N     N_3   0.373628 0.423992 0.327793 -0.671104
N12   N     N_2   0.336951 0.356114 0.828145 -0.479448
O1    O     O_R   0.455540 0.022090 0.338120 -0.471970
O2    O     O_R   0.544460 0.977910 0.661880 -0.438848
O3    O     O_R   0.512510 0.160150 0.379180 -0.523945
O4    O     O_R   0.487490 0.839850 0.620820 -0.529374
O5    O     O_R   0.291160 0.930970 0.479480 -0.481741
O6    O     O_R   0.708840 0.069030 0.520520 -0.477612
O7    O     O_R   0.348130 0.069020 0.520540 -0.513782
O8    O     O_R   0.651870 0.930980 0.479460 -0.509864

loop_
_geom_bond_atom_site_label_1
_geom_bond_atom_site_label_2
_ccdc_geom_bond_type
C57   H43   S    
C34   C56   A    
C8    C13   A    
C23   C45   A    
C27   C29   A    
H28   N11   S    
Cu2   O6    S    
C4    N3    S    
C2    C4    A    
C26   N5    A    
H20   N8    S    
C52   H13   S    
C47   C49   A    
C38   C49   A    
C15   C19   A    
C55   H40   S    
C24   N5    A    
C17   C23   S    
C5    C58   A    
C49   H1    S    
C35   C37   A    
C1    O1    A    
C48   C50   A    
C3    N4    S    
C50   H12   S    
Cu2   O3    S    
C12   O2    A    
H33   N2    S    
H17   N6    S    
C55   H41   S    
C33   C36   A    
C51   C56   A    
Cu1   O4    S    
C16   O7    A    
C14   C18   A    
C21   H2    S    
Cu1   O8    S    
C16   C34   S    
C20   H50   S    
C12   C59   S    
C11   C15   A    
C22   N1    A    
C40   H5    S    
C54   H35   S    
C60   N6    S    
C41   H6    S    
C26   H48   S    
C37   H47   S    
C44   C47   A    
Cu1   O5    S    
C42   C56   S    
C3    C60   A    
C40   C42   A    
C57   H44   S    
C17   O6    A    
H18   N7    S    
H42   N4    S    
C13   C14   A    
C17   O8    A    
C41   C43   A    
H38   N3    S    
C42   C44   A    
C48   H10   S    
Cu2   O7    S    
C57   N4    S    
C20   C29   A    
C46   C48   A    
C24   N8    S    
C27   C31   A    
C1    O3    A    
C28   C32   A    
Cu2   N1    S    
C39   C41   A    
C15   H34   S    
C5    C7    A    
C6    C8    A    
H27   N11   S    
C19   N2    S    
H22   N9    S    
C53   H31   S    
C30   C37   A    
H21   N8    S    
C7    C11   A    
C25   N1    A    
C23   C51   A    
C31   C32   A    
C29   C36   A    
C38   H3    S    
C10   C19   A    
C57   H46   S    
H24   N9    S    
C44   H7    S    
C16   O5    A    
C43   C45   S    
C47   H9    S    
H26   N10   S    
C20   C22   A    
H29   N12   S    
C33   N10   S    
C39   H4    S    
C31   C35   A    
C54   H37   S    
C5    H15   S    
C2    C10   A    
C22   N9    S    
Cu2   O2    S    
C7    C9    A    
C55   H39   S    
H16   N6    S    
C53   H32   S    
C26   C28   A    
C6    C59   A    
C51   H11   S    
C14   H23   S    
C53   N12   S    
H25   N10   S    
C2    N7    S    
C6    H14   S    
C12   O4    A    
C25   C27   A    
C21   C30   A    
H19   N7    S    
C34   C52   A    
C45   C52   A    
C9    C60   A    
C32   C33   A    
C35   N11   S    
Cu1   N5    S    
C1    C58   S    
C38   C40   A    
C11   C13   A    
C55   N3    S    
C54   N2    S    
C4    C59   A    
C28   C30   A    
C53   H30   S    
Cu1   Cu2   S    
C43   C46   A    
C46   H8    S    
C25   H49   S    
C3    C58   A    
C9    C18   A    
C39   C50   A    
C8    C10   A    
C21   C24   A    
C54   H36   S    
Cu1   O1    S    
C18   N12   S    
C36   H45   S    
