data_mof_unit_56461.cif
_audit_creation_date              2012-12-10T17:15:11-0500
_audit_creation_method            fapswitch 2.2
_symmetry_space_group_name_H-M    P1
_symmetry_Int_Tables_number       1
_space_group_crystal_system       triclinic
_cell_length_a                    10.108249
_cell_length_b                    10.847546
_cell_length_c                    12.848931
_cell_angle_alpha                 92.009412
_cell_angle_beta                  91.496442
_cell_angle_gamma                 95.068139
_cell_volume                      1401.90616899

loop_
_atom_site_label
_atom_site_type_symbol
_atom_type_description
_atom_site_fract_x
_atom_site_fract_y
_atom_site_fract_z
_atom_type_partial_charge
C1    C     C_R   0.445180 0.267436 0.491135 0.976506
C2    C     C_R   0.607861 0.373057 0.034549 -0.069579
C3    C     C_R   0.394585 0.618075 0.855867 -0.072429
C4    C     C_R   0.606674 0.383233 0.143955 -0.069015
C5    C     C_R   0.527507 0.441433 0.868043 -0.280246
C6    C     C_R   0.472615 0.559127 0.131944 -0.281134
C7    C     C_R   0.534857 0.453786 0.975469 0.105110
C8    C     C_R   0.465779 0.547199 0.024462 0.105597
C9    C     C_2   0.415383 0.135453 0.478711 -0.328817
C10   C     C_2   0.588160 0.863883 0.500043 -0.336311
C11   C     C_2   0.516748 0.065080 0.476255 -0.077103
C12   C     C_R   0.555539 0.732397 0.504498 0.988525
C13   C     C_2   0.491858 0.933434 0.472603 -0.124829
C14   C     C_2   0.676563 0.295608 0.207539 0.509411
C15   C     C_2   0.325936 0.706428 0.792100 0.509858
C16   C     C_2   0.318559 0.724246 0.017736 0.348049
C17   C     C_2   0.683258 0.277628 0.982034 0.349078
C18   C     C_2   0.071310 0.490281 0.508405 -0.121680
C19   C     C_2   0.928682 0.509684 0.491561 -0.123008
C20   C     C_R   0.475412 0.509116 0.698467 0.937276
C21   C     C_R   0.524653 0.491037 0.301504 0.930619
C22   C     C_R   0.538048 0.477395 0.190774 -0.105386
C23   C     C_R   0.462275 0.523206 0.809161 -0.107722
C24   C     C_R   0.393289 0.628285 0.965299 -0.068019
H1    H     H_    0.867768 0.387599 0.595268 0.164571
H2    H     H_    0.619706 0.104171 0.482518 0.197314
H3    H     H_    0.688453 0.903862 0.520029 0.149050
H4    H     H_    0.312691 0.095875 0.472598 0.146264
H5    H     H_    0.900017 0.575657 0.435436 0.161721
H6    H     H_    0.099968 0.424285 0.564512 0.161751
H7    H     H_    0.132240 0.612426 0.404750 0.163533
H8    H     H_    0.426266 0.632499 0.172324 0.150225
H9    H     H_    0.573372 0.367698 0.827737 0.151329
H10   H     H_    0.774709 0.271837 0.186590 0.071404
H11   H     H_    0.228373 0.731680 0.813177 0.072382
H12   H     H_    0.255677 0.700127 0.082441 0.064579
H13   H     H_    0.745618 0.302077 0.917102 0.065354
H14   H     H_    0.391270 0.893951 0.452666 0.188965
N1    N     N_2   0.162330 0.550370 0.457540 -0.192716
N2    N     N_2   0.837670 0.449630 0.542460 -0.192977
O1    O     O_R   0.567930 0.307680 0.508550 -0.595857
O2    O     O_2   0.380039 0.755726 0.718513 -0.558581
O3    O     O_2   0.328982 0.831338 0.990578 -0.524022
O4    O     O_2   0.673965 0.170603 0.009376 -0.523582
O5    O     O_R   0.432070 0.692320 0.491450 -0.591104
O6    O     O_R   0.351090 0.340020 0.481290 -0.620844
O7    O     O_R   0.648910 0.659980 0.518710 -0.622010
O8    O     O_R   0.590490 0.486480 0.665020 -0.619169
O9    O     O_R   0.409510 0.513520 0.334980 -0.622274
O10   O     O_R   0.373660 0.518820 0.637760 -0.606252
O11   O     O_R   0.626340 0.481180 0.362240 -0.608164
O12   O     O_2   0.622869 0.245189 0.280753 -0.568643
Zn1   Zn    Zn3+2 0.644780 0.478400 0.518200 0.971070
Zn2   Zn    Zn3+2 0.355220 0.521600 0.481800 0.971936

loop_
_geom_bond_atom_site_label_1
_geom_bond_atom_site_label_2
_ccdc_geom_bond_type
C10   H3    S    
C14   H10   S    
C6    H8    S    
C18   N1    D    
C18   H6    S    
C4    C22   A    
C2    C4    A    
C2    C7    A    
C5    C23   A    
C20   C23   S    
C21   O11   A    
O7    Zn1   S    
O6    Zn2   S    
C6    C22   A    
C21   O9    A    
C13   H14   S    
C17   O4    D    
C1    C9    S    
C7    C8    A    
C16   C24   S    
C17   H13   S    
C21   C22   S    
C16   H12   S    
C2    C17   S    
C9    C11   D    
C16   O3    D    
O1    Zn1   S    
C3    C24   A    
O10   Zn2   S    
C10   C12   S    
C12   O7    A    
C6    C8    A    
C15   H11   S    
C8    C24   A    
H7    N1    S    
O5    Zn2   S    
N2    Zn1   S    
H1    N2    S    
C4    C14   S    
O8    Zn1   S    
C1    O6    A    
N1    Zn2   S    
C19   N2    D    
O9    Zn2   S    
C19   H5    S    
C11   C13   S    
C3    C15   S    
C15   O2    D    
C18   C19   S    
C1    O1    A    
C5    C7    A    
C20   O10   A    
C20   O8    A    
C11   H2    S    
C3    C23   A    
C14   O12   D    
C9    H4    S    
C12   O5    A    
O11   Zn1   S    
C10   C13   D    
C5    H9    S    
