data_mof_unit_62672.cif
_audit_creation_date              2013-03-05T16:10:02-0500
_audit_creation_method            fapswitch 2.2
_symmetry_space_group_name_H-M    P1
_symmetry_Int_Tables_number       1
_space_group_crystal_system       triclinic
_cell_length_a                    12.757514
_cell_length_b                    13.916121
_cell_length_c                    19.318468
_cell_angle_alpha                 90.165356
_cell_angle_beta                  93.172784
_cell_angle_gamma                 98.101032
_cell_volume                      3390.0788936

loop_
_atom_site_label
_atom_site_type_symbol
_atom_site_description
_atom_site_fract_x
_atom_site_fract_y
_atom_site_fract_z
_atom_type_partial_charge
O1    O     O_R   0.399110 0.356330 0.495750 -0.582653
O2    O     O_R   0.600890 0.643670 0.504250 -0.582651
O3    O     O_R   0.575900 0.366540 0.503170 -0.534801
O4    O     O_R   0.424100 0.633460 0.496830 -0.534792
C1    C     C_R   0.483446 0.315886 0.499286 0.838014
C2    C     C_R   0.516554 0.684114 0.500714 0.838023
O5    O     O_R   0.411580 0.494880 0.396430 -0.539973
O6    O     O_R   0.588420 0.505120 0.603570 -0.539970
O7    O     O_R   0.588360 0.505090 0.403850 -0.573865
O8    O     O_R   0.411640 0.494910 0.596150 -0.573865
C3    C     C_R   0.500523 0.503443 0.367257 0.846644
C4    C     C_R   0.499477 0.496557 0.632743 0.846641
Cu1   Cu    Cu3+1 0.395330 0.493960 0.495610 1.088967
Cu2   Cu    Cu3+1 0.604670 0.506040 0.504390 1.088967
C5    C     C_R   0.424633 0.556731 0.252879 0.314483
C6    C     C_R   0.575372 0.443274 0.747121 0.314487
C7    C     C_R   0.426251 0.560697 0.180196 0.374369
C8    C     C_R   0.573754 0.439308 0.819804 0.374367
C9    C     C_R   0.503210 0.516916 0.145910 -0.111089
C10   C     C_R   0.496791 0.483083 0.854091 -0.111089
C11   C     C_R   0.581072 0.475898 0.185049 -0.156015
C12   C     C_R   0.418925 0.524097 0.814951 -0.156019
H1    H     H_    0.640903 0.442679 0.159783 0.196775
H2    H     H_    0.359091 0.557311 0.840217 0.196777
C13   C     C_R   0.580597 0.473742 0.256935 -0.194584
C14   C     C_R   0.419399 0.526252 0.743065 -0.194589
H3    H     H_    0.640477 0.439576 0.285640 0.208774
H4    H     H_    0.359516 0.560414 0.714360 0.208778
C15   C     C_R   0.501666 0.511764 0.291387 -0.228039
C16   C     C_R   0.498334 0.488236 0.708613 -0.228042
N1    N     N_R   0.593412 0.517291 0.036891 -0.198958
N2    N     N_R   0.406588 0.482709 0.963109 -0.198961
N3    N     N_R   0.591950 0.508663 0.968245 -0.181783
N4    N     N_R   0.408050 0.491337 0.031755 -0.181784
C17   C     C_R   0.498538 0.490643 0.930145 0.406842
C18   C     C_R   0.501463 0.509357 0.069855 0.406839
C19   C     C_1   0.526240 0.787325 0.500945 -0.083618
C20   C     C_1   0.473760 0.212675 0.499055 -0.083626
C21   C     C_2   0.544180 0.978818 0.501390 0.382639
C22   C     C_2   0.455820 0.021182 0.498610 0.382641
C23   C     C_1   0.465065 0.125704 0.498844 -0.000284
C24   C     C_1   0.534935 0.874296 0.501156 -0.000281
N5    N     N_1   0.238030 0.484880 0.489000 -0.132511
N6    N     N_1   0.761970 0.515120 0.511000 -0.132510
C25   C     C_2   0.028299 0.475226 0.478192 0.106954
C26   C     C_2   0.971703 0.524786 0.521811 0.106944
C27   C     C_1   0.854406 0.518603 0.514856 0.334399
C28   C     C_1   0.145595 0.481402 0.485145 0.334418
N7    N     N_R   0.348909 0.604499 0.287225 0.160506
O9    O     O_R   0.381038 0.670632 0.334414 -0.342650
O10   O     O_R   0.249156 0.589638 0.266371 -0.242523
N8    N     N_R   0.651100 0.395513 0.712776 0.160507
O11   O     O_R   0.618977 0.329373 0.665590 -0.342645
O12   O     O_R   0.750854 0.410387 0.733627 -0.242530
O13   O     O_3   0.354766 0.611591 0.145102 -0.636373
H5    H     H_    0.385377 0.637239 0.101762 0.340755
O14   O     O_3   0.645243 0.388419 0.854898 -0.636374
H6    H     H_    0.614633 0.362767 0.898237 0.340755
O15   O     O_3   0.357173 0.964930 0.495544 -0.703154
H7    H     H_    0.302376 0.009015 0.493808 0.346435
O16   O     O_3   0.642827 0.035070 0.504456 -0.703158
H8    H     H_    0.697624 0.990984 0.506192 0.346435
N9    N     N_R   0.024763 0.585072 0.577861 0.133083
O17   O     O_R   0.978028 0.652984 0.604050 -0.297442
O18   O     O_R   0.112393 0.565416 0.608743 -0.339322
N10   N     N_R   0.975233 0.414948 0.422142 0.133060
O19   O     O_R   0.021933 0.346994 0.395977 -0.297454
O20   O     O_R   0.887652 0.434663 0.391225 -0.339301

loop_
_geom_bond_atom_site_label_1
_geom_bond_atom_site_label_2
_geom_bond_distance
_ccdc_geom_bond_type
N10   O20   1.301485 A    
O7    Cu2   1.941717 S    
N1    N3    1.330083 A    
Cu2   N6    1.989828 S    
C14   C16   1.399717 A    
C13   H3    1.083572 S    
N5    C28   1.171608 T    
C7    O13   1.381773 S    
C8    O14   1.381775 S    
N4    C18   1.357347 A    
N6    C27   1.171611 T    
O5    Cu1   1.938446 S    
C26   N9    1.445009 S    
O6    C4    1.285457 A    
C4    C16   1.471321 S    
O13   H5    0.989717 S    
N9    O18   1.301468 A    
N10   O19   1.301559 A    
C2    C19   1.424116 S    
O15   H7    0.992273 S    
C22   O15   1.383441 S    
C26   C27   1.485298 S    
Cu1   Cu2   2.648133 S    
O5    C3    1.285460 A    
O7    C3    1.288773 A    
O14   H6    0.989714 S    
O2    C2    1.281322 A    
O3    Cu2   1.924025 S    
O8    C4    1.288777 A    
O1    C1    1.281320 A    
O4    C2    1.284247 A    
C22   C23   1.442628 S    
N3    C17   1.357348 A    
C10   C12   1.401220 A    
C5    C15   1.416291 A    
C21   C24   1.442628 S    
C8    C10   1.418484 A    
C9    C18   1.471438 S    
C5    N7    1.436922 S    
C11   H1    1.083488 S    
C13   C15   1.399719 A    
O16   H8    0.992273 S    
C21   O16   1.383441 S    
C12   H2    1.083489 S    
O1    Cu1   1.922670 S    
C6    C16   1.416289 A    
N9    O17   1.301567 A    
C21   C22   1.342358 D    
N2    C17   1.356595 A    
O3    C1    1.284246 A    
Cu1   N5    1.989829 S    
C1    C20   1.424116 S    
N8    O11   1.301353 A    
C3    C15   1.471319 S    
C20   C23   1.199680 T    
C6    C8    1.406546 A    
N7    O9    1.301348 A    
C12   C14   1.389471 A    
C25   C28   1.485292 S    
O2    Cu2   1.922670 S    
C19   C24   1.199680 T    
C5    C7    1.406547 A    
N7    O10   1.301221 A    
C11   C13   1.389472 A    
N1    C18   1.356593 A    
C7    C9    1.418484 A    
O6    Cu2   1.938448 S    
C9    C11   1.401218 A    
C25   C26   1.382532 D    
C10   C17   1.471436 S    
C14   H4    1.083572 S    
C6    N8    1.436919 S    
O4    Cu1   1.924025 S    
N8    O12   1.301226 A    
C25   N10   1.444990 S    
O8    Cu1   1.941715 S    
N2    N4    1.330085 A    
