data_mof_unit_15368.cif
_audit_creation_date              2012-10-26T21:21:57-0400
_audit_creation_method            fapswitch 2.2
_symmetry_space_group_name_H-M    P1
_symmetry_Int_Tables_number       1
_space_group_crystal_system       triclinic
_cell_length_a                    18.035874
_cell_length_b                    18.527451
_cell_length_c                    11.765692
_cell_angle_alpha                 90.510774
_cell_angle_beta                  76.422065
_cell_angle_gamma                 90.243408
_cell_volume                      3821.56528887

loop_
_atom_site_label
_atom_site_type_symbol
_atom_type_description
_atom_site_fract_x
_atom_site_fract_y
_atom_site_fract_z
_atom_type_partial_charge
C1    C     C_R   0.400640 0.101178 0.521561 0.542251
C2    C     C_R   0.463255 0.996388 0.037155 -0.030187
C3    C     C_R   0.036745 0.503613 0.962845 -0.030187
C4    C     C_R   0.963255 0.496387 0.037155 -0.030172
C5    C     C_R   0.410018 0.992502 0.863151 0.037698
C6    C     C_R   0.589982 0.007502 0.136850 0.037858
C7    C     C_R   0.910018 0.492500 0.863150 0.037803
C8    C     C_R   0.089982 0.507499 0.136850 0.037741
C9    C     C_R   0.398825 0.993744 0.985550 0.029186
C10   C     C_R   0.601174 0.006262 0.014450 0.029213
C11   C     C_R   0.898825 0.493741 0.985550 0.029211
C12   C     C_R   0.599362 0.898824 0.478436 0.542428
C13   C     C_R   0.101175 0.506258 0.014450 0.029187
C14   C     C_R   0.543266 0.008549 0.839824 0.394653
C15   C     C_R   0.456734 0.991452 0.160175 0.394586
C16   C     C_R   0.043266 0.508548 0.839824 0.394607
C17   C     C_R   0.956734 0.491452 0.160175 0.394636
C18   C     C_R   0.647346 0.164664 0.470819 0.003415
C19   C     C_R   0.352694 0.835302 0.529171 0.003407
C20   C     C_R   0.347294 0.161148 0.534081 -0.011267
C21   C     C_R   0.652706 0.838851 0.465914 -0.011401
C22   C     C_R   0.147323 0.664685 0.470828 0.003426
C23   C     C_R   0.597298 0.102533 0.479805 0.558125
C24   C     C_R   0.852672 0.335320 0.529182 0.003392
C25   C     C_R   0.847292 0.661148 0.534089 -0.011352
C26   C     C_R   0.152706 0.338851 0.465921 -0.011326
C27   C     C_R   0.325543 0.707817 0.560297 -0.088727
C28   C     C_R   0.674550 0.292121 0.439453 -0.088719
C29   C     C_R   0.704426 0.725050 0.379190 -0.092978
C30   C     C_R   0.295517 0.274908 0.620894 -0.092993
C31   C     C_R   0.825453 0.207867 0.560567 -0.088731
C32   C     C_R   0.174463 0.792172 0.439715 -0.088718
C33   C     C_R   0.204476 0.225086 0.379117 -0.093017
C34   C     C_R   0.402726 0.897447 0.520189 0.558392
C35   C     C_R   0.795566 0.774943 0.620823 -0.092960
C36   C     C_R   0.372868 0.767065 0.566456 0.056730
C37   C     C_R   0.627243 0.232859 0.433313 0.056879
C38   C     C_R   0.655317 0.783281 0.381399 0.066156
C39   C     C_R   0.344645 0.216690 0.618652 0.066248
C40   C     C_R   0.872781 0.267118 0.566672 0.056789
C41   C     C_R   0.127157 0.732915 0.433529 0.056805
C42   C     C_R   0.155353 0.283308 0.381354 0.066190
C43   C     C_R   0.844679 0.716716 0.618608 0.066200
C44   C     C_R   0.287075 0.843131 0.486937 -0.112608
C45   C     C_R   0.900639 0.601177 0.521563 0.542354
C46   C     C_R   0.712891 0.156874 0.513251 -0.112582
C47   C     C_R   0.699464 0.835489 0.545101 -0.135248
C48   C     C_R   0.300562 0.164528 0.454857 -0.135092
C49   C     C_R   0.787113 0.343116 0.486782 -0.112595
C50   C     C_R   0.212932 0.656859 0.513088 -0.112601
C51   C     C_R   0.199433 0.335468 0.545150 -0.135168
C52   C     C_R   0.800531 0.664506 0.454907 -0.135184
C53   C     C_R   0.240277 0.784040 0.481645 0.025720
C54   C     C_R   0.759692 0.215969 0.518494 0.025710
C55   C     C_R   0.748799 0.777794 0.541681 0.026402
C56   C     C_R   0.099362 0.398823 0.478438 0.542341
C57   C     C_R   0.251214 0.222214 0.458298 0.026445
C58   C     C_R   0.740308 0.284023 0.481541 0.025729
C59   C     C_R   0.259726 0.715952 0.518380 0.025706
C60   C     C_R   0.248779 0.277779 0.541713 0.026440
C61   C     C_R   0.751192 0.722199 0.458330 0.026407
C62   C     C_2   0.556176 0.245490 0.393202 0.584997
C63   C     C_2   0.444011 0.754363 0.606352 0.585014
C64   C     C_2   0.394040 0.217598 0.702591 0.601862
C65   C     C_2   0.605912 0.782359 0.297478 0.601791
C66   C     C_2   0.056040 0.745587 0.393561 0.584987
C67   C     C_R   0.097286 0.602544 0.479808 0.558282
C68   C     C_2   0.943879 0.254451 0.606699 0.585024
C69   C     C_2   0.894092 0.717643 0.702521 0.601812
C70   C     C_2   0.105969 0.282406 0.297403 0.601836
C71   C     C_2   0.318780 0.998471 0.053905 0.640514
C72   C     C_2   0.681221 0.001542 0.946096 0.640485
C73   C     C_2   0.818779 0.498465 0.053904 0.640488
C74   C     C_2   0.181221 0.501534 0.946096 0.640510
C75   C     C_R   0.902715 0.397456 0.520192 0.558259
C76   C     C_R   0.536745 0.003615 0.962845 -0.030174
Cu1   Cu    Cu3+1 0.507800 1.000000 0.383250 1.033081
Cu2   Cu    Cu3+1 0.492200 0.000000 0.616750 1.033132
Cu3   Cu    Cu3+1 0.007800 0.500000 0.383250 1.033114
Cu4   Cu    Cu3+1 0.992200 0.500000 0.616750 1.033110
H1    H     H_    0.638548 0.010688 0.176077 0.172285
H2    H     H_    0.773128 0.395420 0.456616 0.131833
H3    H     H_    0.802507 0.621888 0.390367 0.139380
H4    H     H_    0.197428 0.378064 0.609734 0.139411
H5    H     H_    0.839962 0.155223 0.588621 0.158939
H6    H     H_    0.159905 0.844840 0.411815 0.158936
H7    H     H_    0.206348 0.182075 0.315267 0.142648
H8    H     H_    0.793723 0.817977 0.684625 0.142676
H9    H     H_    0.340096 0.655146 0.588191 0.159012
H10   H     H_    0.660035 0.344762 0.411393 0.158839
H11   H     H_    0.706268 0.682016 0.315388 0.142684
H12   H     H_    0.361452 0.989318 0.823923 0.172250
H13   H     H_    0.293644 0.317919 0.684744 0.142634
H14   H     H_    0.377340 0.003389 0.298724 0.361134
H15   H     H_    0.622660 0.996608 0.701277 0.361114
H16   H     H_    0.877340 0.503390 0.298724 0.361121
H17   H     H_    0.122660 0.496609 0.701277 0.361127
H18   H     H_    0.483462 0.211778 0.297031 0.346152
H19   H     H_    0.517089 0.788120 0.701879 0.346105
H20   H     H_    0.418012 0.174983 0.847031 0.348499
H21   H     H_    0.581869 0.825001 0.153113 0.348515
H22   H     H_    0.983122 0.711856 0.297752 0.346128
H23   H     H_    0.138548 0.510684 0.176077 0.172273
H24   H     H_    0.016785 0.288197 0.702522 0.346127
H25   H     H_    0.918139 0.675018 0.846897 0.348509
H26   H     H_    0.082003 0.325041 0.152976 0.348508
H27   H     H_    0.240750 0.052134 0.176119 0.346400
H28   H     H_    0.759257 0.947886 0.823883 0.346398
H29   H     H_    0.740747 0.552125 0.176117 0.346394
H30   H     H_    0.259253 0.447874 0.823882 0.346401
H31   H     H_    0.861452 0.489315 0.823923 0.172259
H32   H     H_    0.726873 0.104571 0.543424 0.131838
H33   H     H_    0.273038 0.895463 0.456931 0.131723
H34   H     H_    0.302567 0.121931 0.390272 0.139401
H35   H     H_    0.697487 0.878107 0.609640 0.139389
H36   H     H_    0.226965 0.604528 0.543100 0.131725
N1    N     N_R   0.519530 0.000000 0.207810 -0.246737
N2    N     N_R   0.480470 0.000000 0.792190 -0.246733
N3    N     N_R   0.019530 0.500000 0.207810 -0.246744
N4    N     N_R   0.980470 0.500000 0.792190 -0.246725
O1    O     O_R   0.430030 0.075530 0.417420 -0.523378
O2    O     O_R   0.583140 0.924490 0.385390 -0.472127
O3    O     O_R   0.583140 0.075510 0.385390 -0.466628
O4    O     O_R   0.416860 0.924490 0.614610 -0.466590
O5    O     O_R   0.916860 0.575510 0.614610 -0.472149
O6    O     O_R   0.083140 0.424490 0.385390 -0.472176
O7    O     O_R   0.083140 0.575510 0.385390 -0.466606
O8    O     O_R   0.916860 0.424490 0.614610 -0.466601
O9    O     O_3   0.387607 0.971514 0.229703 -0.654350
O10   O     O_3   0.612392 0.028487 0.770295 -0.654386
O11   O     O_3   0.887607 0.471514 0.229704 -0.654385
O12   O     O_R   0.569970 0.924470 0.582580 -0.523141
O13   O     O_3   0.112392 0.528487 0.770296 -0.654350
O14   O     O_2   0.519614 0.300771 0.422781 -0.478382
O15   O     O_R   0.532382 0.196415 0.318208 -0.655246
O16   O     O_2   0.480333 0.698915 0.577077 -0.478363
O17   O     O_R   0.468160 0.803563 0.680804 -0.655367
O18   O     O_2   0.444847 0.262608 0.692836 -0.472225
O19   O     O_R   0.380546 0.168994 0.795427 -0.664131
O20   O     O_2   0.555170 0.737285 0.307167 -0.472337
O21   O     O_R   0.619332 0.831012 0.204712 -0.664083
O22   O     O_2   0.019604 0.800953 0.423002 -0.478346
O23   O     O_R   0.569970 0.075530 0.582580 -0.486304
O24   O     O_R   0.032052 0.696450 0.318855 -0.655338
O25   O     O_2   0.980297 0.199066 0.577332 -0.478403
O26   O     O_R   0.967870 0.303608 0.681373 -0.655285
O27   O     O_2   0.944845 0.762708 0.692804 -0.472264
O28   O     O_R   0.880667 0.669007 0.795311 -0.664092
O29   O     O_2   0.055177 0.237383 0.307120 -0.472315
O30   O     O_R   0.119456 0.331030 0.204596 -0.664119
O31   O     O_2   0.271198 0.955799 0.034608 -0.478078
O32   O     O_R   0.296992 0.054055 0.136060 -0.679825
O33   O     O_2   0.728797 0.044221 0.965393 -0.478049
O34   O     O_R   0.430030 0.924470 0.417420 -0.486305
O35   O     O_R   0.703016 0.945960 0.863941 -0.679805
O36   O     O_2   0.771200 0.455789 0.034609 -0.478075
O37   O     O_R   0.796988 0.554048 0.136059 -0.679801
O38   O     O_2   0.228801 0.544208 0.965393 -0.478059
O39   O     O_R   0.203011 0.445951 0.863939 -0.679829
O40   O     O_R   0.930030 0.575530 0.417420 -0.523236
O41   O     O_R   0.069970 0.424470 0.582580 -0.523260
O42   O     O_R   0.069970 0.575530 0.582580 -0.486305
O43   O     O_R   0.930030 0.424470 0.417420 -0.486308
O44   O     O_R   0.416860 0.075510 0.614610 -0.472198

loop_
_geom_bond_atom_site_label_1
_geom_bond_atom_site_label_2
_ccdc_geom_bond_type
C62   O15   S    
Cu4   N4    S    
Cu2   O44   S    
C8    C13   A    
C31   H5    S    
C46   H32   S    
C17   O11   S    
C70   O30   S    
H17   O13   S    
H29   O37   S    
C25   C43   A    
C37   C62   S    
C53   C59   A    
C68   O26   S    
C48   C57   A    
C64   O18   D    
Cu1   Cu2   S    
C47   H35   S    
C39   C64   S    
C70   O29   D    
C74   O39   S    
H26   O30   S    
C50   C59   A    
C47   C55   A    
Cu2   N2    S    
C18   C37   A    
C30   H13   S    
Cu1   N1    S    
C52   C61   A    
C16   N4    A    
C14   O10   S    
C22   C41   A    
C66   O24   S    
Cu4   O5    S    
C73   O37   S    
C42   C70   S    
C31   C40   A    
C75   O43   A    
C75   O8    A    
C55   C61   A    
Cu2   O12   S    
Cu3   O7    S    
Cu1   O2    S    
C65   O20   D    
C10   C76   A    
C44   C53   A    
C3    C16   A    
C71   O31   D    
C21   C38   A    
C1    O44   A    
C45   O5    A    
C14   N2    A    
Cu3   N3    S    
C29   C38   A    
H15   O10   S    
C34   O4    A    
C32   C41   A    
C56   O6    A    
C36   C63   S    
C35   C43   A    
C6    N1    A    
C3    C13   A    
C22   C50   A    
C43   C69   S    
C6    H1    S    
C63   O17   S    
C23   O23   A    
C45   O40   A    
H22   O24   S    
C16   O13   S    
C18   C46   A    
C34   O34   A    
Cu4   O41   S    
C29   C61   A    
H14   O9    S    
C74   O38   D    
C35   C55   A    
C18   C23   S    
H24   O26   S    
C11   C73   S    
Cu3   O40   S    
C20   C39   A    
C57   C60   A    
C23   O3    A    
Cu4   O8    S    
H25   O28   S    
H18   O15   S    
C49   C58   A    
C15   N1    A    
C30   C60   A    
C14   C76   A    
C49   H2    S    
C52   H3    S    
C7    C11   A    
C5    C9    A    
Cu1   O3    S    
H20   O19   S    
C67   O7    A    
Cu1   O34   S    
C65   O21   S    
C35   H8    S    
C71   O32   S    
C15   O9    S    
C38   C65   S    
C32   H6    S    
C46   C54   A    
C4    C11   A    
C2    C15   A    
Cu4   O42   S    
C20   C48   A    
H16   O11   S    
C4    C17   A    
Cu3   O6    S    
C44   H33   S    
C69   O27   D    
H27   O32   S    
C3    C4    A    
C25   C45   S    
C32   C53   A    
C29   H11   S    
C2    C76   A    
C19   C44   A    
C26   C42   A    
C48   H34   S    
C54   C58   A    
C24   C49   A    
C33   C42   A    
C1    C20   S    
C33   C57   A    
C72   O33   D    
C12   O12   A    
H21   O21   S    
C7    N4    A    
C9    C71   S    
Cu3   O43   S    
C19   C34   S    
C26   C56   S    
C6    C10   A    
C56   O41   A    
C24   C75   S    
C41   C66   S    
C66   O22   D    
C28   C58   A    
C27   C36   A    
C5    N2    A    
C19   C36   A    
C63   O16   D    
C62   O14   D    
C33   H7    S    
C25   C52   A    
C27   C59   A    
Cu2   O23   S    
C67   O42   A    
H28   O35   S    
C28   C37   A    
C12   C21   S    
C73   O36   D    
C24   C40   A    
C7    H31   S    
C30   C39   A    
C27   H9    S    
C50   H36   S    
C31   C54   A    
C8    H23   S    
C1    O1    A    
C22   C67   S    
C5    H12   S    
Cu1   O1    S    
C17   N3    A    
Cu3   Cu4   S    
H30   O39   S    
C12   O2    A    
C13   C74   S    
C40   C68   S    
C72   O35   S    
C69   O28   S    
H19   O17   S    
C28   H10   S    
C51   C60   A    
C26   C51   A    
C2    C9    A    
C51   H4    S    
C68   O25   D    
C8    N3    A    
Cu2   O4    S    
C21   C47   A    
C64   O19   S    
C10   C72   S    
