data_mof_unit_8160.cif
_audit_creation_date              2012-12-10T18:12:39-0500
_audit_creation_method            fapswitch 2.2
_symmetry_space_group_name_H-M    P1
_symmetry_Int_Tables_number       1
_space_group_crystal_system       triclinic
_cell_length_a                    12.773717
_cell_length_b                    13.039454
_cell_length_c                    15.6805
_cell_angle_alpha                 93.386374
_cell_angle_beta                  101.482666
_cell_angle_gamma                 82.939251
_cell_volume                      2538.48703671

loop_
_atom_site_label
_atom_site_type_symbol
_atom_type_description
_atom_site_fract_x
_atom_site_fract_y
_atom_site_fract_z
_atom_type_partial_charge
C1    C     C_R   0.440791 0.690411 0.484155 0.867924
C2    C     C_3   0.503711 0.501619 0.917314 -0.001715
C3    C     C_3   0.507909 0.404910 0.024903 0.456299
C4    C     C_3   0.501295 0.502479 0.083931 0.004978
C5    C     C_3   0.593664 0.448407 0.985484 -0.196638
C6    C     C_3   0.587246 0.546042 0.045285 -0.207504
C7    C     C_1   0.503267 0.501466 0.826253 0.082295
C8    C     C_1   0.498485 0.501643 0.174327 0.119262
C9    C     C_R   0.722592 0.057770 0.461377 0.392569
C10   C     C_R   0.597393 0.195916 0.507261 -0.213562
C11   C     C_R   0.300664 0.839706 0.465082 -0.185056
C12   C     C_R   0.500561 0.500600 0.661440 0.877761
C13   C     C_R   0.265435 0.942099 0.445629 0.376389
C14   C     C_R   0.338836 0.006754 0.429208 -0.148707
C15   C     C_R   0.449680 0.968022 0.438687 0.069288
C16   C     C_R   0.476933 0.861067 0.436544 0.035972
C17   C     C_R   0.534939 0.030813 0.455588 0.113736
C18   C     C_R   0.640607 0.990300 0.444885 -0.044688
C19   C     C_R   0.659353 0.883505 0.421039 -0.025527
C20   C     C_R   0.575858 0.821693 0.414330 -0.125778
C21   C     C_R   0.517741 0.130596 0.490718 -0.163480
C22   C     C_R   0.704492 0.154997 0.504207 -0.040798
C23   C     C_R   0.560467 0.307928 0.511192 0.931706
C24   C     C_R   0.405553 0.797695 0.459790 -0.176573
C25   C     C_R   0.095982 0.333256 0.383561 -0.139507
C26   C     C_R   0.802204 0.633539 0.604073 -0.041498
C27   C     C_R   0.909753 0.642857 0.641797 0.381168
C28   C     C_R   0.990427 0.578849 0.612209 -0.186756
C29   C     C_R   0.966905 0.512307 0.539274 -0.004045
C30   C     C_R   0.857946 0.492934 0.510401 0.124622
C31   C     C_R   0.048136 0.463117 0.494339 0.037874
C32   C     C_R   0.025310 0.375386 0.439105 0.024952
C33   C     C_R   0.928090 0.337154 0.435527 -0.201683
C34   C     C_R   0.499137 0.500260 0.338582 0.917076
C35   C     C_R   0.841025 0.404011 0.453026 -0.047196
C36   C     C_R   0.149033 0.499728 0.497689 0.057003
C37   C     C_R   0.197348 0.367019 0.397318 0.016840
C38   C     C_3   0.410557 0.556250 0.015855 -0.228567
C39   C     C_3   0.497282 0.599152 0.976302 0.409847
C40   C     C_1   0.502199 0.501130 0.750685 -0.128148
C41   C     C_1   0.497696 0.500877 0.249495 -0.101890
C42   C     C_3   0.417158 0.457624 0.955567 -0.228366
H1    H     H_    0.441441 0.158611 0.508184 0.157094
H2    H     H_    0.244857 0.792368 0.482084 0.235346
H3    H     H_    0.590880 0.740978 0.395396 0.198995
H4    H     H_    0.256879 0.333887 0.360271 0.212046
H5    H     H_    0.912875 0.264332 0.401331 0.212225
H6    H     H_    0.335850 0.601036 0.029961 0.204064
H7    H     H_    0.071737 0.581784 0.647562 0.166377
H8    H     H_    0.347939 0.420806 0.917217 0.198233
N1    N     N_R   0.222180 0.444680 0.455580 -0.162788
N2    N     N_R   0.776980 0.554790 0.543960 -0.184104
O1    O     O_R   0.366730 0.627160 0.478790 -0.625996
O2    O     O_R   0.544830 0.662520 0.507160 -0.649178
O3    O     O_R   0.410960 0.482330 0.609040 -0.634301
O4    O     O_R   0.589060 0.517690 0.637410 -0.639957
O5    O     O_R   0.455170 0.337480 0.492840 -0.602310
O6    O     O_R   0.633270 0.372840 0.521210 -0.621929
O7    O     O_R   0.410940 0.482310 0.362590 -0.593356
O8    O     O_R   0.589040 0.517670 0.390960 -0.634523
Zn1   Zn    Zn3+2 0.381080 0.476390 0.481050 0.975489
Zn2   Zn    Zn3+2 0.618920 0.523610 0.518950 0.949537
Cl1   Cl    Cl    0.489611 0.728101 0.941849 -0.509817
C43   C     C_2   0.296453 0.107645 0.390839 0.481283
H9    H     H_    0.225488 0.149947 0.408643 0.096969
O9    O     O_2   0.339704 0.142971 0.338058 -0.496920
Cl2   Cl    Cl    0.128425 0.985796 0.441828 -0.477601
C44   C     C_2   0.062982 0.263575 0.306185 0.447812
H10   H     H_    0.983980 0.237658 0.290574 0.108906
O10   O     O_2   0.123478 0.236923 0.255635 -0.494646
C45   C     C_2   0.173167 0.602730 0.534169 0.418884
H11   H     H_    0.246342 0.611679 0.580972 0.104088
O11   O     O_2   0.110656 0.679205 0.511514 -0.532158
C46   C     C_2   0.717872 0.706964 0.633179 0.538823
H12   H     H_    0.652022 0.680535 0.655955 0.108713
O12   O     O_2   0.722028 0.799975 0.632646 -0.540445
Cl3   Cl    Cl    0.946975 0.730531 0.729531 -0.477081
C47   C     C_2   0.752680 0.397263 0.379136 0.501827
H13   H     H_    0.737669 0.456827 0.331214 0.113158
O13   O     O_2   0.705166 0.320378 0.364588 -0.555271
C48   C     C_2   0.682118 0.596346 0.093838 0.506652
H14   H     H_    0.736480 0.624624 0.058037 0.093324
O14   O     O_2   0.698789 0.605726 0.173111 -0.523493
C49   C     C_2   0.694756 0.388094 0.967046 0.520356
H15   H     H_    0.772387 0.410952 0.998480 0.052114
O15   O     O_2   0.690146 0.312942 0.916829 -0.490604
Cl4   Cl    Cl    0.514437 0.276068 0.059318 -0.449869
C50   C     C_2   0.796698 0.206130 0.555552 0.515682
H16   H     H_    0.783163 0.273524 0.597300 0.077141
O16   O     O_2   0.889813 0.169647 0.557621 -0.480292
C51   C     C_2   0.767556 0.827793 0.419717 0.549500
H17   H     H_    0.837164 0.849046 0.466027 0.147245
O17   O     O_2   0.779329 0.754386 0.369063 -0.512880
Cl5   Cl    Cl    0.836647 0.035360 0.411422 -0.462241

loop_
_geom_bond_atom_site_label_1
_geom_bond_atom_site_label_2
_ccdc_geom_bond_type
O6    Zn2   S    
C23   O6    A    
C3    C42   S    
C19   C20   A    
N1    Zn1   S    
C4    C8    S    
C48   H14   S    
C10   C22   A    
C34   C41   S    
C26   C27   A    
C46   O12   D    
C30   C35   A    
O8    Zn2   S    
C28   C29   A    
C49   O15   D    
C38   C42   S    
C5    C6    S    
C37   N1    A    
C47   O13   D    
C9    C22   A    
C15   C16   A    
C11   C24   A    
C23   O5    A    
C18   C19   A    
C1    O1    A    
C25   C37   A    
C21   H1    S    
O1    Zn1   S    
C2    C39   S    
C2    C7    S    
C44   H10   S    
C7    C40   T    
C22   C50   S    
C38   H6    S    
C20   H3    S    
C36   C45   S    
C25   C32   A    
C16   C24   A    
C6    C48   S    
C13   C14   A    
C34   O8    A    
C25   C44   S    
C48   O14   D    
C10   C21   A    
O7    Zn1   S    
C46   H12   S    
C3    Cl4   S    
C8    C41   T    
C4    C6    S    
C51   H17   S    
C45   O11   D    
C5    C49   S    
C47   H13   S    
O2    Zn2   S    
C27   Cl3   S    
C17   C21   A    
C43   O9    D    
C12   C40   S    
C1    O2    A    
C29   C30   A    
C26   N2    A    
C51   O17   D    
C28   H7    S    
C31   C32   A    
C14   C15   A    
C16   C20   A    
C14   C43   S    
C17   C18   A    
C11   H2    S    
C49   H15   S    
C12   O4    A    
C36   N1    A    
C42   H8    S    
C4    C38   S    
C34   O7    A    
C33   H5    S    
O4    Zn2   S    
C2    C5    S    
C3    C4    S    
C13   Cl2   S    
C15   C17   A    
C30   N2    A    
C6    C39   S    
C50   O16   D    
C3    C5    S    
O5    Zn1   S    
C10   C23   S    
C39   Cl1   S    
C35   C47   S    
C43   H9    S    
C45   H11   S    
C29   C31   A    
N2    Zn2   S    
C32   C33   A    
C11   C13   A    
C33   C35   A    
C38   C39   S    
C2    C42   S    
O3    Zn1   S    
C26   C46   S    
C12   O3    A    
C19   C51   S    
C9    C18   A    
C50   H16   S    
C1    C24   S    
C44   O10   D    
C27   C28   A    
C31   C36   A    
C37   H4    S    
C9    Cl5   S    
