data_mof_unit_31794.cif
_audit_creation_date              2012-12-11T16:56:16-0500
_audit_creation_method            fapswitch 2.2
_symmetry_space_group_name_H-M    P1
_symmetry_Int_Tables_number       1
_space_group_crystal_system       triclinic
_cell_length_a                    6.944823
_cell_length_b                    14.509592
_cell_length_c                    16.255478
_cell_angle_alpha                 90.517756
_cell_angle_beta                  89.938525
_cell_angle_gamma                 90.093141
_cell_volume                      1637.93844786

loop_
_atom_site_label
_atom_site_type_symbol
_atom_type_description
_atom_site_fract_x
_atom_site_fract_y
_atom_site_fract_z
_atom_type_partial_charge
O1    O     O_R   0.505830 0.583360 0.413880 -0.536608
O2    O     O_R   0.175830 0.595460 0.585520 -0.543754
O3    O     O_R   0.005520 0.416640 0.586120 -0.551246
C1    C     C_R   0.344221 0.615783 0.615538 0.720558
O4    O     O_R   0.176120 0.594390 0.414490 -0.524130
O5    O     O_R   0.005810 0.415570 0.413870 -0.537426
C2    C     C_R   0.345136 0.616681 0.386396 0.713045
O6    O     O_R   0.505540 0.584430 0.586130 -0.536557
O7    O     O_3   0.339200 0.441330 0.500000 -0.362989
V1    V     V_3+5 0.064350 0.510880 0.500000 1.494621
O8    O     O_R   0.676100 0.404540 0.414480 -0.538725
C3    C     C_R   0.845127 0.382385 0.385797 0.703662
O9    O     O_R   0.675810 0.405610 0.585510 -0.516275
C4    C     C_R   0.844973 0.381395 0.611650 0.686856
V2    V     V_3+5 0.564340 0.489120 0.500000 1.508079
O10   O     O_3   0.839360 0.558670 0.500000 -0.366781
C5    C     C_2   0.729969 0.203535 0.780489 0.262124
C6    C     C_2   0.881001 0.193571 0.832537 0.198566
C7    C     C_2   0.717456 0.285626 0.725100 0.272387
C8    C     C_2   0.858448 0.302898 0.669696 0.202288
C9    C     C_R   0.731415 0.178652 0.244636 -0.049548
C10   C     C_R   0.882839 0.180263 0.187642 -0.102496
C11   C     C_R   0.032291 0.244190 0.201904 -0.105385
H1    H     H_    0.153261 0.247540 0.160148 0.109603
C12   C     C_R   0.020581 0.308953 0.266861 -0.103543
H2    H     H_    0.133309 0.360038 0.273215 0.111759
C13   C     C_R   0.859108 0.311794 0.319533 -0.110958
C14   C     C_R   0.719637 0.242907 0.308976 -0.042600
C15   C     C_3   0.505464 0.251198 0.300383 0.194845
C16   C     C_3   0.518284 0.180597 0.230170 0.189078
H3    H     H_    0.480395 0.208698 0.168952 0.075115
C17   C     C_R   0.485824 0.752553 0.688610 0.047044
C18   C     C_R   0.350671 0.680966 0.686498 -0.259635
C19   C     C_R   0.215365 0.676938 0.752530 0.344535
C20   C     C_R   0.227211 0.740023 0.819470 0.333815
C21   C     C_R   0.376276 0.808019 0.822718 -0.268023
C22   C     C_R   0.498137 0.813924 0.754411 0.077118
C23   C     C_3   0.712478 0.818278 0.749174 -0.351746
C24   C     C_3   0.698946 0.751163 0.676899 -0.360261
H4    H     H_    0.762675 0.682606 0.689763 0.219628
H5    H     H_    0.742934 0.782119 0.617458 0.171939
C25   C     C_R   0.486132 0.757255 0.318019 -0.004451
C26   C     C_R   0.352382 0.685075 0.319227 -0.192231
C27   C     C_R   0.217816 0.681349 0.254703 -0.107536
C28   C     C_R   0.228007 0.741842 0.187162 0.325487
C29   C     C_R   0.375978 0.810564 0.183714 -0.172975
C30   C     C_R   0.497902 0.817940 0.252192 -0.039529
C31   C     C_3   0.712283 0.825559 0.257449 -0.381195
C32   C     C_3   0.700162 0.758597 0.329334 0.667153
H6    H     H_    0.785274 0.797157 0.201929 0.185724
O11   O     O_R   0.229930 0.912420 0.917160 -0.540914
O12   O     O_R   0.559420 0.902500 0.088780 -0.537332
O13   O     O_R   0.729660 0.081330 0.089380 -0.539095
C33   C     C_R   0.389871 0.879009 0.116129 0.718978
O14   O     O_R   0.559650 0.901420 0.917750 -0.531879
O15   O     O_R   0.729880 0.080250 0.917130 -0.515635
C34   C     C_R   0.390247 0.877707 0.890240 0.720405
O16   O     O_R   0.229700 0.913500 0.089410 -0.536417
O17   O     O_3   0.396250 0.055540 0.003280 -0.365968
V3    V     V_3+5 0.671130 0.986010 0.003260 1.502388
O18   O     O_R   0.059600 0.091310 0.917720 -0.550191
C35   C     C_R   0.890544 0.115418 0.891356 0.668936
O19   O     O_R   0.059370 0.092380 0.088750 -0.533478
C36   C     C_R   0.890634 0.114484 0.117433 0.697718
V4    V     V_3+5 0.171120 0.007820 0.003230 1.487412
O20   O     O_3   0.896130 0.938240 0.003240 -0.368969
O21   O     O_3   0.583257 0.138933 0.779761 -0.654861
H7    H     H_    0.489782 0.156092 0.736462 0.303556
O22   O     O_3   0.424397 0.096387 0.246312 -0.610375
H8    H     H_    0.500788 0.061033 0.286841 0.301096
O23   O     O_3   0.078356 0.608093 0.758116 -0.617750
H9    H     H_    0.122791 0.553111 0.727161 0.295211
O24   O     O_3   0.098481 0.727413 0.883142 -0.615042
H10   H     H_    0.155559 0.751804 0.934448 0.277317
H11   H     H_    0.783618 0.788533 0.804025 0.224091
H12   H     H_    0.764631 0.887763 0.731334 0.176380
H13   H     H_    0.112013 0.626522 0.253454 0.159791
O25   O     O_3   0.097999 0.726690 0.124414 -0.647530
H14   H     H_    0.148947 0.753695 0.073380 0.280027
H15   H     H_    0.758885 0.896216 0.275593 0.174475
O26   O     O_3   0.023323 0.260676 0.833307 -0.636630
H16   H     H_    0.115226 0.247977 0.878330 0.290727
O27   O     O_3   0.756185 0.799001 0.404238 -0.630048
H17   H     H_    0.722065 0.754153 0.447656 0.293587
O28   O     O_3   0.790508 0.673169 0.314941 -0.638197
H18   H     H_    0.741607 0.647409 0.262110 0.262434
O29   O     O_3   0.557941 0.342454 0.729148 -0.649930
H19   H     H_    0.474058 0.320836 0.774482 0.306998
O30   O     O_3   0.014003 0.243310 0.665210 -0.637026
H20   H     H_    0.096511 0.260553 0.618022 0.301790
H21   H     H_    0.460450 0.320888 0.280375 0.065185
O31   O     O_3   0.401840 0.220515 0.369588 -0.606740
H22   H     H_    0.475740 0.170850 0.396832 0.307083

loop_
_geom_bond_atom_site_label_1
_geom_bond_atom_site_label_2
_ccdc_geom_bond_type
O29   H19   S    
O19   V4    S    
O24   H10   S    
C7    C8    D    
C1    O6    A    
O26   H16   S    
C24   H5    S    
C23   H12   S    
C28   C29   A    
C14   C15   S    
C15   C16   S    
C27   H13   S    
C7    O29   S    
C33   O16   A    
C16   H3    S    
O13   C36   A    
V2    O10   S    
C6    O26   S    
C19   C20   A    
O11   V4    S    
C17   C24   S    
O12   V3    S    
O9    C4    A    
C29   C30   A    
O8    V2    S    
C30   C31   S    
C11   H1    S    
C28   O25   S    
O11   C34   A    
C2    C26   S    
O7    V1    S    
C31   H6    S    
V3    O20   S    
O17   V3    S    
O14   V3    S    
O22   H8    S    
O13   V3    S    
O12   C33   A    
C5    C6    D    
C23   H11   S    
C5    O21   S    
C3    C13   S    
O21   H7    S    
C4    C8    S    
C21   C34   S    
C24   H4    S    
O4    C2    A    
O25   H14   S    
C6    C35   S    
C12   H2    S    
O28   H18   S    
O15   V3    S    
C20   C21   A    
O2    C1    A    
C26   C27   A    
C22   C23   S    
C32   O28   S    
O16   V4    S    
O27   H17   S    
C29   C33   S    
C18   C19   A    
C17   C22   A    
O3    C4    A    
O1    V2    S    
C31   C32   S    
C9    C14   A    
O6    V2    S    
O14   C34   A    
O15   C35   A    
C25   C26   A    
O2    V1    S    
C15   H21   S    
C16   O22   S    
C27   C28   A    
C9    C16   S    
C1    C18   S    
C20   O24   S    
O1    C2    A    
O5    V1    S    
O8    C3    A    
C12   C13   A    
C8    O30   S    
C17   C18   A    
C31   H15   S    
O9    V2    S    
O7    V2    S    
O23   H9    S    
O3    V1    S    
V1    O10   S    
O17   V4    S    
O5    C3    A    
C32   O27   S    
C23   C24   S    
O31   H22   S    
C5    C7    S    
C25   C30   A    
C11   C12   A    
O18   C35   A    
C25   C32   S    
C10   C36   S    
O19   C36   A    
O18   V4    S    
O4    V1    S    
C21   C22   A    
V4    O20   S    
C13   C14   A    
C10   C11   A    
O30   H20   S    
C9    C10   A    
C19   O23   S    
C15   O31   S    
