data_mof_unit_30645.cif
_audit_creation_date              2012-12-10T17:43:18-0500
_audit_creation_method            fapswitch 2.2
_symmetry_space_group_name_H-M    P1
_symmetry_Int_Tables_number       1
_space_group_crystal_system       triclinic
_cell_length_a                    15.067548
_cell_length_b                    13.696802
_cell_length_c                    10.692889
_cell_angle_alpha                 89.189737
_cell_angle_beta                  92.153474
_cell_angle_gamma                 89.631325
_cell_volume                      2204.93612196

loop_
_atom_site_label
_atom_site_type_symbol
_atom_type_description
_atom_site_fract_x
_atom_site_fract_y
_atom_site_fract_z
_atom_type_partial_charge
C1    C     C_R   0.328753 0.500568 0.497039 0.830992
C2    C     C_R   0.671251 0.499626 0.503465 0.855557
C3    C     C_R   0.953325 0.512549 0.504784 0.018172
C4    C     C_R   0.046716 0.515784 0.502598 0.013424
C5    C     C_R   0.901432 0.535393 0.394877 -0.005250
C6    C     C_R   0.098267 0.494716 0.613491 -0.000686
C7    C     C_R   0.963492 0.477938 0.730238 0.367982
C8    C     C_R   0.035451 0.572082 0.283855 0.361532
C9    C     C_R   0.056418 0.480951 0.728378 -0.094606
C10   C     C_R   0.942803 0.563458 0.283789 -0.074269
C11   C     C_R   0.447769 0.792821 0.580484 0.070544
C12   C     C_R   0.552233 0.207179 0.419514 0.074241
C13   C     C_R   0.552490 0.793844 0.419869 0.073766
C14   C     C_R   0.447482 0.206149 0.580082 0.074440
C15   C     C_R   0.553485 0.896913 0.417603 -0.029051
C16   C     C_R   0.446496 0.103081 0.582353 -0.027769
C17   C     C_R   0.446668 0.895862 0.582593 -0.015478
C18   C     C_R   0.553326 0.104137 0.417385 -0.015586
C19   C     C_R   0.500031 0.948179 0.500034 0.088202
C20   C     C_R   0.499957 0.051817 0.499933 0.087925
C21   C     C_R   0.606399 0.949717 0.335210 -0.173377
C22   C     C_R   0.393585 0.050277 0.664750 -0.173528
C23   C     C_R   0.393673 0.947617 0.664876 -0.147617
C24   C     C_R   0.606318 0.052380 0.335096 -0.144388
C25   C     C_R   0.496977 0.500946 0.259250 0.882884
C26   C     C_R   0.503468 0.499020 0.740647 0.912249
C27   C     C_3   0.481220 0.591228 0.032731 -0.031663
C28   C     C_3   0.520428 0.408607 0.966927 -0.023367
C29   C     C_3   0.563890 0.560656 0.962831 -0.019238
C30   C     C_3   0.437802 0.439137 0.036792 -0.057360
C31   C     C_3   0.422158 0.527112 0.945955 -0.344677
C32   C     C_3   0.579555 0.472681 0.053827 -0.318086
C33   C     C_3   0.505581 0.496599 0.876876 -0.081689
C34   C     C_3   0.496017 0.503182 0.122913 -0.099948
C35   C     C_R   0.808788 0.535229 0.400779 -0.195774
C36   C     C_R   0.190759 0.488771 0.607357 -0.189631
C37   C     C_R   0.767921 0.499709 0.506277 -0.117661
C38   C     C_R   0.232047 0.503635 0.494928 -0.120729
C39   C     C_R   0.819047 0.467017 0.611655 -0.082038
C40   C     C_R   0.182011 0.526522 0.384578 -0.047367
C41   C     C_R   0.911656 0.484708 0.616499 -0.057903
C42   C     C_R   0.088610 0.539030 0.389329 -0.057160
Cu1   Cu    Cu3+1 0.500000 0.597420 0.500000 1.029732
Cu2   Cu    Cu3+1 0.500000 0.402580 0.500000 1.021390
H1    H     H_    0.357787 0.549354 0.900007 0.181522
H2    H     H_    0.644257 0.450503 0.099063 0.184419
H3    H     H_    0.766854 0.560821 0.322441 0.156148
H4    H     H_    0.232084 0.470164 0.689410 0.154048
H5    H     H_    0.406906 0.751568 0.643147 0.147595
H6    H     H_    0.593099 0.248434 0.356860 0.148479
H7    H     H_    0.593393 0.753358 0.357287 0.149174
H8    H     H_    0.406566 0.246628 0.642650 0.151432
H9    H     H_    0.647848 0.911639 0.270864 0.168936
H10   H     H_    0.352136 0.088354 0.729095 0.166981
H11   H     H_    0.352275 0.908721 0.729304 0.170810
H12   H     H_    0.647721 0.091276 0.270675 0.172469
N1    N     N_R   0.500000 0.743810 0.500000 -0.185411
N2    N     N_R   0.500000 0.256190 0.500000 -0.186506
O1    O     O_R   0.370260 0.582280 0.500030 -0.558846
O2    O     O_R   0.629740 0.417720 0.499970 -0.582044
O3    O     O_R   0.629740 0.582280 0.499970 -0.574816
O4    O     O_R   0.370260 0.417720 0.500030 -0.581980
O5    O     O_R   0.499980 0.582260 0.316850 -0.543605
O6    O     O_R   0.500020 0.417740 0.683150 -0.552206
O7    O     O_R   0.500020 0.582260 0.683150 -0.564503
O8    O     O_R   0.499980 0.417740 0.316850 -0.559638
C43   C     C_2   0.457111 0.696285 0.054362 0.869101
O9    O     O_2   0.450237 0.752648 0.964806 -0.592824
O10   O     O_R   0.441674 0.729471 0.174407 -0.721730
H13   H     H_    0.425953 0.801534 0.175389 0.337155
C44   C     C_2   0.543956 0.303372 0.945183 0.847956
O11   O     O_2   0.551619 0.247198 0.034854 -0.587272
O12   O     O_R   0.557798 0.269778 0.824856 -0.741739
H14   H     H_    0.573334 0.197669 0.823846 0.341113
C45   C     C_2   0.636194 0.630006 0.928584 0.873265
O13   O     O_2   0.675360 0.675435 0.011021 -0.594258
O14   O     O_R   0.658125 0.643173 0.803776 -0.717141
H15   H     H_    0.708145 0.691423 0.793479 0.338861
C46   C     C_2   0.366109 0.368802 0.069992 0.907101
O15   O     O_2   0.319298 0.333632 0.986594 -0.570803
O16   O     O_R   0.354326 0.341880 0.194672 -0.726257
H16   H     H_    0.304893 0.292781 0.204239 0.354660
C47   C     C_2   0.777373 0.408132 0.710698 0.889596
O17   O     O_2   0.810499 0.329804 0.744040 -0.519734
O18   O     O_R   0.702534 0.443271 0.768451 -0.768029
H17   H     H_    0.685963 0.400352 0.841556 0.338085
C48   C     C_2   0.226272 0.523863 0.263666 0.838136
O19   O     O_2   0.200065 0.467174 0.183343 -0.533234
O20   O     O_R   0.295232 0.588150 0.240084 -0.741533
H18   H     H_    0.314911 0.583610 0.150972 0.318806
O21   O     O_3   0.925261 0.478138 0.845567 -0.653881
H19   H     H_    0.874186 0.524171 0.839843 0.323150
O22   O     O_3   0.071733 0.615271 0.180434 -0.656058
H20   H     H_    0.117646 0.661426 0.211534 0.331565
C49   C     C_2   0.108103 0.478822 0.849563 0.974171
O23   O     O_2   0.093621 0.415957 0.928420 -0.460655
O24   O     O_R   0.171224 0.551028 0.874612 -0.771560
H21   H     H_    0.201131 0.543153 0.960543 0.358088
C50   C     C_2   0.890518 0.581137 0.164760 0.964336
O25   O     O_2   0.901177 0.655893 0.103415 -0.517202
O26   O     O_R   0.830463 0.510590 0.121824 -0.753964
H22   H     H_    0.799254 0.529977 0.039582 0.343132

loop_
_geom_bond_atom_site_label_1
_geom_bond_atom_site_label_2
_ccdc_geom_bond_type
C38   C40   A    
C48   O19   D    
O26   H22   S    
C27   C29   S    
O12   H14   S    
Cu2   O8    S    
C49   O23   D    
Cu1   Cu2   S    
C35   H3    S    
C1    O4    A    
C6    C9    A    
O24   H21   S    
Cu1   O5    S    
C39   C41   A    
O18   H17   S    
Cu2   O6    S    
C15   C19   A    
O22   H20   S    
C18   C24   A    
C40   C48   S    
C35   C37   A    
C8    C42   A    
C29   C32   S    
C1    O1    A    
C30   C31   S    
C2    O2    A    
C13   N1    A    
C29   C33   S    
C25   O5    A    
C26   O6    A    
C13   H7    S    
C14   H8    S    
C47   O17   D    
Cu2   N2    S    
C31   C33   S    
C9    C49   S    
C2    O3    A    
Cu1   O1    S    
C25   C34   S    
C12   N2    A    
C40   C42   A    
C22   H10   S    
C10   C50   S    
O16   H16   S    
C27   C34   S    
C14   N2    A    
C30   C34   S    
C27   C31   S    
C43   O9    D    
Cu1   O7    S    
C25   O8    A    
C28   C32   S    
C4    C6    A    
O21   H19   S    
C46   O16   S    
Cu2   O4    S    
O14   H15   S    
C43   O10   S    
C32   C34   S    
C45   O13   D    
C11   H5    S    
C26   C33   S    
C50   O25   D    
C16   C20   A    
C7    O21   S    
C17   C23   A    
C45   O14   S    
C1    C38   S    
C30   C46   S    
C47   O18   S    
C28   C33   S    
C13   C15   A    
C14   C16   A    
C28   C44   S    
C3    C4    A    
Cu1   O3    S    
C44   O12   S    
C7    C9    A    
C3    C41   A    
C16   C22   A    
C50   O26   S    
C26   O7    A    
C32   H2    S    
C8    O22   S    
C3    C5    A    
C11   C17   A    
C12   H6    S    
C49   O24   S    
C23   H11   S    
C29   C45   S    
C24   H12   S    
C19   C20   A    
C48   O20   S    
C39   C47   S    
C5    C10   A    
C37   C39   A    
C36   C38   A    
C21   H9    S    
C2    C37   S    
C4    C42   A    
Cu2   O2    S    
C5    C35   A    
C28   C30   S    
C17   C19   A    
C6    C36   A    
C36   H4    S    
C18   C20   A    
C7    C41   A    
O10   H13   S    
C27   C43   S    
Cu1   N1    S    
C46   O15   D    
C15   C21   A    
C44   O11   D    
C8    C10   A    
C31   H1    S    
C21   C24   A    
C12   C18   A    
C22   C23   A    
O20   H18   S    
C11   N1    A    
