data_mof_unit_13269.cif
_audit_creation_date              2012-12-10T19:35:01-0500
_audit_creation_method            fapswitch 2.2
_symmetry_space_group_name_H-M    P1
_symmetry_Int_Tables_number       1
_space_group_crystal_system       triclinic
_cell_length_a                    10.823515
_cell_length_b                    15.754421
_cell_length_c                    17.151219
_cell_angle_alpha                 96.437745
_cell_angle_beta                  90.140551
_cell_angle_gamma                 93.448454
_cell_volume                      2900.76665655

loop_
_atom_site_label
_atom_site_type_symbol
_atom_type_description
_atom_site_fract_x
_atom_site_fract_y
_atom_site_fract_z
_atom_type_partial_charge
C1    C     C_R   0.498850 0.489493 0.348870 0.909532
C2    C     C_R   0.473416 0.524849 0.902883 0.181892
C3    C     C_R   0.567153 0.424523 0.136948 -0.384494
C4    C     C_R   0.480493 0.599221 0.865937 -0.388932
C5    C     C_R   0.563986 0.423755 0.218349 0.359928
C6    C     C_R   0.483071 0.595858 0.784229 0.360592
C7    C     C_R   0.434931 0.750778 0.465426 -0.059244
C8    C     C_R   0.565519 0.249291 0.534361 -0.040910
C9    C     C_R   0.437847 0.840196 0.467931 -0.293615
C10   C     C_R   0.561754 0.159894 0.532571 -0.292875
C11   C     C_R   0.525293 0.891437 0.516146 0.352065
C12   C     C_R   0.495323 0.510388 0.651666 0.867906
C13   C     C_R   0.473011 0.108665 0.485346 0.347520
C14   C     C_R   0.606697 0.850263 0.560796 -0.453647
C15   C     C_R   0.391431 0.149806 0.440811 -0.449209
C16   C     C_R   0.262204 0.500004 0.509666 0.777484
C17   C     C_R   0.737644 0.499978 0.489963 0.811283
C18   C     C_R   0.600609 0.759360 0.557997 0.644184
C19   C     C_R   0.399191 0.240518 0.442315 0.614789
C20   C     C_R   0.097131 0.340671 0.516730 -0.083236
C21   C     C_R   0.902846 0.658931 0.480627 -0.078830
C22   C     C_R   0.032048 0.264369 0.488535 -0.145131
C23   C     C_R   0.494964 0.483764 0.263445 -0.288090
C24   C     C_R   0.968367 0.735403 0.507869 -0.148773
C25   C     C_R   0.922262 0.266444 0.446976 -0.179637
C26   C     C_R   0.077851 0.733743 0.549873 -0.176809
C27   C     C_R   0.872355 0.344653 0.439786 -0.133779
C28   C     C_R   0.127280 0.655677 0.558338 -0.157050
C29   C     C_R   0.932010 0.422351 0.474218 0.070197
C30   C     C_R   0.067684 0.577680 0.524437 0.069006
C31   C     C_R   0.053460 0.420896 0.503339 0.070559
C32   C     C_R   0.946327 0.578994 0.495082 0.065079
C33   C     C_R   0.873660 0.500827 0.479949 -0.229913
C34   C     C_R   0.483029 0.515638 0.737995 -0.306171
C35   C     C_R   0.126060 0.499133 0.518992 -0.237724
C36   C     C_3   0.743354 0.763389 0.662977 0.073127
C37   C     C_3   0.810125 0.703685 0.710254 -0.728369
C38   C     C_3   0.264160 0.236436 0.333796 0.042652
C39   C     C_3   0.208438 0.296775 0.281974 -0.790570
C40   C     C_3   0.317168 0.341479 0.722461 0.132995
C41   C     C_3   0.294490 0.252471 0.678653 -0.791470
C42   C     C_3   0.229889 0.545280 0.281420 0.102419
C43   C     C_3   0.138076 0.605841 0.320000 -0.770683
C44   C     C_3   0.556721 0.325563 0.890200 0.127693
C45   C     C_R   0.420560 0.538246 0.226771 0.226946
C46   C     C_3   0.538738 0.249361 0.937025 -0.810713
C47   C     C_3   0.405015 0.676268 0.117845 0.126896
C48   C     C_3   0.328543 0.731912 0.071932 -0.803107
C49   C     C_3   0.598964 0.283565 0.229697 0.109461
C50   C     C_3   0.651344 0.226083 0.285528 -0.814372
C51   C     C_3   0.371408 0.706885 0.756625 0.097563
C52   C     C_3   0.370023 0.782837 0.709257 -0.796389
C53   C     C_R   0.464960 0.439882 0.775028 0.229779
C54   C     C_R   0.425841 0.539708 0.145190 0.356525
C55   C     C_R   0.466572 0.444017 0.857277 0.341720
C56   C     C_R   0.499524 0.481308 0.099863 0.177172
Cu1   Cu    Cu3+1 0.493970 0.415220 0.496180 0.988892
Cu2   Cu    Cu3+1 0.506030 0.584780 0.503820 0.992190
H1    H     H_    0.126121 0.792961 0.574333 0.140702
H2    H     H_    0.211413 0.656912 0.592548 0.153046
H3    H     H_    0.624687 0.381425 0.101841 0.174139
H4    H     H_    0.484482 0.660825 0.901265 0.178629
H5    H     H_    0.627195 0.131636 0.568249 0.166841
H6    H     H_    0.372691 0.868473 0.432061 0.167657
H7    H     H_    0.677682 0.798745 0.702487 0.159905
H8    H     H_    0.814666 0.808348 0.640922 0.122223
H9    H     H_    0.877510 0.668110 0.672561 0.244338
H10   H     H_    0.860659 0.741348 0.760313 0.182241
H11   H     H_    0.742546 0.657071 0.733299 0.265232
H12   H     H_    0.874087 0.207414 0.421972 0.140200
H13   H     H_    0.187824 0.192931 0.352392 0.145335
H14   H     H_    0.332904 0.199133 0.298499 0.128034
H15   H     H_    0.282337 0.340643 0.261273 0.227913
H16   H     H_    0.161947 0.259358 0.230248 0.200250
H17   H     H_    0.139273 0.335152 0.315485 0.255030
H18   H     H_    0.274347 0.388247 0.688123 0.107229
H19   H     H_    0.270798 0.341912 0.780426 0.162556
H20   H     H_    0.193432 0.236116 0.672577 0.185301
H21   H     H_    0.335185 0.250312 0.619272 0.250679
H22   H     H_    0.337131 0.204506 0.711319 0.252324
H23   H     H_    0.674271 0.890232 0.596788 0.132542
H24   H     H_    0.243060 0.494683 0.320517 0.137326
H25   H     H_    0.189065 0.515339 0.224383 0.160252
H26   H     H_    0.121896 0.656891 0.282118 0.245594
H27   H     H_    0.048769 0.569848 0.328877 0.201975
H28   H     H_    0.174434 0.635660 0.377825 0.252920
H29   H     H_    0.636064 0.367593 0.916571 0.129262
H30   H     H_    0.580113 0.301091 0.829012 0.175263
H31   H     H_    0.462674 0.204771 0.910617 0.250757
H32   H     H_    0.625266 0.214860 0.936647 0.192054
H33   H     H_    0.515134 0.271378 0.998671 0.247801
H34   H     H_    0.322233 0.110165 0.405820 0.136879
H35   H     H_    0.500865 0.677763 0.094137 0.126918
H36   H     H_    0.407955 0.704370 0.180343 0.174659
H37   H     H_    0.233080 0.733470 0.095442 0.251460
H38   H     H_    0.371388 0.798164 0.077181 0.191372
H39   H     H_    0.324260 0.705906 0.008995 0.247175
H40   H     H_    0.635376 0.264402 0.170176 0.133695
H41   H     H_    0.496245 0.272524 0.228823 0.139841
H42   H     H_    0.618360 0.244071 0.345963 0.253023
H43   H     H_    0.620402 0.158346 0.266914 0.197579
H44   H     H_    0.754074 0.232401 0.285146 0.239716
H45   H     H_    0.179438 0.335678 0.551070 0.150017
H46   H     H_    0.352237 0.730130 0.818844 0.134604
H47   H     H_    0.295977 0.659212 0.733609 0.117075
H48   H     H_    0.381686 0.761203 0.646125 0.246585
H49   H     H_    0.280100 0.813023 0.716936 0.191593
H50   H     H_    0.445911 0.830996 0.729237 0.240962
H51   H     H_    0.632986 0.288100 0.571514 0.175510
H52   H     H_    0.368257 0.712017 0.427741 0.187745
H53   H     H_    0.820402 0.663428 0.446070 0.150340
H54   H     H_    0.068208 0.203639 0.497735 0.128917
H55   H     H_    0.932628 0.795994 0.497792 0.129381
H56   H     H_    0.787900 0.343932 0.406001 0.182971
N1    N     N_2   0.506967 0.474240 0.016924 -0.165400
N2    N     N_2   0.466978 0.534819 0.985852 -0.152569
N3    N     N_R   0.515100 0.712130 0.509560 -0.209829
N4    N     N_R   0.484900 0.287870 0.490440 -0.210176
N5    N     N_2   0.536431 0.983356 0.521514 -0.231034
N6    N     N_2   0.461493 0.016780 0.480300 -0.231351
O1    O     O_R   0.494360 0.420530 0.382500 -0.528976
O2    O     O_3   0.319916 0.285250 0.400038 -0.542777
O3    O     O_3   0.445995 0.360750 0.731376 -0.552960
O4    O     O_3   0.343201 0.591629 0.270518 -0.565870
O5    O     O_3   0.446460 0.369531 0.892539 -0.550041
O6    O     O_3   0.349853 0.592085 0.109869 -0.542605
O7    O     O_3   0.636102 0.369865 0.255150 -0.566713
O8    O     O_3   0.488396 0.671430 0.749868 -0.541930
O9    O     O_R   0.505640 0.579470 0.617500 -0.507841
O10   O     O_R   0.504550 0.563720 0.388950 -0.572809
O11   O     O_R   0.495450 0.436280 0.611050 -0.554975
O12   O     O_R   0.314560 0.428400 0.496770 -0.548568
O13   O     O_R   0.685440 0.571600 0.503230 -0.547737
O14   O     O_R   0.324750 0.571590 0.503220 -0.600531
O15   O     O_R   0.675250 0.428410 0.496780 -0.599921
O16   O     O_3   0.680164 0.714160 0.599734 -0.533257

loop_
_geom_bond_atom_site_label_1
_geom_bond_atom_site_label_2
_ccdc_geom_bond_type
C19   O2    S    
C23   C45   A    
C48   H37   S    
C37   H11   S    
C27   C29   A    
C9    H6    S    
C7    N3    A    
Cu1   O12   S    
C10   H5    S    
C42   H24   S    
C16   O14   A    
C41   H22   S    
C42   O4    S    
C46   H31   S    
Cu2   O14   S    
C15   C19   A    
C48   H39   S    
C54   O6    S    
C30   C35   A    
C51   O8    S    
C36   C37   S    
C12   O11   A    
C24   C26   A    
C2    C55   A    
C16   C35   S    
C38   C39   S    
C11   C14   A    
C36   H8    S    
Cu2   O9    S    
N1    N2    D    
C37   H10   S    
C4    H4    S    
C39   H16   S    
C14   C18   A    
C15   H34   S    
C2    N2    S    
C52   H49   S    
C55   O5    S    
C29   C33   A    
C22   C25   A    
C17   O15   A    
C18   O16   S    
C39   H17   S    
C44   H29   S    
C26   H1    S    
C3    H3    S    
C49   H40   S    
C11   N5    S    
C24   H55   S    
C45   O4    S    
C43   H26   S    
C17   C33   S    
C36   O16   S    
C21   H53   S    
C44   C46   S    
C54   C56   A    
C28   H2    S    
Cu2   O13   S    
C49   O7    S    
C21   C32   A    
C38   H14   S    
C44   O5    S    
C12   O9    A    
C8    N4    A    
C51   C52   S    
C43   H27   S    
C19   N4    A    
C4    C6    A    
C1    O10   A    
C53   O3    S    
C41   H20   S    
C20   H45   S    
C36   H7    S    
C46   H33   S    
C51   H46   S    
Cu1   O1    S    
Cu2   N3    S    
C6    C34   A    
C2    C4    A    
C49   H41   S    
C3    C56   A    
C47   C48   S    
C5    C23   A    
C51   H47   S    
C5    O7    S    
C47   H35   S    
C9    C11   A    
C18   N3    A    
C38   O2    S    
C50   H43   S    
C40   C41   S    
C20   C22   A    
C45   C54   A    
C1    C23   S    
C22   H54   S    
C13   C15   A    
C17   O13   A    
C31   C35   A    
C42   C43   S    
C53   C55   A    
C12   C34   S    
C13   N6    S    
C47   O6    S    
C7    C9    A    
C40   O3    S    
C38   H13   S    
C48   H38   S    
C43   H28   S    
C50   H42   S    
Cu1   O11   S    
C56   N1    S    
C42   H25   S    
C3    C5    A    
C10   C13   A    
C41   H21   S    
N5    N6    D    
C50   H44   S    
C46   H32   S    
C25   C27   A    
C26   C28   A    
C7    H52   S    
C32   C33   A    
C28   C30   A    
C6    O8    S    
C29   C31   A    
C8    H51   S    
C30   C32   A    
Cu1   Cu2   S    
Cu2   O10   S    
C37   H9    S    
C47   H36   S    
C39   H15   S    
C16   O12   A    
C1    O1    A    
C52   H48   S    
C27   H56   S    
C40   H18   S    
C52   H50   S    
C34   C53   A    
C8    C10   A    
C49   C50   S    
C21   C24   A    
C40   H19   S    
Cu1   O15   S    
C25   H12   S    
C14   H23   S    
C44   H30   S    
Cu1   N4    S    
C20   C31   A    
