data_mof_unit_61986.cif
_audit_creation_date              2012-12-10T19:45:05-0500
_audit_creation_method            fapswitch 2.2
_symmetry_space_group_name_H-M    P1
_symmetry_Int_Tables_number       1
_space_group_crystal_system       triclinic
_cell_length_a                    18.783395
_cell_length_b                    18.772509
_cell_length_c                    18.63873
_cell_angle_alpha                 109.35043
_cell_angle_beta                  109.457129
_cell_angle_gamma                 109.494212
_cell_volume                      5066.2725565

loop_
_atom_site_label
_atom_site_type_symbol
_atom_type_description
_atom_site_fract_x
_atom_site_fract_y
_atom_site_fract_z
_atom_type_partial_charge
C1    C     C_R   0.119716 0.000097 0.620190 1.036963
C2    C     C_R   0.934537 0.999163 0.169507 0.271174
C3    C     C_R   0.238851 0.246273 0.418841 0.470295
C4    C     C_R   0.313480 0.313031 0.500052 -0.199227
C5    C     C_R   0.324226 0.315216 0.579476 0.040147
C6    C     C_R   0.259453 0.250304 0.577271 0.701432
C7    C     C_R   0.184421 0.184965 0.497450 -0.283288
C8    C     C_R   0.172536 0.181977 0.417614 -0.195499
C9    C     C_R   0.468000 0.372122 0.708571 0.521764
C10   C     C_R   0.540664 0.439272 0.789960 0.427219
C11   C     C_R   0.546550 0.520249 0.829401 0.386522
C12   C     C_R   0.118981 0.119776 0.498745 0.980722
C13   C     C_R   0.479696 0.534206 0.787650 0.427443
C14   C     C_R   0.407067 0.467405 0.706046 0.426435
C15   C     C_R   0.401019 0.386072 0.665905 -0.297489
C16   C     C_R   0.270462 0.041978 0.705550 -0.181629
C17   C     C_R   0.184969 0.001721 0.687548 -0.327524
C18   C     C_R   0.166065 0.976610 0.744830 0.589191
C19   C     C_R   0.230772 0.978687 0.811025 0.587053
C20   C     C_R   0.314435 0.007300 0.820042 -0.260746
C21   C     C_R   0.334653 0.044818 0.771166 -0.200612
C22   C     C_3   0.382162 0.032846 0.721654 0.449350
C23   C     C_R   0.880548 0.000640 0.379859 0.895799
C24   C     C_3   0.310322 0.028640 0.648161 0.959123
C25   C     C_R   0.804216 0.734047 0.476128 -0.134089
C26   C     C_R   0.812467 0.815437 0.499272 -0.137437
C27   C     C_R   0.754006 0.832813 0.523579 -0.216506
C28   C     C_R   0.689197 0.767770 0.523153 0.649802
C29   C     C_R   0.684443 0.686262 0.500377 -0.159402
C30   C     C_R   0.743668 0.672406 0.478015 -0.189460
C31   C     C_3   0.771748 0.607784 0.447752 0.630429
C32   C     C_3   0.841904 0.679456 0.447009 1.107520
C33   C     C_R   0.736993 0.923285 0.250352 -0.255074
C34   C     C_R   0.879258 0.880196 0.499525 0.928014
C35   C     C_R   0.813755 0.001000 0.315286 -0.199928
C36   C     C_R   0.820131 0.080604 0.324238 0.666752
C37   C     C_R   0.755944 0.080287 0.259408 -0.237770
C38   C     C_R   0.684374 0.000676 0.188098 -0.155400
C39   C     C_R   0.672450 0.923207 0.187648 -0.033522
C40   C     C_3   0.649922 0.838558 0.116753 0.892621
C41   C     C_3   0.720993 0.838159 0.186529 0.892125
C42   C     C_R   0.502193 0.622067 0.620247 0.891292
C43   C     C_R   0.379870 0.380096 0.500566 1.010425
C44   C     C_R   0.501843 0.381733 0.379682 0.945553
C45   C     C_R   0.001322 0.978129 0.195374 0.388132
C46   C     C_R   0.619703 0.619362 0.499337 0.916573
C47   C     C_R   0.500541 0.119950 0.120513 0.956332
C48   C     C_R   0.379868 0.001253 0.880817 1.011852
C49   C     C_R   0.500604 0.879929 0.880576 0.969908
C50   C     C_R   0.619823 0.999255 0.119575 0.947750
C51   C     C_R   0.428452 0.673735 0.689937 -0.129696
C52   C     C_R   0.505119 0.689769 0.687216 -0.174005
C53   C     C_R   0.585045 0.765730 0.756733 0.500254
C54   C     C_R   0.583290 0.827091 0.822337 -0.057212
C55   C     C_R   0.503872 0.813539 0.818591 -0.145442
C56   C     C_R   0.077087 0.035472 0.277976 0.431945
C57   C     C_R   0.428022 0.734393 0.755709 -0.088256
C58   C     C_3   0.340552 0.716656 0.695271 1.002529
C59   C     C_3   0.341534 0.650746 0.622193 1.050879
C60   C     C_R   0.430331 0.260506 0.232391 -0.173995
C61   C     C_R   0.506637 0.321169 0.312784 -0.257179
C62   C     C_R   0.585497 0.320657 0.325950 0.400982
C63   C     C_R   0.582228 0.252720 0.262190 0.658783
C64   C     C_R   0.502391 0.186632 0.186848 -0.213762
C65   C     C_R   0.428264 0.194017 0.169851 -0.353038
C66   C     C_3   0.338396 0.129557 0.143878 0.935780
C67   C     C_R   0.088505 0.116334 0.334213 -0.267192
C68   C     C_3   0.340863 0.203368 0.213076 1.059602
C69   C     C_R   0.022346 0.137731 0.306288 0.384782
C70   C     C_R   0.946982 0.078972 0.224675 -0.178498
H1    H     H_    0.447513 0.090650 0.753538 0.136513
H2    H     H_    0.757812 0.895637 0.541807 0.202791
H3    H     H_    0.762958 0.141500 0.263774 0.232332
H4    H     H_    0.643358 0.886931 0.873949 0.200350
H5    H     H_    0.896454 0.095364 0.203993 0.224386
O1    O     O_R   0.091630 0.948280 0.539910 -0.581500
O2    O     O_R   0.551690 0.591610 0.643360 -0.643495
O3    O     O_R   0.356650 0.408410 0.448330 -0.536360
O4    O     O_R   0.460080 0.408380 0.551740 -0.646384
O5    O     O_R   0.448280 0.408420 0.356720 -0.578686
O6    O     O_R   0.551710 0.408390 0.460130 -0.607500
O7    O     O_R   0.539890 0.591650 0.448340 -0.598414
O8    O     O_R   0.643320 0.591620 0.551750 -0.595215
O9    O     O_R   0.551740 0.143400 0.091610 -0.600384
O10   O     O_R   0.448290 0.040010 0.091660 -0.564190
O11   O     O_R   0.460120 0.051750 0.908410 -0.624192
O12   O     O_R   0.091590 0.051710 0.643320 -0.585684
O13   O     O_R   0.356670 0.948360 0.908460 -0.544161
O14   O     O_R   0.551710 0.960090 0.908440 -0.620530
O15   O     O_R   0.448260 0.856700 0.908490 -0.572294
O16   O     O_R   0.643330 0.051740 0.091640 -0.614729
O17   O     O_R   0.539880 0.948350 0.091690 -0.595224
O18   O     O_R   0.091640 0.039900 0.448300 -0.615334
O19   O     O_R   0.091600 0.143340 0.551710 -0.567628
O20   O     O_R   0.908410 0.948290 0.356680 -0.609152
O21   O     O_R   0.908370 0.051720 0.460090 -0.579963
O22   O     O_R   0.908400 0.856660 0.448290 -0.581353
O23   O     O_R   0.908360 0.960100 0.551700 -0.622592
O24   O     O_R   0.448260 0.591640 0.539950 -0.547056
Zn1   Zn    Zn3+2 0.000030 0.930940 0.430950 1.188907
Zn2   Zn    Zn3+2 0.999970 0.069060 0.569050 1.154244
Zn3   Zn    Zn3+2 0.430920 0.500040 0.430990 1.207126
Zn4   Zn    Zn3+2 0.569050 0.499990 0.569090 1.112572
Zn5   Zn    Zn3+2 0.569070 0.069080 0.000020 1.113826
Zn6   Zn    Zn3+2 0.430930 0.931020 0.000080 1.233912
O25   O     O_3   0.856327 0.944044 0.091651 -0.650768
H6    H     H_    0.844814 0.883464 0.070869 0.409857
F1    F     F_    0.616909 0.585148 0.908431 -0.499976
F2    F     F_    0.485053 0.612383 0.826755 -0.550822
F3    F     F_    0.342117 0.481292 0.666563 -0.545663
F4    F     F_    0.084300 0.945569 0.733364 -0.571160
F5    F     F_    0.210710 0.949970 0.863410 -0.535283
F6    F     F_    0.382541 0.954944 0.699987 -0.573887
F7    F     F_    0.339671 0.098137 0.634168 -0.572102
O26   O     O_3   0.258792 0.947973 0.569483 -0.644658
H7    H     H_    0.233435 0.901539 0.582542 0.366176
O27   O     O_3   0.996367 0.903489 0.141133 -0.618680
H8    H     H_    0.961569 0.887456 0.079403 0.362984
F8    F     F_    0.632749 0.784642 0.546092 -0.624433
O28   O     O_3   0.805705 0.586619 0.511734 -0.660052
H9    H     H_    0.832173 0.552742 0.490426 0.404080
O29   O     O_3   0.708390 0.533722 0.364748 -0.741801
H10   H     H_    0.679962 0.552772 0.325590 0.352300
F9    F     F_    0.926674 0.711782 0.509880 -0.588405
F10   F     F_    0.831283 0.661156 0.364608 -0.615811
F11   F     F_    0.890447 0.157875 0.392259 -0.587675
O30   O     O_3   0.565202 0.772840 0.083428 -0.696284
H11   H     H_    0.557496 0.719259 0.039312 0.403077
F12   F     F_    0.666911 0.846457 0.051978 -0.620514
O31   O     O_3   0.689038 0.771765 0.205298 -0.715662
H12   H     H_    0.739791 0.782774 0.256059 0.360065
O32   O     O_3   0.139568 0.010973 0.299115 -0.605641
H13   H     H_    0.188944 0.054512 0.359124 0.374676
F13   F     F_    0.790192 0.843855 0.172568 -0.612425
O33   O     O_3   0.664467 0.785282 0.760663 -0.685994
H14   H     H_    0.655176 0.747588 0.702896 0.352761
F14   F     F_    0.277660 0.679996 0.714919 -0.550227
F15   F     F_    0.342443 0.787355 0.685985 -0.586086
F16   F     F_    0.278111 0.565567 0.586517 -0.537620
F17   F     F_    0.345467 0.673644 0.559616 -0.584066
O34   O     O_3   0.665606 0.382172 0.399993 -0.630284
H15   H     H_    0.664412 0.436065 0.428392 0.379996
F18   F     F_    0.656480 0.249425 0.275419 -0.598050
O35   O     O_3   0.275113 0.096922 0.057050 -0.649524
H16   H     H_    0.286863 0.145229 0.043638 0.333085
O36   O     O_3   0.028586 0.215531 0.355308 -0.629516
H17   H     H_    0.080719 0.249242 0.414295 0.379439
F19   F     F_    0.336102 0.063705 0.162835 -0.549906
F20   F     F_    0.282102 0.228703 0.179904 -0.621140
F21   F     F_    0.340643 0.191411 0.282473 -0.608576
O37   O     O_3   0.233610 0.246536 0.342918 -0.644056
H18   H     H_    0.183539 0.191883 0.290130 0.377517
F22   F     F_    0.269338 0.250798 0.653220 -0.602721
F23   F     F_    0.463115 0.293871 0.670870 -0.515684
F24   F     F_    0.605449 0.425785 0.830731 -0.504169

loop_
_geom_bond_atom_site_label_1
_geom_bond_atom_site_label_2
_ccdc_geom_bond_type
C1    O12   A    
C66   C68   S    
C40   F12   S    
C24   F7    S    
C16   C21   A    
O3    Zn3   S    
O27   H8    S    
C32   F9    S    
C19   C20   A    
C53   O33   S    
O16   Zn5   S    
O11   Zn5   S    
C7    C8    A    
C19   F5    S    
C52   C53   A    
C43   O3    A    
C26   C27   A    
C33   C39   A    
O8    Zn4   S    
C5    C6    A    
C47   O10   A    
C21   C22   S    
C36   C37   A    
C37   C38   A    
C41   O31   S    
C66   O35   S    
O25   H6    S    
C43   O4    A    
O26   H7    S    
C34   O22   A    
C23   O21   A    
C18   C19   A    
C42   O2    A    
C13   F2    S    
C68   F20   S    
C33   C35   A    
C54   H4    S    
C26   C34   S    
C22   F6    S    
C35   C36   A    
C45   C56   A    
C16   C17   A    
O37   H18   S    
C48   O13   A    
C51   C57   A    
C9    C10   A    
C49   O15   A    
C66   F19   S    
C58   F15   S    
C25   C32   S    
O33   H14   S    
C16   C24   S    
C46   O7    A    
C13   C14   A    
C69   O36   S    
C12   O19   A    
C61   C62   A    
O10   Zn6   S    
C41   F13   S    
O4    Zn4   S    
C2    C45   A    
C7    C12   S    
C51   C52   A    
C44   O5    A    
C18   F4    S    
O19   Zn2   S    
C3    C8    A    
C47   C64   S    
O20   Zn1   S    
O32   H13   S    
C58   C59   S    
C53   C54   A    
C40   O30   S    
C42   O24   A    
C2    O25   S    
C46   O8    A    
O5    Zn3   S    
C60   C61   A    
C67   C69   A    
C32   F10   S    
C29   C30   A    
C50   O16   A    
C31   C32   S    
C59   F16   S    
C30   C31   S    
C62   C63   A    
C17   C18   A    
O7    Zn3   S    
C56   O32   S    
C47   O9    A    
O18   Zn1   S    
C20   C48   S    
C8    C67   S    
C58   F14   S    
C50   O17   A    
C40   C41   S    
C9    F23   S    
C44   O6    A    
C23   C35   S    
C55   C57   A    
O14   Zn5   S    
O9    Zn5   S    
C22   C24   S    
C12   O18   A    
O2    Zn4   S    
C51   C59   S    
O12   Zn2   S    
O30   H11   S    
C56   C67   A    
C22   H1    S    
C39   C40   S    
O22   Zn1   S    
O28   H9    S    
O36   H17   S    
O6    Zn4   S    
C45   O27   S    
C25   C30   A    
C14   F3    S    
C37   H3    S    
C54   C55   A    
C28   C29   A    
C31   O29   S    
C1    O1    A    
C3    O37   S    
C36   F11   S    
O15   Zn6   S    
C49   O14   A    
O35   H16   S    
C28   F8    S    
C10   F24   S    
C60   C65   A    
C6    C7    A    
C38   C50   S    
C4    C43   S    
C44   C61   S    
O1    Zn1   S    
O23   Zn2   S    
C1    C17   S    
C29   C46   S    
C33   C41   S    
C64   C65   A    
O31   H12   S    
C25   C26   A    
C49   C55   S    
O34   H15   S    
O13   Zn6   S    
C11   C13   A    
C57   C58   S    
C38   C39   A    
C2    C70   A    
C59   F17   S    
C34   O23   A    
C23   O20   A    
C48   O11   A    
C9    C15   A    
C69   C70   A    
C31   O28   S    
C5    C15   S    
C6    F22   S    
C68   F21   S    
C10   C11   A    
C63   C64   A    
O17   Zn6   S    
C4    C5    A    
O24   Zn3   S    
C20   C21   A    
C60   C68   S    
C24   O26   S    
C65   C66   S    
C11   F1    S    
C63   F18   S    
C14   C15   A    
C70   H5    S    
C62   O34   S    
O29   H10   S    
O21   Zn2   S    
C27   H2    S    
C3    C4    A    
C42   C52   S    
C27   C28   A    
