data_mof_unit_28082.cif
_audit_creation_date              2012-12-11T14:52:34-0500
_audit_creation_method            fapswitch 2.2
_symmetry_space_group_name_H-M    P1
_symmetry_Int_Tables_number       1
_space_group_crystal_system       triclinic
_cell_length_a                    18.959788
_cell_length_b                    10.970075
_cell_length_c                    18.750032
_cell_angle_alpha                 89.837813
_cell_angle_beta                  90.38223
_cell_angle_gamma                 89.994787
_cell_volume                      3899.72228499

loop_
_atom_site_label
_atom_site_type_symbol
_atom_type_description
_atom_site_fract_x
_atom_site_fract_y
_atom_site_fract_z
_atom_type_partial_charge
Br1   Br    Br    0.332020 0.836423 0.977312 -0.568326
Br2   Br    Br    0.890509 0.733311 0.073250 -0.526974
Br3   Br    Br    0.609325 0.233064 0.926352 -0.527441
Br4   Br    Br    0.390509 0.233311 0.073250 -0.526971
Br5   Br    Br    0.576759 0.594795 0.616700 -0.399297
Br6   Br    Br    0.572639 0.555852 0.444441 -0.379457
Br7   Br    Br    0.076753 0.094787 0.616698 -0.399292
Br8   Br    Br    0.072636 0.055849 0.444439 -0.379479
Br9   Br    Br    0.668067 0.836829 0.022609 -0.575843
Br10  Br    Br    0.832021 0.336423 0.977312 -0.568327
Br11  Br    Br    0.168067 0.336829 0.022609 -0.575843
Br12  Br    Br    0.386924 0.453034 0.580411 -0.407585
Br13  Br    Br    0.777036 0.359918 0.387405 -0.488203
Br14  Br    Br    0.886933 0.953056 0.580406 -0.407586
Br15  Br    Br    0.277115 0.859939 0.387404 -0.488213
Br16  Br    Br    0.109325 0.733064 0.926352 -0.527442
C1    C     C_R   0.271369 0.044546 0.852815 0.568249
C2    C     C_R   0.697166 0.537953 0.037116 -0.101245
C3    C     C_3   0.011414 0.327743 0.068927 0.028016
C4    C     C_R   0.802879 0.038025 0.963149 -0.101039
C5    C     C_R   0.197166 0.037953 0.037116 -0.101245
C6    C     C_R   0.301788 0.531262 0.037474 -0.085679
C7    C     C_R   0.698290 0.530885 0.962793 -0.085956
C8    C     C_R   0.801788 0.031262 0.037474 -0.085679
C9    C     C_R   0.198290 0.030885 0.962793 -0.085956
C10   C     C_R   0.246172 0.584396 0.075122 0.032047
C11   C     C_R   0.753856 0.584009 0.924902 0.031043
C12   C     C_R   0.746172 0.084396 0.075122 0.032046
C13   C     C_R   0.728638 0.044744 0.147215 0.580252
C14   C     C_R   0.253856 0.084009 0.924902 0.031043
C15   C     C_R   0.194114 0.649620 0.038184 -0.045050
C16   C     C_R   0.805878 0.649377 0.961640 -0.046476
C17   C     C_R   0.694114 0.149620 0.038184 -0.045050
C18   C     C_R   0.305878 0.149377 0.961640 -0.046476
C19   C     C_R   0.191798 0.651002 0.964961 0.177970
C20   C     C_R   0.808143 0.651073 0.034888 0.177448
C21   C     C_R   0.691798 0.151002 0.964961 0.177970
C22   C     C_R   0.308143 0.151072 0.034888 0.177447
C23   C     C_R   0.248300 0.598321 0.925872 0.073137
C24   C     C_R   0.771369 0.544546 0.852815 0.568251
C25   C     C_R   0.751685 0.598468 0.074194 0.074757
C26   C     C_R   0.748300 0.098321 0.925872 0.073137
C27   C     C_R   0.251686 0.098468 0.074194 0.074757
C28   C     C_R   0.546025 0.727214 0.555062 0.189183
C29   C     C_R   0.555883 0.717838 0.481533 0.166537
C30   C     C_R   0.046023 0.227210 0.555062 0.189183
C31   C     C_R   0.055881 0.217835 0.481532 0.166537
C32   C     C_R   0.546718 0.822646 0.437650 -0.008217
C33   C     C_R   0.513807 0.832465 0.582940 -0.002250
C34   C     C_R   0.046720 0.322646 0.437651 -0.008230
C35   C     C_R   0.228638 0.544744 0.147215 0.580252
C36   C     C_R   0.013808 0.332463 0.582940 -0.002252
C37   C     C_R   0.525408 0.932838 0.468739 -0.169753
C38   C     C_R   0.506967 0.936755 0.540241 -0.179254
C39   C     C_R   0.025415 0.432840 0.468741 -0.169764
C40   C     C_R   0.006973 0.436756 0.540242 -0.179255
C41   C     C_R   0.469537 0.821330 0.855711 0.574912
C42   C     C_R   0.530467 0.821543 0.144266 0.590796
C43   C     C_R   0.969537 0.321331 0.855711 0.574911
C44   C     C_R   0.030467 0.321543 0.144266 0.590793
C45   C     C_R   0.183969 0.605038 0.543053 -0.160535
C46   C     C_3   0.528859 0.726646 0.971061 -0.119751
C47   C     C_R   0.736944 0.705257 0.477126 -0.128053
C48   C     C_R   0.683967 0.105019 0.543056 -0.160538
C49   C     C_R   0.236916 0.205243 0.477126 -0.128025
C50   C     C_R   0.180294 0.604613 0.470371 -0.118575
C51   C     C_R   0.744440 0.685543 0.549304 -0.106499
C52   C     C_R   0.680289 0.104589 0.470374 -0.118568
C53   C     C_R   0.244412 0.185531 0.549304 -0.106479
C54   C     C_R   0.237913 0.564396 0.430578 0.026355
C55   C     C_R   0.758145 0.567942 0.572822 0.049680
C56   C     C_R   0.737911 0.064388 0.430580 0.026354
C57   C     C_3   0.471240 0.726870 0.029388 -0.118922
C58   C     C_R   0.258149 0.067940 0.572821 0.049694
C59   C     C_R   0.298645 0.520598 0.464654 -0.092316
C60   C     C_R   0.765608 0.470074 0.525293 -0.060268
C61   C     C_R   0.798647 0.020606 0.464653 -0.092335
C62   C     C_R   0.265647 0.970083 0.525292 -0.060288
C63   C     C_R   0.303463 0.523359 0.538271 0.138171
C64   C     C_R   0.760162 0.490385 0.452749 0.155721
C65   C     C_R   0.803466 0.023366 0.538271 0.138162
C66   C     C_R   0.260198 0.990392 0.452747 0.155695
C67   C     C_R   0.247407 0.575293 0.577252 0.015914
C68   C     C_3   0.028859 0.226646 0.971061 -0.119751
C69   C     C_R   0.745541 0.608148 0.429393 0.084479
C70   C     C_R   0.747408 0.075289 0.577253 0.015911
C71   C     C_R   0.245541 0.108143 0.429391 0.084498
C72   C     C_R   0.259911 0.636646 0.852001 0.572105
C73   C     C_R   0.740077 0.636818 0.148000 0.590636
C74   C     C_R   0.759911 0.136646 0.852001 0.572104
C75   C     C_R   0.240077 0.136818 0.148000 0.590637
C76   C     C_R   0.271939 0.044575 0.645933 0.553145
C77   C     C_R   0.726445 0.041155 0.356101 0.571194
C78   C     C_R   0.771939 0.544573 0.645933 0.553149
C79   C     C_3   0.971240 0.226870 0.029388 -0.118923
C80   C     C_R   0.226446 0.541158 0.356100 0.571186
C81   C     C_R   0.473426 0.823792 0.649110 0.562625
C82   C     C_R   0.561367 0.818443 0.360692 0.558736
C83   C     C_R   0.973426 0.323791 0.649110 0.562626
C84   C     C_R   0.061367 0.318443 0.360692 0.558734
C85   C     C_R   0.259340 0.632495 0.645458 0.547795
C86   C     C_R   0.739954 0.637039 0.355929 0.585775
C87   C     C_R   0.759340 0.132495 0.645458 0.547790
C88   C     C_R   0.239955 0.137036 0.355928 0.585777
C89   C     C_3   0.471535 0.928039 0.029092 -0.105213
C90   C     C_R   0.302879 0.538025 0.963149 -0.101040
C91   C     C_3   0.528545 0.927809 0.970291 -0.107345
C92   C     C_3   0.971535 0.428039 0.029092 -0.105214
C93   C     C_3   0.028545 0.427809 0.970291 -0.107345
C94   C     C_3   0.431562 0.827621 0.988675 0.144229
C95   C     C_3   0.568534 0.827643 0.011251 0.140525
C96   C     C_3   0.931562 0.327621 0.988675 0.144229
C97   C     C_3   0.068534 0.327643 0.011251 0.140526
C98   C     C_3   0.488676 0.827254 0.931004 0.029696
C99   C     C_3   0.511414 0.827743 0.068927 0.028015
C100  C     C_3   0.988676 0.327253 0.931004 0.029697
Cr1   Cr    Cr6+3 0.229630 0.835900 0.747350 1.116147
Cr2   Cr    Cr6+3 0.614200 0.677120 0.250660 1.102053
Cr3   Cr    Cr6+3 0.885800 0.177120 0.749340 1.118149
Cr4   Cr    Cr6+3 0.114200 0.177120 0.250660 1.102039
Cr5   Cr    Cr6+3 0.770370 0.835900 0.252650 1.091191
Cr6   Cr    Cr6+3 0.729630 0.335900 0.747350 1.116146
Cr7   Cr    Cr6+3 0.270370 0.335900 0.252650 1.091201
Cr8   Cr    Cr6+3 0.387410 0.989850 0.750850 1.077650
Cr9   Cr    Cr6+3 0.612590 0.989850 0.249150 1.079059
Cr10  Cr    Cr6+3 0.887410 0.489850 0.750850 1.077649
Cr11  Cr    Cr6+3 0.112590 0.489850 0.249150 1.079045
Cr12  Cr    Cr6+3 0.385800 0.677120 0.749340 1.118150
H1    H     H_    0.138884 0.639732 0.571904 0.169765
H2    H     H_    0.778318 0.379362 0.544627 0.144554
H3    H     H_    0.841486 0.981569 0.434314 0.182753
H4    H     H_    0.278383 0.879382 0.544625 0.144535
H5    H     H_    0.447506 0.007325 0.055349 0.196147
H6    H     H_    0.552585 0.006788 0.943485 0.194579
H7    H     H_    0.947506 0.507324 0.055349 0.196147
H8    H     H_    0.052585 0.506788 0.943485 0.194578
H9    H     H_    0.553471 0.645185 0.946614 0.148052
H10   H     H_    0.446592 0.645589 0.054262 0.147639
H11   H     H_    0.053471 0.145185 0.946614 0.148051
H12   H     H_    0.724742 0.796177 0.458073 0.105817
H13   H     H_    0.946592 0.145589 0.054262 0.147638
H14   H     H_    0.347438 0.499759 0.935127 0.151114
H15   H     H_    0.652628 0.499684 0.065286 0.151037
H16   H     H_    0.847438 0.999759 0.935127 0.151114
H17   H     H_    0.152628 0.999684 0.065286 0.151036
H18   H     H_    0.342771 0.481516 0.065272 0.179648
H19   H     H_    0.657357 0.480962 0.935206 0.180827
H20   H     H_    0.842771 0.981516 0.065272 0.179648
H21   H     H_    0.157357 0.980962 0.935206 0.180827
H22   H     H_    0.150965 0.692701 0.066136 0.175191
H23   H     H_    0.638881 0.139704 0.571909 0.169759
H24   H     H_    0.849023 0.692441 0.933545 0.175125
H25   H     H_    0.650965 0.192701 0.066136 0.175192
H26   H     H_    0.349023 0.192441 0.933545 0.175125
H27   H     H_    0.518409 0.014455 0.436877 0.163926
H28   H     H_    0.483636 0.019444 0.560949 0.167388
H29   H     H_    0.018420 0.514459 0.436880 0.163920
H30   H     H_    0.983645 0.519447 0.560952 0.167386
H31   H     H_    0.224692 0.296154 0.458074 0.105786
H32   H     H_    0.131373 0.634099 0.445681 0.170658
H33   H     H_    0.739439 0.760605 0.586382 0.140974
H34   H     H_    0.631364 0.134063 0.445686 0.170659
H35   H     H_    0.239386 0.260585 0.586383 0.140953
H36   H     H_    0.341482 0.481549 0.434316 0.182755
O1    O     O_R   0.214270 0.709000 0.827470 -0.454578
O2    O     O_R   0.543270 0.717630 0.330160 -0.447400
O3    O     O_R   0.956730 0.217630 0.669840 -0.435361
O4    O     O_R   0.043270 0.217630 0.330160 -0.447408
O5    O     O_R   0.320620 0.625640 0.672920 -0.459439
O6    O     O_R   0.679380 0.625640 0.327080 -0.477505
O7    O     O_R   0.820620 0.125640 0.672920 -0.459438
O8    O     O_R   0.179380 0.125640 0.327080 -0.477521
O9    O     O_3   0.334280 0.834290 0.749180 -0.280902
O10   O     O_3   0.665720 0.834290 0.250820 -0.304211
O11   O     O_3   0.834280 0.334290 0.749180 -0.280900
O12   O     O_R   0.785730 0.709000 0.172530 -0.449027
O13   O     O_3   0.165720 0.334290 0.250820 -0.304205
O14   O     O_R   0.236160 0.958490 0.823130 -0.469834
O15   O     O_R   0.763840 0.958490 0.176870 -0.470069
O16   O     O_R   0.736160 0.458490 0.823130 -0.469832
O17   O     O_R   0.263840 0.458490 0.176870 -0.470069
O18   O     O_R   0.332080 0.075470 0.831280 -0.512248
O19   O     O_R   0.667920 0.075470 0.168720 -0.505974
O20   O     O_R   0.832080 0.575470 0.831280 -0.512249
O21   O     O_R   0.167920 0.575470 0.168720 -0.505978
O22   O     O_R   0.446300 0.918110 0.826620 -0.482240
O23   O     O_R   0.714270 0.209000 0.827470 -0.454578
O24   O     O_R   0.553700 0.918110 0.173380 -0.473038
O25   O     O_R   0.946300 0.418110 0.826620 -0.482241
O26   O     O_R   0.053700 0.418110 0.173380 -0.473039
O27   O     O_R   0.457110 0.716200 0.831760 -0.503172
O28   O     O_R   0.542890 0.716200 0.168240 -0.504195
O29   O     O_R   0.957110 0.216200 0.831760 -0.503172
O30   O     O_R   0.042890 0.216200 0.168240 -0.504196
O31   O     O_R   0.320980 0.624310 0.823030 -0.504676
O32   O     O_R   0.679020 0.624310 0.176970 -0.500122
O33   O     O_R   0.820980 0.124310 0.823030 -0.504676
O34   O     O_R   0.285730 0.209000 0.172530 -0.449026
O35   O     O_R   0.179020 0.124310 0.176970 -0.500125
O36   O     O_R   0.213890 0.710430 0.665540 -0.519371
O37   O     O_R   0.786110 0.710430 0.334460 -0.515269
O38   O     O_R   0.713890 0.210430 0.665540 -0.519374
O39   O     O_R   0.286110 0.210430 0.334460 -0.515256
O40   O     O_R   0.235810 0.959820 0.673020 -0.475876
O41   O     O_R   0.764190 0.959820 0.326980 -0.518976
O42   O     O_R   0.735810 0.459820 0.673020 -0.475883
O43   O     O_R   0.264190 0.459820 0.326980 -0.518968
O44   O     O_R   0.331700 0.076900 0.669350 -0.506758
O45   O     O_R   0.445950 0.919440 0.676520 -0.518037
O46   O     O_R   0.668300 0.076900 0.330650 -0.510568
O47   O     O_R   0.831700 0.576900 0.669350 -0.506761
O48   O     O_R   0.168300 0.576900 0.330650 -0.510593
O49   O     O_R   0.554050 0.919440 0.323480 -0.506098
O50   O     O_R   0.945950 0.419440 0.676520 -0.518034
O51   O     O_R   0.054050 0.419440 0.323480 -0.506101
O52   O     O_R   0.456730 0.717630 0.669840 -0.435364

loop_
_geom_bond_atom_site_label_1
_geom_bond_atom_site_label_2
_ccdc_geom_bond_type
C1    O14   A    
Br9   C95   S    
C23   C90   A    
C25   C73   S    
C39   C40   A    
C39   H29   S    
C84   O51   A    
C86   O6    A    
C68   C97   S    
C80   O48   A    
Br6   C29   S    
C70   C87   S    
Cr9   O19   S    
C47   H12   S    
C4    H16   S    
Cr7   O34   S    
C19   C23   A    
C78   O42   A    
Cr12  O31   S    
Cr5   O41   S    
Cr7   O13   S    
C77   O41   A    
C50   H32   S    
C85   O36   A    
C44   O30   A    
C57   C94   S    
Cr5   O15   S    
C74   O33   A    
C37   C38   A    
C43   O29   A    
Cr6   O16   S    
C89   C91   S    
Cr12  O9    S    
C64   C69   A    
C81   O45   A    
Cr9   O24   S    
C76   O44   A    
C48   C52   A    
C2    H15   S    
C86   O37   A    
C46   C98   S    
C91   H6    S    
C79   C96   S    
Br16  C19   S    
C38   H28   S    
C55   C60   A    
C17   H25   S    
Cr5   O12   S    
Cr8   O45   S    
Cr2   O6    S    
C41   O27   A    
Br2   C20   S    
C33   C38   A    
Br12  C63   S    
C30   C36   A    
Cr4   O35   S    
C92   C93   S    
C9    H21   S    
C82   O49   A    
C61   H3    S    
C58   C76   S    
C21   C26   A    
C62   H4    S    
C40   H30   S    
Cr10  O50   S    
C93   C100  S    
Cr3   O11   S    
C5    C27   A    
C75   O34   A    
C60   H2    S    
C45   C50   A    
C46   C95   S    
C6    H18   S    
C68   H11   S    
Cr1   O1    S    
C43   C100  S    
C63   C67   A    
C81   O52   A    
Cr9   O49   S    
C51   H33   S    
C46   C57   S    
C85   O5    A    
C7    C11   A    
C31   C34   A    
Cr1   O40   S    
Cr2   O32   S    
C94   C98   S    
C51   C55   A    
C65   C70   A    
C76   O40   A    
C49   H31   S    
C88   O8    A    
C75   O35   A    
C3    C92   S    
Br13  C64   S    
C10   C15   A    
C68   C100  S    
C24   O16   A    
C47   C69   A    
C93   H8    S    
C87   O7    A    
C1    C14   S    
C72   O31   A    
C20   C25   A    
Cr2   O28   S    
C23   C72   S    
Cr9   O10   S    
C1    O18   A    
C48   C70   A    
C90   H14   S    
Br15  C66   S    
C83   O3    A    
C18   H26   S    
C32   C37   A    
C47   C51   A    
Cr11  O26   S    
C14   C18   A    
C48   H23   S    
C42   O24   A    
C2    C7    A    
Cr11  O13   S    
C88   O39   A    
C4    C8    A    
C84   O4    A    
C92   H7    S    
C45   C67   A    
C2    C25   A    
C55   C78   S    
C15   H22   S    
Cr4   O8    S    
C80   O43   A    
Cr8   O9    S    
Cr3   O33   S    
C6    C90   A    
C73   O32   A    
C7    H19   S    
Cr2   O2    S    
C28   C33   A    
C27   C75   S    
C92   C96   S    
C59   H36   S    
Cr3   O29   S    
C68   C79   S    
C5    H17   S    
Cr10  O25   S    
C54   C80   S    
Cr4   O13   S    
Br7   C30   S    
C91   C98   S    
Cr8   O18   S    
C56   C61   A    
C35   O21   A    
Br1   C94   S    
C62   C66   A    
Cr5   O10   S    
C16   H24   S    
C61   C65   A    
C11   C24   S    
C52   C56   A    
C77   O46   A    
C66   C71   A    
Cr7   O43   S    
C53   C58   A    
Cr6   O42   S    
C49   C71   A    
Br10  C96   S    
C93   C97   S    
Cr2   O10   S    
C41   O22   A    
C82   O2    A    
Cr1   O36   S    
Cr12  O52   S    
C56   C77   S    
Br5   C28   S    
Br4   C22   S    
C12   C17   A    
C79   H13   S    
C52   H34   S    
C73   O12   A    
C8    H20   S    
C42   C99   S    
C37   H27   S    
C43   O25   A    
C16   C20   A    
C96   C100  S    
C3    C79   S    
Cr1   O14   S    
Cr4   O4    S    
C8    C12   A    
C89   H5    S    
C29   C32   A    
Cr1   O9    S    
C9    C14   A    
C5    C9    A    
C30   C31   A    
C12   C13   S    
C13   O19   A    
C53   H35   S    
C11   C16   A    
C18   C22   A    
C91   C95   S    
C89   C99   S    
C28   C29   A    
C60   C64   A    
C89   C94   S    
C35   O17   A    
C4    C26   A    
Cr9   O46   S    
C3    C97   S    
C78   O47   A    
C41   C98   S    
C83   O50   A    
C45   H1    S    
C3    C44   S    
C32   C82   S    
C6    C10   A    
C36   C83   S    
C34   C84   S    
C34   C39   A    
C57   C99   S    
Cr7   O39   S    
Cr10  O47   S    
Cr12  O27   S    
Cr6   O38   S    
Br8   C31   S    
Cr5   O37   S    
C22   C27   A    
Cr7   O17   S    
C10   C35   S    
C42   O28   A    
Cr11  O51   S    
Cr6   O23   S    
C50   C54   A    
C13   O15   A    
C49   C53   A    
C58   C62   A    
Cr8   O22   S    
Cr11  O21   S    
C17   C21   A    
Cr3   O3    S    
C15   C19   A    
C46   H9    S    
C74   O23   A    
Br11  C97   S    
Cr4   O30   S    
C87   O38   A    
Cr10  O11   S    
C33   C81   S    
C71   C88   S    
C36   C40   A    
Cr11  O48   S    
Cr12  O5    S    
Cr10  O20   S    
Br3   C21   S    
C44   O26   A    
C72   O1    A    
C57   H10   S    
C54   C59   A    
C67   C85   S    
C95   C99   S    
Br14  C65   S    
C26   C74   S    
C59   C63   A    
Cr8   O44   S    
C69   C86   S    
Cr6   O11   S    
Cr3   O7    S    
C24   O20   A    
