data_mof_unit_15501.cif
_audit_creation_date              2012-12-10T17:57:27-0500
_audit_creation_method            fapswitch 2.2
_symmetry_space_group_name_H-M    P1
_symmetry_Int_Tables_number       1
_space_group_crystal_system       triclinic
_cell_length_a                    9.553745
_cell_length_b                    10.839533
_cell_length_c                    13.511485
_cell_angle_alpha                 90.987313
_cell_angle_beta                  73.240629
_cell_angle_gamma                 89.72785
_cell_volume                      1339.52309447

loop_
_atom_site_label
_atom_site_type_symbol
_atom_type_description
_atom_site_fract_x
_atom_site_fract_y
_atom_site_fract_z
_atom_type_partial_charge
C1    C     C_R   0.500537 0.737832 0.497068 0.805514
C2    C     C_R   0.458353 0.528016 0.969431 0.011632
C3    C     C_R   0.477932 0.478746 0.868781 0.121036
C4    C     C_R   0.556947 0.489062 0.024041 -0.017055
C5    C     C_R   0.693608 0.436951 0.970257 0.074531
C6    C     C_R   0.707287 0.382730 0.872945 -0.156675
C7    C     C_R   0.596087 0.396417 0.826473 -0.192024
C8    C     C_R   0.515137 0.482576 0.131552 -0.084980
C9    C     C_R   0.771624 0.472769 0.124573 -0.119520
C10   C     C_R   0.381397 0.514984 0.812185 -0.104243
C11   C     C_R   0.612962 0.936072 0.518396 -0.155783
C12   C     C_R   0.422704 0.498956 0.699519 0.778259
C13   C     C_R   0.613814 0.063607 0.519855 -0.163381
C14   C     C_R   0.502153 0.128951 0.495527 -0.025812
C15   C     C_R   0.391880 0.066453 0.466748 -0.204159
C16   C     C_R   0.390460 0.938569 0.464128 -0.029285
C17   C     C_R   0.500530 0.872168 0.492651 -0.073914
C18   C     C_R   0.901286 0.581498 0.561545 0.074744
C19   C     C_R   0.050373 0.582551 0.559779 -0.007186
C20   C     C_R   0.098198 0.413950 0.444086 -0.008238
C21   C     C_R   0.951027 0.415651 0.441441 0.062743
C22   C     C_R   0.500685 0.262414 0.498917 0.791069
C23   C     C_R   0.578055 0.496568 0.299548 0.819775
C24   C     C_R   0.805822 0.432754 0.019632 -0.065993
C25   C     C_R   0.622836 0.484994 0.184437 -0.148676
C26   C     C_R   0.260159 0.590168 0.859301 -0.173874
C27   C     C_R   0.241476 0.639879 0.957565 -0.139811
C28   C     C_R   0.344770 0.617301 0.010481 -0.099250
Cu1   Cu    Cu3+1 0.359340 0.499980 0.500000 0.980319
Cu2   Cu    Cu3+1 0.640660 0.500020 0.500000 0.981947
H1    H     H_    0.700569 0.110918 0.541486 0.151027
H2    H     H_    0.307393 0.117337 0.445177 0.148665
H3    H     H_    0.087654 0.648020 0.607892 0.122157
H4    H     H_    0.173043 0.343428 0.401461 0.135337
H5    H     H_    0.798865 0.323667 0.834461 0.179961
H6    H     H_    0.186187 0.619614 0.816571 0.177241
H7    H     H_    0.152723 0.705192 0.988447 0.166528
H8    H     H_    0.606344 0.344316 0.755723 0.154938
H9    H     H_    0.699752 0.887749 0.538791 0.172630
N1    N     N_R   0.147940 0.499970 0.499970 -0.170298
N2    N     N_R   0.852060 0.500060 0.499990 -0.209496
O1    O     O_R   0.381250 0.680340 0.500010 -0.582005
O2    O     O_R   0.618820 0.680370 0.500010 -0.575381
O3    O     O_R   0.323240 0.499950 0.650980 -0.579121
O4    O     O_R   0.560810 0.499980 0.650980 -0.581231
O5    O     O_R   0.381180 0.319630 0.499990 -0.597103
O6    O     O_R   0.618750 0.319660 0.499990 -0.597152
O7    O     O_R   0.439190 0.500020 0.349020 -0.566008
O8    O     O_R   0.676760 0.500050 0.349020 -0.575198
C29   C     C_1   0.888578 0.506535 0.167531 0.362152
N3    N     N_1   0.981770 0.535358 0.201614 -0.201792
C30   C     C_1   0.277044 0.879943 0.429152 0.290803
N4    N     N_1   0.186174 0.833379 0.401074 -0.212303
C31   C     C_1   0.801994 0.664253 0.632879 0.289137
N5    N     N_1   0.722831 0.730537 0.691144 -0.306229
C32   C     C_1   0.908157 0.326225 0.376130 0.311099
N6    N     N_1   0.874927 0.254011 0.323146 -0.258344
C33   C     C_2   0.956964 0.390006 0.962825 0.823819
O9    O     O_2   0.030447 0.334079 0.008345 -0.564148
O10   O     O_R   0.015088 0.412774 0.857435 -0.788675
H10   H     H_    0.114192 0.371972 0.826706 0.337705
C34   C     C_1   0.366241 0.445195 0.180179 0.333609
N7    N     N_1   0.247329 0.413705 0.215924 -0.256586
C35   C     C_2   0.340064 0.700029 0.100747 0.873160
O11   O     O_2   0.222890 0.724670 0.163863 -0.514203
O12   O     O_R   0.466587 0.754278 0.113299 -0.725948
H11   H     H_    0.555962 0.738881 0.052210 0.299546

loop_
_geom_bond_atom_site_label_1
_geom_bond_atom_site_label_2
_ccdc_geom_bond_type
C21   C32   S    
C2    C4    A    
Cu2   N2    S    
C6    C7    A    
C12   O4    A    
Cu1   O1    S    
Cu1   Cu2   S    
C2    C28   A    
C6    H5    S    
C1    O1    A    
Cu2   O4    S    
C1    C17   S    
Cu1   O5    S    
C4    C8    A    
C20   H4    S    
C35   O11   D    
C14   C22   S    
C22   O6    A    
C9    C25   A    
C15   H2    S    
C12   O3    A    
C3    C10   A    
C13   C14   A    
C20   C21   A    
C11   H9    S    
C8    C25   A    
C11   C13   A    
C10   C26   A    
C26   C27   A    
C34   N7    T    
C5    C24   A    
C10   C12   S    
C27   H7    S    
C21   N2    A    
C28   C35   S    
Cu1   N1    S    
C26   H6    S    
C22   O5    A    
Cu2   O8    S    
C13   H1    S    
O12   H11   S    
C3    C7    A    
C23   C25   S    
Cu1   O3    S    
C5    C6    A    
C20   N1    A    
Cu2   O2    S    
C23   O8    A    
C19   N1    A    
C18   C31   S    
Cu1   O7    S    
C33   O10   S    
C15   C16   A    
Cu2   O6    S    
C4    C5    A    
C30   N4    T    
C1    O2    A    
C24   C33   S    
C18   C19   A    
C19   H3    S    
C18   N2    A    
C27   C28   A    
C32   N6    T    
C31   N5    T    
O10   H10   S    
C2    C3    A    
C23   O7    A    
C29   N3    T    
C33   O9    D    
C14   C15   A    
C7    H8    S    
C9    C24   A    
C11   C17   A    
C9    C29   S    
C16   C30   S    
C8    C34   S    
C16   C17   A    
C35   O12   S    
