data_mof_unit_68386.cif
_audit_creation_date              2013-03-05T16:49:09-0500
_audit_creation_method            fapswitch 2.2
_symmetry_space_group_name_H-M    P1
_symmetry_Int_Tables_number       1
_space_group_crystal_system       triclinic
_cell_length_a                    11.217929
_cell_length_b                    10.730997
_cell_length_c                    9.631333
_cell_angle_alpha                 86.709264
_cell_angle_beta                  91.173292
_cell_angle_gamma                 88.81875
_cell_volume                      1156.98540968

loop_
_atom_site_label
_atom_site_type_symbol
_atom_site_description
_atom_site_fract_x
_atom_site_fract_y
_atom_site_fract_z
_atom_type_partial_charge
O1    O     O_R   0.500060 0.316850 0.620870 -0.561431
O2    O     O_R   0.499940 0.683150 0.379130 -0.560662
O3    O     O_R   0.500000 0.316860 0.379090 -0.530103
O4    O     O_R   0.500000 0.683140 0.620910 -0.532782
C1    C     C_R   0.501255 0.260204 0.503144 0.967366
C2    C     C_R   0.499661 0.739824 0.496844 0.971535
O5    O     O_R   0.319670 0.500010 0.620890 -0.611350
O6    O     O_R   0.680330 0.499990 0.379110 -0.611818
O7    O     O_R   0.319620 0.500010 0.379110 -0.565070
O8    O     O_R   0.680380 0.499990 0.620890 -0.569137
C3    C     C_R   0.262464 0.506673 0.498074 0.912760
C4    C     C_R   0.737677 0.494423 0.501715 0.907001
Cu1   Cu    Cu3+1 0.500030 0.499990 0.643150 1.058239
Cu2   Cu    Cu3+1 0.499970 0.500010 0.356850 1.059678
H1    H     H_    0.159275 0.539577 0.852279 0.193592
H2    H     H_    0.837205 0.456652 0.144307 0.195311
C5    C     C_R   0.139777 0.625980 0.043018 0.437106
C6    C     C_R   0.858648 0.374497 0.950566 0.435753
C7    C     C_R   0.119925 0.605995 0.187333 0.258851
C8    C     C_R   0.879881 0.397167 0.808002 0.269399
C9    C     C_R   0.099917 0.482515 0.243031 -0.136888
C10   C     C_R   0.901464 0.520950 0.755143 -0.162023
C11   C     C_R   0.111747 0.381818 0.158968 -0.186813
C12   C     C_R   0.890761 0.619974 0.842001 -0.153107
H3    H     H_    0.110231 0.287726 0.204125 0.233914
H4    H     H_    0.895645 0.715095 0.800485 0.245751
C13   C     C_R   0.132075 0.399058 0.017706 0.383339
C14   C     C_R   0.867175 0.600072 0.982277 0.390502
C15   C     C_R   0.142331 0.522343 0.960516 -0.384503
C16   C     C_R   0.856154 0.475703 0.036881 -0.408973
C17   C     C_R   0.940224 0.428535 0.405474 0.221808
C18   C     C_R   0.060246 0.575760 0.592727 0.213469
C19   C     C_R   0.873059 0.490757 0.504185 -0.160746
C20   C     C_R   0.127255 0.513066 0.494409 -0.158657
C21   C     C_R   0.938422 0.546065 0.610307 0.036759
C22   C     C_R   0.061917 0.458823 0.387823 0.033913
C23   C     C_3   0.559348 0.029432 0.619797 -0.318817
C24   C     C_3   0.442986 0.970792 0.380224 -0.285156
C25   C     C_3   0.612591 0.956774 0.501618 0.188445
C26   C     C_3   0.389836 0.043128 0.498606 0.207500
H5    H     H_    0.610905 0.047252 0.715276 0.259386
H6    H     H_    0.393602 0.953720 0.282976 0.259622
C27   C     C_3   0.500778 0.876856 0.491970 -0.231587
C28   C     C_3   0.501344 0.123230 0.507880 -0.228676
C29   C     C_3   0.445819 0.949956 0.608520 0.415182
C30   C     C_3   0.556442 0.050078 0.391393 0.429852
C31   C     C_3   0.502552 0.609673 0.038982 0.475645
C32   C     C_3   0.497253 0.390350 0.961138 0.480452
C33   C     C_3   0.408302 0.560742 0.942009 -0.148627
C34   C     C_3   0.591566 0.439197 0.058023 -0.136517
H7    H     H_    0.342966 0.625084 0.887427 0.243565
H8    H     H_    0.656172 0.373936 0.112592 0.243659
N1    N     N_3   0.500090 0.499970 0.858290 -0.252529
N2    N     N_3   0.499910 0.500030 0.141710 -0.252443
C35   C     C_3   0.594382 0.551334 0.946623 -0.163890
C36   C     C_3   0.405525 0.448800 0.053403 -0.164724
H9    H     H_    0.660722 0.609302 0.893034 0.199926
H10   H     H_    0.339046 0.390988 0.106820 0.199831
N3    N     N_R   0.503682 0.738388 0.076158 0.101171
O9    O     O_R   0.581974 0.811767 0.019480 -0.432555
O10   O     O_R   0.407686 0.786893 0.125172 -0.352532
N4    N     N_R   0.495065 0.261338 0.925028 0.101992
O11   O     O_R   0.418441 0.188350 0.985625 -0.421153
O12   O     O_R   0.589915 0.212296 0.874088 -0.333700
O13   O     O_3   0.172836 0.739426 0.978525 -0.558280
C37   C     C_3   0.106501 0.844641 0.017298 -0.129362
H11   H     H_    0.020354 0.823280 0.064585 0.203228
H12   H     H_    0.087044 0.906109 0.922630 0.185465
H13   H     H_    0.160771 0.898646 0.089292 0.208259
O14   O     O_3   0.817914 0.259931 0.002020 -0.547384
C38   C     C_3   0.909387 0.167418 0.007943 -0.096690
H14   H     H_    0.965421 0.174310 0.102758 0.187889
H15   H     H_    0.965366 0.168292 0.914804 0.209706
H16   H     H_    0.868205 0.074388 0.014465 0.153076
N5    N     N_R   0.127213 0.707723 0.277607 0.105537
O15   O     O_R   0.031687 0.754541 0.330369 -0.332966
O16   O     O_R   0.230131 0.753275 0.308727 -0.301739
N6    N     N_R   0.872903 0.295864 0.716990 0.118615
O17   O     O_R   0.968159 0.252569 0.660407 -0.324576
O18   O     O_R   0.772977 0.239028 0.700303 -0.276488
O19   O     O_3   0.144763 0.290699 0.945724 -0.614040
C39   C     C_3   0.194159 0.309340 0.813569 -0.130366
H17   H     H_    0.284557 0.347505 0.820894 0.183314
H18   H     H_    0.135734 0.369238 0.743566 0.161651
H19   H     H_    0.200726 0.218249 0.766213 0.224960
O20   O     O_3   0.848690 0.707595 0.054105 -0.606467
C40   C     C_3   0.802325 0.686674 0.187206 -0.134995
H20   H     H_    0.864122 0.629026 0.255283 0.163394
H21   H     H_    0.713327 0.645394 0.181250 0.187379
H22   H     H_    0.792737 0.777510 0.234728 0.212795
N7    N     N_R   0.899183 0.312087 0.355454 0.131669
O21   O     O_R   0.969865 0.214299 0.368348 -0.255863
O22   O     O_R   0.786799 0.293723 0.331371 -0.325886
N8    N     N_R   0.102699 0.690814 0.644791 0.149316
O23   O     O_R   0.032815 0.789306 0.635370 -0.228926
O24   O     O_R   0.215430 0.707571 0.668098 -0.301567
N9    N     N_R   0.736095 0.911667 0.503861 0.128213
O25   O     O_R   0.822082 0.990312 0.513700 -0.190306
O26   O     O_R   0.760881 0.792655 0.508363 -0.411480
N10   N     N_R   0.266249 0.087597 0.499098 0.139038
O27   O     O_R   0.180480 0.008017 0.497283 -0.176912
O28   O     O_R   0.240770 0.206520 0.491958 -0.409854
O29   O     O_3   0.383112 0.888980 0.716948 -0.518821
C41   C     C_3   0.372937 0.968393 0.826691 0.005069
H23   H     H_    0.331635 0.059470 0.790752 0.140415
H24   H     H_    0.461243 0.981222 0.877058 0.215227
H25   H     H_    0.315050 0.924944 0.906029 0.218911
O30   O     O_3   0.612165 0.110766 0.277194 -0.513388
C42   C     C_3   0.674693 0.023161 0.201724 -0.033689
H26   H     H_    0.666225 0.051732 0.089551 0.231590
H27   H     H_    0.640711 0.926982 0.215807 0.149592
H28   H     H_    0.770431 0.022454 0.232978 0.190427

loop_
_geom_bond_atom_site_label_1
_geom_bond_atom_site_label_2
_geom_bond_distance
_ccdc_geom_bond_type
C6    O14   1.388651 S    
C37   H12   1.109478 S    
C40   H20   1.100139 S    
C13   C15   1.411417 A    
C5    C15   1.403611 A    
C18   N8    1.445046 S    
O7    Cu2   2.038843 S    
C41   H24   1.108690 S    
N9    O25   1.300248 A    
C31   C33   1.518096 S    
C9    C22   1.476221 S    
O5    C3    1.331709 A    
C10   C21   1.474985 S    
C34   N2    1.483121 S    
O1    C1    1.317093 A    
C7    C9    1.424618 A    
C12   H4    1.077563 S    
C24   H6    1.104697 S    
C42   H27   1.109592 S    
N6    O18   1.298636 A    
C25   N9    1.457464 S    
C37   H13   1.109358 S    
H2    C16   1.069582 S    
O30   C42   1.405803 S    
O4    Cu1   1.964752 S    
N4    O12   1.295282 A    
C29   O29   1.408607 S    
C5    C7    1.417026 A    
C14   C16   1.414895 A    
C33   H7    1.100894 S    
C30   O30   1.409722 S    
C34   H8    1.101429 S    
C17   C19   1.413810 A    
O14   C38   1.410986 S    
C6    C16   1.405248 A    
C11   C13   1.386666 A    
C25   C30   1.533239 S    
C32   C34   1.517706 S    
C37   H11   1.099565 S    
N3    O9    1.299308 A    
Cu1   Cu2   2.757425 S    
O2    C2    1.316994 A    
C41   H23   1.107071 S    
N9    O26   1.299504 A    
C28   C30   1.538343 S    
H1    C15   1.069811 S    
Cu1   N1    2.072059 S    
N1    C35   1.479018 S    
C26   C29   1.529746 S    
N2    C36   1.479007 S    
N3    O10   1.295898 A    
C18   C21   1.420945 A    
C13   O19   1.393829 S    
O4    C2    1.309249 A    
C42   H28   1.109180 S    
N7    O21   1.300768 A    
C38   H15   1.105203 S    
N6    O17   1.298902 A    
C25   C27   1.538219 S    
O19   C39   1.404059 S    
C18   C20   1.412721 A    
N5    O15   1.299382 A    
N4    O11   1.299524 A    
N7    O22   1.298281 A    
O7    C3    1.329146 A    
C32   N4    1.447247 S    
C26   C28   1.536271 S    
O6    C4    1.330809 A    
N10   O28   1.299654 A    
N8    O24   1.297821 A    
N5    O16   1.299083 A    
O3    Cu2   1.964752 S    
O8    C4    1.330666 A    
C31   N2    1.494373 S    
Cu2   N2    2.072058 S    
C1    C28   1.467932 S    
C8    C10   1.422287 A    
C39   H17   1.103895 S    
C39   H18   1.100943 S    
C2    C27   1.468863 S    
C35   H9    1.097793 S    
C14   O20   1.393041 S    
C10   C12   1.394393 A    
O1    Cu1   1.989155 S    
C23   C29   1.552690 S    
C39   H19   1.103880 S    
C31   C35   1.522916 S    
C32   C36   1.522089 S    
O6    Cu2   2.030217 S    
O20   C40   1.401206 S    
C5    O13   1.395223 S    
C3    C20   1.516503 S    
C12   C14   1.387361 A    
O3    C1    1.308796 A    
O8    Cu1   2.038843 S    
C26   N10   1.457073 S    
C38   H16   1.107695 S    
C32   N1    1.495006 S    
C33   C36   1.565240 S    
C17   N7    1.445444 S    
C34   C35   1.566824 S    
C8    N6    1.437477 S    
C23   C28   1.555040 S    
C9    C11   1.392732 A    
C24   C27   1.553931 S    
C27   C29   1.537859 S    
C42   H26   1.107611 S    
C24   C26   1.538963 S    
C33   N1    1.484032 S    
C7    N5    1.436685 S    
N10   O27   1.300084 A    
C19   C21   1.411193 A    
C20   C22   1.408988 A    
C36   H10   1.097203 S    
C6    C8    1.406658 A    
C11   H3    1.076819 S    
C23   H5    1.104394 S    
N8    O23   1.300689 A    
O2    Cu2   1.989156 S    
C24   C30   1.550765 S    
C31   N3    1.446894 S    
O5    Cu1   2.030217 S    
C38   H14   1.104841 S    
C23   C25   1.539724 S    
O13   C37   1.411783 S    
C40   H22   1.104595 S    
O29   C41   1.400283 S    
C40   H21   1.102308 S    
C17   C22   1.421130 A    
C4    C19   1.518063 S    
C41   H25   1.102205 S    
