data_mof_unit_35541.cif
_audit_creation_date              2012-12-10T19:24:57-0500
_audit_creation_method            fapswitch 2.2
_symmetry_space_group_name_H-M    P1
_symmetry_Int_Tables_number       1
_space_group_crystal_system       triclinic
_cell_length_a                    15.735948
_cell_length_b                    10.506063
_cell_length_c                    9.77527
_cell_angle_alpha                 90.307495
_cell_angle_beta                  88.45777
_cell_angle_gamma                 90.276883
_cell_volume                      1615.44916535

loop_
_atom_site_label
_atom_site_type_symbol
_atom_type_description
_atom_site_fract_x
_atom_site_fract_y
_atom_site_fract_z
_atom_type_partial_charge
C1    C     C_R   0.501538 0.257667 0.499657 0.899638
C2    C     C_R   0.498460 0.742333 0.500342 0.899638
C3    C     C_3   0.580709 0.956385 0.508356 -0.331246
C4    C     C_3   0.419284 0.043614 0.491642 -0.331259
C5    C     C_3   0.498447 0.877328 0.500936 -0.095683
C6    C     C_3   0.501547 0.122671 0.499062 -0.095687
C7    C     C_3   0.451846 0.959937 0.609272 -0.319431
C8    C     C_3   0.548148 0.040062 0.390725 -0.319419
C9    C     C_3   0.502718 0.384332 0.048091 -0.255749
C10   C     C_3   0.497282 0.615668 0.951909 -0.255714
C11   C     C_3   0.568043 0.445477 0.947852 -0.234617
C12   C     C_3   0.431958 0.554523 0.052148 -0.234584
C13   C     C_3   0.435850 0.439963 0.955355 0.622135
C14   C     C_3   0.564150 0.560038 0.044645 0.622137
C15   C     C_R   0.338056 0.499355 0.501675 0.889826
C16   C     C_R   0.661944 0.500645 0.498326 0.889833
C17   C     C_3   0.969665 0.379841 0.508056 -0.213848
C18   C     C_3   0.030336 0.620158 0.491952 -0.213847
C19   C     C_3   0.031579 0.430294 0.394158 -0.217913
C20   C     C_3   0.968422 0.569706 0.605849 -0.217914
C21   C     C_1   0.249049 0.498024 0.505578 -0.168827
C22   C     C_1   0.750951 0.501976 0.494423 -0.168838
C23   C     C_3   0.022292 0.448308 0.617196 0.266249
C24   C     C_3   0.977708 0.551692 0.382812 0.266245
C25   C     C_3   0.082831 0.498071 0.504852 0.149103
C26   C     C_3   0.917169 0.501929 0.495155 0.149104
C27   C     C_1   0.173721 0.497380 0.506992 -0.057334
C28   C     C_1   0.826280 0.502620 0.493012 -0.057340
C29   C     C_3   0.533582 0.040314 0.614466 0.588978
C30   C     C_3   0.466411 0.959685 0.385531 0.588983
H1    H     H_    0.058971 0.374128 0.307258 0.144112
H2    H     H_    0.941030 0.625871 0.692750 0.144109
H3    H     H_    0.943301 0.281834 0.515532 0.145890
H4    H     H_    0.056700 0.718166 0.484475 0.145889
H5    H     H_    0.645427 0.916152 0.517302 0.151777
H6    H     H_    0.354567 0.083849 0.482697 0.151771
H7    H     H_    0.413690 0.922812 0.697681 0.156364
H8    H     H_    0.586303 0.077187 0.302315 0.156366
H9    H     H_    0.624976 0.400415 0.899096 0.161228
H10   H     H_    0.375024 0.599584 0.100904 0.161233
H11   H     H_    0.503887 0.288097 0.094097 0.129355
H12   H     H_    0.496114 0.711904 0.905905 0.129357
N1    N     N_3   0.499940 0.500030 0.863290 -0.105850
N2    N     N_3   0.500060 0.499970 0.136710 -0.105849
O1    O     O_R   0.500000 0.313960 0.616610 -0.549433
O2    O     O_R   0.500000 0.686040 0.383390 -0.549427
O3    O     O_R   0.500040 0.313950 0.383350 -0.655768
O4    O     O_R   0.499960 0.686050 0.616650 -0.655770
O5    O     O_R   0.376760 0.499990 0.616610 -0.569132
O6    O     O_R   0.623240 0.500010 0.383390 -0.569135
O7    O     O_R   0.376790 0.499980 0.383350 -0.633833
O8    O     O_R   0.623210 0.500020 0.616650 -0.633829
Zn1   Zn    Zn3+2 0.499980 0.500010 0.655740 0.995233
Zn2   Zn    Zn3+2 0.500020 0.499990 0.344260 0.995234
C31   C     C_3   0.952018 0.610901 0.248969 -0.944856
H13   H     H_    0.009758 0.636134 0.187099 0.244821
H14   H     H_    0.913195 0.541839 0.190952 0.246507
H15   H     H_    0.914668 0.698326 0.270750 0.244490
C32   C     C_3   0.047984 0.389099 0.751038 -0.944856
H16   H     H_    0.990245 0.363853 0.812904 0.244819
H17   H     H_    0.085343 0.301683 0.729258 0.244504
H18   H     H_    0.086798 0.458168 0.809060 0.246498
O9    O     O_3   0.570094 0.094627 0.731518 -0.593046
C33   C     C_3   0.585624 0.998215 0.827168 0.105110
H19   H     H_    0.624297 0.920011 0.780393 0.124923
H20   H     H_    0.524625 0.958879 0.868954 0.141569
C34   C     C_3   0.634627 0.054560 0.945159 -0.844207
H21   H     H_    0.600127 0.137515 0.989353 0.251138
H22   H     H_    0.641496 0.982209 0.026312 0.215197
H23   H     H_    0.698729 0.085899 0.908462 0.254458
O10   O     O_3   0.429901 0.905368 0.268480 -0.593040
C35   C     C_3   0.414356 0.001780 0.172837 0.105092
H24   H     H_    0.475349 0.041137 0.131051 0.141562
H25   H     H_    0.375672 0.079968 0.219620 0.124917
C36   C     C_3   0.365357 0.945424 0.054844 -0.844210
H26   H     H_    0.301261 0.914061 0.091545 0.254460
H27   H     H_    0.358473 0.017777 0.973697 0.215197
H28   H     H_    0.399869 0.862483 0.010643 0.251138
O11   O     O_3   0.366754 0.375322 0.897420 -0.582281
C37   C     C_3   0.315200 0.322041 0.002648 0.075919
H29   H     H_    0.289028 0.397411 0.072105 0.139639
H30   H     H_    0.351480 0.252489 0.062947 0.127751
C38   C     C_3   0.241178 0.252151 0.939332 -0.823895
H31   H     H_    0.264950 0.176979 0.867977 0.256993
H32   H     H_    0.200671 0.207678 0.020839 0.206196
H33   H     H_    0.202651 0.320516 0.881886 0.262328
O12   O     O_3   0.633241 0.624687 0.102582 -0.582281
C39   C     C_3   0.684817 0.677925 0.997353 0.075926
H34   H     H_    0.648548 0.747428 0.936975 0.127745
H35   H     H_    0.711018 0.602520 0.927968 0.139643
C40   C     C_3   0.758810 0.747877 0.060675 -0.823885
H36   H     H_    0.797315 0.679572 0.118237 0.262344
H37   H     H_    0.799345 0.792281 0.979161 0.206199
H38   H     H_    0.735011 0.823109 0.131934 0.256961

loop_
_geom_bond_atom_site_label_1
_geom_bond_atom_site_label_2
_ccdc_geom_bond_type
O12   C39   S    
C4    H6    S    
C7    C29   S    
C10   H12   S    
C31   H13   S    
C19   H1    S    
C29   O9    S    
C30   O10   S    
C2    O2    A    
C24   C31   S    
C23   C32   S    
C17   C23   S    
C8    H8    S    
C18   C24   S    
C17   C26   S    
C14   N2    S    
C24   C26   S    
C14   O12   S    
C4    C7    S    
C11   C14   S    
C13   O11   S    
C3    C29   S    
C9    C13   S    
N1    Zn1   S    
C9    N2    S    
C20   C23   S    
C11   N1    S    
C15   O7    A    
C9    C11   S    
C23   C25   S    
C21   C27   T    
O1    Zn1   S    
C32   H16   S    
C22   C28   T    
C18   C25   S    
C17   H3    S    
C35   C36   S    
O4    Zn1   S    
C32   H17   S    
C34   H21   S    
C33   C34   S    
O11   C37   S    
C35   H24   S    
C35   H25   S    
C3    C8    S    
C10   C14   S    
C40   H36   S    
C5    C7    S    
C1    O3    A    
C6    C8    S    
C2    O4    A    
C1    C6    S    
C34   H22   S    
C33   H20   S    
C12   H10   S    
C36   H26   S    
C40   H37   S    
C18   H4    S    
C38   H31   S    
C39   C40   S    
C3    H5    S    
O2    Zn2   S    
C38   H33   S    
C7    H7    S    
O6    Zn2   S    
C12   C13   S    
C11   H9    S    
C36   H27   S    
C10   C12   S    
O3    Zn2   S    
C37   H30   S    
C38   H32   S    
C39   H35   S    
C31   H14   S    
C4    C6    S    
C13   N1    S    
O8    Zn1   S    
C37   C38   S    
C5    C30   S    
C20   H2    S    
C32   H18   S    
C16   C22   S    
C10   N1    S    
C9    H11   S    
C16   O8    A    
C16   O6    A    
C37   H29   S    
C3    C5    S    
C25   C27   S    
C26   C28   S    
O7    Zn2   S    
C8    C30   S    
C33   H19   S    
C34   H23   S    
C19   C24   S    
O10   C35   S    
C12   N2    S    
C40   H38   S    
C1    O1    A    
C20   C26   S    
O5    Zn1   S    
C17   C19   S    
C18   C20   S    
C15   O5    A    
C19   C25   S    
C36   H28   S    
O9    C33   S    
C2    C5    S    
N2    Zn2   S    
C15   C21   S    
C6    C29   S    
C39   H34   S    
C31   H15   S    
C4    C30   S    
