data_mof_unit_54536.cif
_audit_creation_date              2012-12-10T21:11:38-0500
_audit_creation_method            fapswitch 2.2
_symmetry_space_group_name_H-M    P1
_symmetry_Int_Tables_number       1
_space_group_crystal_system       triclinic
_cell_length_a                    17.53384
_cell_length_b                    16.669638
_cell_length_c                    10.577044
_cell_angle_alpha                 90.130252
_cell_angle_beta                  90.28229
_cell_angle_gamma                 90.082513
_cell_volume                      3091.43890574

loop_
_atom_site_label
_atom_site_type_symbol
_atom_type_description
_atom_site_fract_x
_atom_site_fract_y
_atom_site_fract_z
_atom_type_partial_charge
C1    C     C_R   0.352847 0.499900 0.503442 0.939434
C2    C     C_R   0.466159 0.167057 0.398802 0.417222
C3    C     C_R   0.467779 0.747374 0.401413 -0.144889
C4    C     C_R   0.530686 0.252351 0.599695 -0.153716
C5    C     C_R   0.532027 0.747956 0.598557 -0.141253
C6    C     C_R   0.468587 0.252216 0.400724 -0.151739
C7    C     C_R   0.499412 0.875370 0.500074 -0.129134
C8    C     C_R   0.499016 0.124562 0.500351 -0.134205
C9    C     C_1   0.499102 0.963385 0.500160 0.152426
C10   C     C_1   0.498954 0.036555 0.500231 0.147775
C11   C     C_R   0.512857 0.499920 0.260352 0.888033
C12   C     C_R   0.647240 0.500111 0.500626 0.935984
C13   C     C_R   0.487429 0.500101 0.739812 0.887749
C14   C     C_R   0.546130 0.646660 0.110288 -0.388572
C15   C     C_R   0.454565 0.353381 0.890375 -0.388650
C16   C     C_R   0.458014 0.647896 0.891791 -0.390229
C17   C     C_R   0.542951 0.352379 0.108568 -0.390006
C18   C     C_R   0.527546 0.720836 0.053878 0.486250
C19   C     C_R   0.473057 0.279286 0.947199 0.477328
C20   C     C_R   0.477843 0.721479 0.949845 0.481292
C21   C     C_R   0.522976 0.278773 0.050937 0.477629
C22   C     C_R   0.483676 0.573967 0.941413 0.036507
C23   C     C_R   0.886398 0.496279 0.558713 0.003119
C24   C     C_R   0.517227 0.426210 0.058805 0.030304
C25   C     C_R   0.518940 0.573478 0.059460 0.033785
C26   C     C_R   0.481878 0.426630 0.940841 0.027843
C27   C     C_R   0.475489 0.500366 0.876023 -0.148478
C28   C     C_R   0.525227 0.499746 0.124242 -0.149841
C29   C     C_R   0.846390 0.566563 0.581954 -0.267479
C30   C     C_R   0.155720 0.431369 0.591860 -0.266510
C31   C     C_R   0.149055 0.569003 0.519528 -0.270581
C32   C     C_R   0.850340 0.428527 0.509949 -0.270925
C33   C     C_R   0.768624 0.570008 0.556324 0.473977
C34   C     C_R   0.114103 0.500144 0.565358 0.003438
C35   C     C_R   0.233787 0.429695 0.568468 0.466957
C36   C     C_R   0.227586 0.570260 0.500788 0.473329
C37   C     C_R   0.771772 0.429127 0.488921 0.470170
C38   C     C_R   0.730312 0.500213 0.513021 -0.292638
C39   C     C_R   0.270269 0.499584 0.522125 -0.296331
C40   C     C_3   0.619521 0.204110 0.145929 -0.257451
C41   C     C_3   0.382198 0.796030 0.851444 -0.284516
C42   C     C_3   0.375873 0.206794 0.848192 -0.255684
C43   C     C_3   0.623858 0.793373 0.155448 -0.292300
C44   C     C_3   0.740048 0.692954 0.478409 -0.313778
C45   C     C_1   0.966367 0.496608 0.571163 -0.009158
C46   C     C_3   0.262778 0.301426 0.512967 -0.312248
C47   C     C_3   0.265842 0.696967 0.549724 -0.302133
C48   C     C_3   0.735165 0.299111 0.517941 -0.300982
C49   C     C_3   0.370914 0.840578 0.244270 -0.198299
C50   C     C_3   0.627230 0.155479 0.754384 -0.216588
C51   C     C_3   0.629168 0.843522 0.753672 -0.187417
C52   C     C_3   0.369644 0.156573 0.248271 -0.213931
C53   C     C_1   0.034017 0.497931 0.573311 -0.009682
C54   C     C_R   0.465579 0.832577 0.399260 0.410813
C55   C     C_R   0.531976 0.167178 0.602077 0.416217
C56   C     C_R   0.533610 0.833168 0.600760 0.403945
H1    H     H_    0.581951 0.645759 0.193674 0.179519
H2    H     H_    0.553401 0.286757 0.677828 0.160498
H3    H     H_    0.555651 0.713684 0.675797 0.180899
H4    H     H_    0.445858 0.286506 0.322779 0.161707
H5    H     H_    0.622138 0.228241 0.243844 0.166232
H6    H     H_    0.659219 0.237103 0.082532 0.129664
H7    H     H_    0.639339 0.141006 0.150009 0.195519
H8    H     H_    0.341575 0.761879 0.911628 0.126667
H9    H     H_    0.381941 0.773031 0.752834 0.145769
H10   H     H_    0.361804 0.858943 0.847961 0.202039
H11   H     H_    0.375598 0.230737 0.750287 0.174978
H12   H     H_    0.418615 0.354139 0.807136 0.208557
H13   H     H_    0.335993 0.240941 0.909800 0.134074
H14   H     H_    0.354501 0.144214 0.842992 0.192210
H15   H     H_    0.664336 0.759403 0.094683 0.131071
H16   H     H_    0.623318 0.769305 0.253296 0.148964
H17   H     H_    0.645072 0.855991 0.161365 0.199866
H18   H     H_    0.722923 0.664638 0.387010 0.152823
H19   H     H_    0.800074 0.714375 0.473743 0.151480
H20   H     H_    0.703025 0.746097 0.491978 0.174100
H21   H     H_    0.276814 0.321864 0.415594 0.159731
H22   H     H_    0.203130 0.278864 0.516689 0.149199
H23   H     H_    0.422025 0.648125 0.808603 0.178830
H24   H     H_    0.301013 0.250411 0.535523 0.175149
H25   H     H_    0.293102 0.672792 0.637074 0.148772
H26   H     H_    0.208452 0.721484 0.571514 0.148963
H27   H     H_    0.301815 0.747411 0.516690 0.175007
H28   H     H_    0.709933 0.316965 0.610297 0.154894
H29   H     H_    0.793020 0.273474 0.532281 0.146929
H30   H     H_    0.698583 0.251073 0.477379 0.177005
H31   H     H_    0.330675 0.818705 0.317640 0.123186
H32   H     H_    0.386727 0.791622 0.178120 0.172194
H33   H     H_    0.340360 0.886619 0.188003 0.184710
H34   H     H_    0.578903 0.352210 0.191810 0.200774
H35   H     H_    0.615982 0.207718 0.816834 0.161056
H36   H     H_    0.668137 0.171305 0.678281 0.096269
H37   H     H_    0.654831 0.108905 0.813655 0.192380
H38   H     H_    0.669398 0.823660 0.678873 0.123087
H39   H     H_    0.615385 0.793541 0.818908 0.174050
H40   H     H_    0.658845 0.890201 0.810437 0.182807
H41   H     H_    0.382083 0.207064 0.183230 0.166016
H42   H     H_    0.330132 0.175653 0.324729 0.096124
H43   H     H_    0.339763 0.109821 0.191957 0.190416
H44   H     H_    0.875720 0.619383 0.617451 0.159846
H45   H     H_    0.127486 0.378628 0.629107 0.157501
H46   H     H_    0.115291 0.621508 0.496723 0.158891
H47   H     H_    0.883426 0.375818 0.485911 0.157118
H48   H     H_    0.444331 0.712617 0.324248 0.176125
N1    N     N_R   0.500000 0.707230 0.500000 -0.135124
N2    N     N_R   0.500000 0.292770 0.500000 -0.123290
O1    O     O_R   0.389110 0.566570 0.499990 -0.578392
O2    O     O_3   0.457040 0.795916 0.901129 -0.530380
O3    O     O_3   0.450859 0.205421 0.897259 -0.535299
O4    O     O_3   0.549313 0.794673 0.104537 -0.531682
O5    O     O_3   0.729663 0.640334 0.581264 -0.587951
O6    O     O_3   0.275409 0.362642 0.602975 -0.597590
O7    O     O_3   0.261674 0.638644 0.452935 -0.587535
O8    O     O_3   0.736717 0.363716 0.432087 -0.593876
O9    O     O_3   0.436690 0.876277 0.297575 -0.546339
O10   O     O_3   0.558471 0.123708 0.705590 -0.536504
O11   O     O_3   0.561980 0.877296 0.702734 -0.547338
O12   O     O_R   0.610890 0.433430 0.500010 -0.580447
O13   O     O_3   0.437856 0.123393 0.296399 -0.538254
O14   O     O_R   0.610890 0.566570 0.500010 -0.577125
O15   O     O_R   0.389110 0.433430 0.499990 -0.577569
O16   O     O_R   0.499990 0.566540 0.316770 -0.622212
O17   O     O_R   0.500010 0.433460 0.683230 -0.622351
O18   O     O_R   0.500010 0.566540 0.683230 -0.622243
O19   O     O_R   0.499990 0.433460 0.316770 -0.623413
O20   O     O_3   0.543717 0.204555 0.100394 -0.534468
Zn1   Zn    Zn3+2 0.500000 0.588860 0.500000 0.956214
Zn2   Zn    Zn3+2 0.500000 0.411140 0.500000 0.957318

loop_
_geom_bond_atom_site_label_1
_geom_bond_atom_site_label_2
_ccdc_geom_bond_type
C3    H48   S    
C43   H17   S    
C8    C10   S    
C43   H16   S    
C23   C45   S    
C41   O2    S    
C46   O6    S    
C56   O11   S    
C49   H31   S    
C5    C56   A    
N1    Zn1   S    
O14   Zn1   S    
C5    N1    A    
C3    N1    A    
C25   C28   A    
C15   C19   A    
C26   C27   A    
C40   H7    S    
C30   C35   A    
C23   C29   A    
C11   O19   A    
C42   O3    S    
C24   C26   A    
C13   O17   A    
C3    C54   A    
C55   O10   S    
N2    Zn2   S    
C52   H41   S    
C42   H14   S    
C40   H6    S    
C47   O7    S    
C47   H26   S    
O16   Zn1   S    
C44   H20   S    
C14   C18   A    
C12   O14   A    
C29   C33   A    
C22   C25   A    
O19   Zn2   S    
C43   H15   S    
C33   O5    S    
C43   O4    S    
C47   H27   S    
C9    C10   T    
C50   O10   S    
C51   H40   S    
C45   C53   T    
C49   H32   S    
C2    C6    A    
O12   Zn2   S    
C7    C56   A    
C36   O7    S    
C8    C55   A    
C19   O3    S    
C32   H47   S    
C17   C24   A    
C30   C34   A    
C31   H46   S    
C6    H4    S    
O15   Zn2   S    
C46   H22   S    
C13   O18   A    
C5    H3    S    
C15   C26   A    
C41   H9    S    
C37   O8    S    
C4    N2    A    
C42   H13   S    
C17   C21   A    
C40   H5    S    
C48   H28   S    
C44   H19   S    
C35   C39   A    
C44   O5    S    
C37   C38   A    
C16   C20   A    
C40   O20   S    
C54   O9    S    
C6    N2    A    
C31   C34   A    
C32   C37   A    
C44   H18   S    
C1    O1    A    
O18   Zn1   S    
C12   O12   A    
C50   H36   S    
C49   O9    S    
C22   C27   A    
C4    C55   A    
C42   H11   S    
C48   H30   S    
C11   O16   A    
C48   O8    S    
C7    C9    S    
C14   H1    S    
C16   C22   A    
C29   H44   S    
C19   C21   A    
C48   H29   S    
C36   C39   A    
C2    C8    A    
C17   H34   S    
C24   C28   A    
C49   H33   S    
C46   H21   S    
C2    O13   S    
C50   H37   S    
C41   H10   S    
C52   H43   S    
C33   C38   A    
C7    C54   A    
C16   H23   S    
C23   C32   A    
O1    Zn1   S    
C46   H24   S    
O17   Zn2   S    
C11   C28   S    
C15   H12   S    
C30   H45   S    
C52   H42   S    
C51   O11   S    
C18   C20   A    
C47   H25   S    
C14   C25   A    
C12   C38   S    
C1    O15   A    
C1    C39   S    
C51   H38   S    
C52   O13   S    
C50   H35   S    
C34   C53   S    
C18   O4    S    
C4    H2    S    
C31   C36   A    
C13   C27   S    
C41   H8    S    
C21   O20   S    
C35   O6    S    
C51   H39   S    
C20   O2    S    
