data_mof_unit_15117.cif
_audit_creation_date              2012-12-10T17:17:25-0500
_audit_creation_method            fapswitch 2.2
_symmetry_space_group_name_H-M    P1
_symmetry_Int_Tables_number       1
_space_group_crystal_system       triclinic
_cell_length_a                    10.253664
_cell_length_b                    10.517818
_cell_length_c                    12.553786
_cell_angle_alpha                 91.638158
_cell_angle_beta                  109.496429
_cell_angle_gamma                 96.477582
_cell_volume                      1264.92701667

loop_
_atom_site_label
_atom_site_type_symbol
_atom_type_description
_atom_site_fract_x
_atom_site_fract_y
_atom_site_fract_z
_atom_type_partial_charge
C1    C     C_R   0.050453 0.734880 0.490092 0.869060
C2    C     C_R   0.445582 0.556676 0.968158 0.075257
C3    C     C_R   0.332950 0.487080 0.881102 0.063184
C4    C     C_R   0.567463 0.497816 0.016979 0.053155
C5    C     C_R   0.586773 0.386321 0.960286 0.125145
C6    C     C_R   0.475879 0.320910 0.871695 -0.240252
C7    C     C_R   0.347556 0.366107 0.837932 -0.189173
C8    C     C_R   0.664297 0.538895 0.125045 0.128130
C9    C     C_R   0.815487 0.385767 0.098569 -0.241218
C10   C     C_R   0.212844 0.545636 0.830456 -0.106598
C11   C     C_2   0.066438 0.870801 0.465795 0.078469
C12   C     C_R   0.133679 0.511791 0.712457 0.850580
C13   C     C_2   0.947151 0.922082 0.419030 -0.253508
C14   C     C_2   0.904193 0.126837 0.489621 0.079751
C15   C     C_2   0.947474 0.059976 0.417402 -0.238540
C16   C     C_2   0.437165 0.503943 0.519030 0.302959
C17   C     C_2   0.572584 0.473195 0.506902 -0.157977
C18   C     C_R   0.945501 0.265299 0.503156 0.877697
C19   C     C_R   0.865898 0.491473 0.287129 0.856892
C20   C     C_R   0.714082 0.336988 0.997241 -0.204669
C21   C     C_R   0.786867 0.479011 0.166402 -0.113620
C22   C     C_R   0.196931 0.664260 0.874994 -0.190729
C23   C     C_R   0.309776 0.735429 0.956553 -0.178550
C24   C     C_R   0.435789 0.685852 0.996955 -0.176111
H1    H     H_    0.845957 0.863718 0.394401 0.151179
H2    H     H_    0.576196 0.382753 0.464948 0.167120
H3    H     H_    0.261464 0.308952 0.773271 0.154381
H4    H     H_    0.004833 0.109218 0.368580 0.148894
N1    N     N_2   0.313640 0.446500 0.454900 -0.051086
N2    N     N_2   0.686360 0.553430 0.545150 -0.199436
O1    O     O_R   0.936910 0.692950 0.509080 -0.622688
O2    O     O_R   0.138320 0.658600 0.480130 -0.622910
O3    O     O_R   0.002900 0.525670 0.675280 -0.601209
O4    O     O_R   0.204310 0.491320 0.646330 -0.605426
O5    O     O_R   0.861680 0.341400 0.519870 -0.589680
O6    O     O_R   0.063090 0.307050 0.490920 -0.615914
O7    O     O_R   0.795690 0.508680 0.353670 -0.599125
O8    O     O_R   0.997100 0.474330 0.324720 -0.612511
Zn1   Zn    Zn3+2 0.865520 0.522940 0.519330 0.923294
Zn2   Zn    Zn3+2 0.134480 0.477060 0.480670 0.927617
H5    H     H_    0.908997 0.339824 0.129786 0.157816
N3    N     N_2   0.823935 0.067277 0.552825 -0.298586
H6    H     H_    0.778084 0.974350 0.525902 0.238431
C25   C     C_3   0.887496 0.087295 0.674640 -0.799743
H7    H     H_    0.815462 0.040808 0.715495 0.232642
H8    H     H_    0.908558 0.191258 0.701609 0.244962
H9    H     H_    0.986596 0.044302 0.703558 0.241298
N4    N     N_2   0.198733 0.950434 0.498842 -0.298709
H10   H     H_    0.210957 0.015803 0.442139 0.231125
C26   C     C_3   0.324760 0.900083 0.562847 -0.798677
H11   H     H_    0.410661 0.980483 0.596656 0.236911
H12   H     H_    0.354740 0.834742 0.506560 0.248447
H13   H     H_    0.310548 0.850850 0.636070 0.239620
N5    N     N_2   0.447357 0.605599 0.600400 -0.328963
H14   H     H_    0.358811 0.643991 0.594840 0.280754
C27   C     C_3   0.539422 0.598833 0.715765 -0.786537
H15   H     H_    0.484374 0.619213 0.775064 0.251787
H16   H     H_    0.630574 0.674137 0.735484 0.226727
H17   H     H_    0.575833 0.503151 0.730451 0.259085
H18   H     H_    0.678812 0.644366 0.572801 0.194435
N6    N     N_2   0.315439 0.338024 0.391361 -0.279773
H19   H     H_    0.319481 0.256573 0.435621 0.218900
C28   C     C_3   0.209466 0.321569 0.280753 -0.704205
H20   H     H_    0.236098 0.249669 0.227564 0.203448
H21   H     H_    0.203910 0.413490 0.238924 0.245210
H22   H     H_    0.107071 0.285467 0.287645 0.239915
H23   H     H_    0.486745 0.231975 0.831566 0.149847
H24   H     H_    0.731842 0.255548 0.951393 0.142280
N7    N     N_2   0.630782 0.628128 0.197230 -0.325121
H25   H     H_    0.713181 0.689062 0.252030 0.220503
C29   C     C_3   0.522418 0.580748 0.242386 -0.679325
H26   H     H_    0.520665 0.650231 0.310037 0.216927
H27   H     H_    0.540138 0.486154 0.277435 0.256093
H28   H     H_    0.418130 0.568661 0.175743 0.235190
H29   H     H_    0.104526 0.709824 0.835677 0.153683
H30   H     H_    0.525064 0.751170 0.048329 0.165285
H31   H     H_    0.302555 0.832660 0.982569 0.146487

loop_
_geom_bond_atom_site_label_1
_geom_bond_atom_site_label_2
_ccdc_geom_bond_type
C29   H28   S    
O5    Zn1   S    
C23   C24   A    
C25   H9    S    
C6    C7    A    
C19   O8    A    
N5    H14   S    
C18   O5    A    
C14   C18   S    
C9    C20   A    
C9    H5    S    
C1    C11   S    
C27   H17   S    
C4    C8    A    
C14   N3    S    
C13   H1    S    
C28   H21   S    
C16   N5    S    
N4    C26   S    
C8    C21   A    
C15   H4    S    
C28   H22   S    
C29   H26   S    
O7    Zn1   S    
C3    C10   A    
C4    C5    A    
C10   C22   A    
O8    Zn2   S    
C17   N2    D    
C11   C13   D    
C9    C21   A    
C11   N4    S    
O3    Zn1   S    
N3    C25   S    
C22   H29   S    
O4    Zn2   S    
C17   H2    S    
C10   C12   S    
N1    Zn2   S    
C6    H23   S    
C19   C21   S    
C25   H8    S    
N2    Zn1   S    
C26   H11   S    
C3    C7    A    
C2    C3    A    
N7    H25   S    
C13   C15   S    
C2    C24   A    
N6    H19   S    
C5    C20   A    
N5    C27   S    
C26   H13   S    
N3    H6    S    
C1    O2    A    
C12   O4    A    
C28   H20   S    
C2    C4    A    
C1    O1    A    
O2    Zn2   S    
C7    H3    S    
C27   H15   S    
C16   N1    D    
N7    C29   S    
N4    H10   S    
C29   H27   S    
C26   H12   S    
C5    C6    A    
C8    N7    S    
C22   C23   A    
C24   H30   S    
O6    Zn2   S    
C19   O7    A    
N1    N6    S    
C12   O3    A    
C14   C15   D    
C27   H16   S    
C18   O6    A    
C20   H24   S    
N6    C28   S    
C23   H31   S    
C25   H7    S    
O1    Zn1   S    
C16   C17   S    
N2    H18   S    
