data_mof_unit_66643.cif
_audit_creation_date              2012-12-11T16:11:52-0500
_audit_creation_method            fapswitch 2.2
_symmetry_space_group_name_H-M    P1
_symmetry_Int_Tables_number       1
_space_group_crystal_system       triclinic
_cell_length_a                    7.065033
_cell_length_b                    14.539057
_cell_length_c                    15.852147
_cell_angle_alpha                 90.055694
_cell_angle_beta                  87.479339
_cell_angle_gamma                 88.785414
_cell_volume                      1626.37141409

loop_
_atom_site_label
_atom_site_type_symbol
_atom_type_description
_atom_site_fract_x
_atom_site_fract_y
_atom_site_fract_z
_atom_type_partial_charge
O1    O     O_R   0.638960 0.835150 0.161940 -0.505384
O2    O     O_R   0.361040 0.164850 0.838060 -0.504342
O3    O     O_R   0.309170 0.846340 0.337470 -0.523766
O4    O     O_R   0.690830 0.153660 0.662530 -0.532370
O5    O     O_R   0.138810 0.664830 0.338070 -0.528204
O6    O     O_R   0.861190 0.335170 0.661930 -0.525213
C1    C     C_R   0.474411 0.864653 0.369345 0.927068
C2    C     C_R   0.525822 0.135651 0.630348 0.925887
O7    O     O_R   0.309250 0.846350 0.162570 -0.524397
O8    O     O_R   0.690750 0.153650 0.837430 -0.521197
O9    O     O_R   0.138880 0.664840 0.161920 -0.566873
O10   O     O_R   0.861120 0.335160 0.838080 -0.562603
C3    C     C_R   0.479427 0.870987 0.136166 0.840709
C4    C     C_R   0.520242 0.128537 0.863448 0.845106
O11   O     O_R   0.638880 0.835150 0.338090 -0.517515
O12   O     O_R   0.361120 0.164850 0.661910 -0.540155
O13   O     O_3   0.472380 0.690440 0.250000 -0.396622
O14   O     O_3   0.527620 0.309560 0.750000 -0.386155
V1    V     V_3+5 0.197550 0.761040 0.250010 1.769610
V2    V     V_3+5 0.802450 0.238960 0.749990 1.735803
O15   O     O_R   0.809160 0.653640 0.162540 -0.536493
O16   O     O_R   0.190840 0.346360 0.837460 -0.532784
C5    C     C_R   0.981058 0.633531 0.132310 0.814753
C6    C     C_R   0.018898 0.366301 0.867806 0.824343
O17   O     O_R   0.809090 0.653640 0.337440 -0.520492
O18   O     O_R   0.190910 0.346360 0.662560 -0.517299
C7    C     C_R   0.976722 0.631262 0.365945 0.842470
C8    C     C_R   0.023312 0.368964 0.634178 0.836327
V3    V     V_3+5 0.697540 0.738950 0.250000 1.771673
V4    V     V_3+5 0.302460 0.261050 0.750000 1.750555
O19   O     O_3   0.972580 0.809550 0.250010 -0.337188
O20   O     O_3   0.027420 0.190450 0.749990 -0.356118
C9    C     C_3   0.120375 0.566291 0.509390 0.405275
C10   C     C_3   0.880063 0.434282 0.490862 0.402129
C11   C     C_3   0.960551 0.543080 0.574662 -0.200061
C12   C     C_3   0.039688 0.457433 0.425535 -0.216173
C13   C     C_3   0.014436 0.439996 0.563874 -0.178331
C14   C     C_3   0.985921 0.560574 0.436384 -0.182553
C15   C     C_3   0.176331 0.463855 0.499371 -0.135411
C16   C     C_3   0.824047 0.536753 0.500846 -0.126589
C17   C     C_3   0.837488 0.451879 0.004719 -0.293332
C18   C     C_3   0.162127 0.547867 0.995354 -0.258280
C19   C     C_3   0.982519 0.459618 0.074425 0.486427
C20   C     C_3   0.016881 0.540053 0.925754 0.540510
C21   C     C_3   0.995507 0.563755 0.060873 -0.171748
C22   C     C_3   0.004134 0.435951 0.939337 -0.168870
C23   C     C_3   0.850352 0.557473 0.990548 -0.186798
C24   C     C_3   0.149225 0.442203 0.009659 -0.196415
C25   C     C_3   0.602849 0.021131 0.429927 0.362062
C26   C     C_3   0.398210 0.979774 0.568917 0.292207
C27   C     C_3   0.438167 0.080540 0.469368 0.404588
C28   C     C_3   0.563058 0.920255 0.529722 0.423150
C29   C     C_3   0.517280 0.066750 0.558127 -0.364944
C30   C     C_3   0.483857 0.933981 0.440941 -0.345344
C31   C     C_3   0.683335 0.007439 0.518528 -0.286751
C32   C     C_3   0.317531 0.993378 0.480316 -0.330393
C33   C     C_3   0.663777 0.954749 0.005116 0.463506
C34   C     C_3   0.333663 0.044160 0.994043 0.465983
C35   C     C_3   0.536994 0.950939 0.929531 0.312833
C36   C     C_3   0.460175 0.047797 0.069662 0.314524
C37   C     C_3   0.506024 0.056936 0.933067 -0.346508
C38   C     C_3   0.491869 0.941966 0.066118 -0.346688
C39   C     C_3   0.634685 0.061394 0.009165 -0.283624
C40   C     C_3   0.362684 0.937475 0.990164 -0.278905
H1    H     H_    0.929731 0.581790 0.633939 0.243860
H2    H     H_    0.070730 0.418853 0.366196 0.248885
S1    S     S_3+6 0.575842 0.877523 0.839344 0.176639
O21   O     O_2   0.387359 0.845407 0.812994 -0.257699
O22   O     O_2   0.672264 0.930265 0.768910 -0.234555
O23   O     O_3   0.707217 0.783187 0.859185 -0.428629
H3    H     H_    0.617653 0.739503 0.886256 0.366130
S2    S     S_3+6 0.418885 0.119952 0.160421 0.157823
O24   O     O_2   0.325472 0.066150 0.230975 -0.240007
O25   O     O_2   0.606628 0.152942 0.186108 -0.293115
O26   O     O_3   0.284978 0.213747 0.141754 -0.416497
H4    H     H_    0.373095 0.258198 0.114840 0.352042
S3    S     S_3+6 0.876205 0.887800 0.006261 0.069383
O27   O     O_2   0.989591 0.915356 0.079526 -0.283294
O28   O     O_2   0.831357 0.787661 0.014980 -0.397032
O29   O     O_3   0.993715 0.905537 0.913352 -0.427118
H5    H     H_    0.035361 0.844020 0.892787 0.419316
S4    S     S_3+6 0.121883 0.111827 0.992913 0.067980
O30   O     O_2   0.168407 0.211775 0.984205 -0.398927
O31   O     O_2   0.008210 0.084746 0.919606 -0.279262
O32   O     O_3   0.003486 0.094826 0.085765 -0.436858
H6    H     H_    0.959344 0.156431 0.105293 0.411376
H7    H     H_    0.724482 0.121589 0.015399 0.220300
H8    H     H_    0.272577 0.877360 0.983900 0.226301
S5    S     S_3+6 0.291160 0.650109 0.524251 0.061339
O33   O     O_2   0.420523 0.654756 0.446818 -0.330361
O34   O     O_2   0.195966 0.742238 0.539325 -0.292124
O35   O     O_3   0.413978 0.617074 0.607756 -0.449874
H9    H     H_    0.329069 0.631903 0.657403 0.406041
S6    S     S_3+6 0.706731 0.351332 0.478578 0.063035
O36   O     O_2   0.796733 0.257477 0.467510 -0.304614
O37   O     O_2   0.578077 0.352180 0.556436 -0.324401
O38   O     O_3   0.585401 0.381545 0.393821 -0.449251
H10   H     H_    0.672902 0.367147 0.344912 0.413419
H11   H     H_    0.324363 0.439339 0.497945 0.267045
H12   H     H_    0.676122 0.561820 0.501686 0.263133
S7    S     S_3+6 0.961369 0.407661 0.175870 -0.009104
O39   O     O_2   0.155522 0.393189 0.209132 -0.307262
O40   O     O_2   0.845604 0.469186 0.235237 -0.388957
O41   O     O_3   0.854750 0.306294 0.168751 -0.465368
H13   H     H_    0.725498 0.322013 0.150817 0.351368
S8    S     S_3+6 0.033911 0.590801 0.823828 -0.016845
O42   O     O_2   0.156870 0.530853 0.765904 -0.382761
O43   O     O_2   0.838647 0.599665 0.790380 -0.331624
O44   O     O_3   0.130153 0.694703 0.830052 -0.470829
H14   H     H_    0.112508 0.722627 0.773939 0.412242
H15   H     H_    0.704862 0.412239 0.009334 0.141553
H16   H     H_    0.294500 0.587689 0.990326 0.161954
H17   H     H_    0.728358 0.605289 0.981643 0.170290
H18   H     H_    0.271165 0.394357 0.018596 0.165865
S9    S     S_3+6 0.336409 0.182944 0.428519 0.151726
O45   O     O_2   0.305804 0.252933 0.497370 -0.332351
O46   O     O_2   0.460208 0.219934 0.358040 -0.196505
O47   O     O_3   0.127211 0.161143 0.390081 -0.437335
H19   H     H_    0.091701 0.220349 0.363533 0.413003
S10   S     S_3+6 0.667381 0.819393 0.573143 0.170238
O48   O     O_2   0.536338 0.779547 0.639479 -0.210132
O49   O     O_2   0.714070 0.750096 0.504928 -0.326308
O50   O     O_3   0.866886 0.846195 0.618879 -0.407579
H20   H     H_    0.888993 0.794744 0.658459 0.419627
S11   S     S_3+6 0.761991 0.037857 0.340111 0.161863
O51   O     O_2   0.947541 0.990102 0.355355 -0.320139
O52   O     O_2   0.683873 0.996605 0.262708 -0.296396
O53   O     O_3   0.798294 0.149706 0.323085 -0.386289
H21   H     H_    0.888217 0.151128 0.273345 0.428353
S12   S     S_3+6 0.240830 0.962815 0.659022 0.187362
O54   O     O_2   0.208576 0.862398 0.671590 -0.212050
O55   O     O_2   0.321036 0.001881 0.736852 -0.286196
O56   O     O_3   0.032596 0.016909 0.645513 -0.450771
H22   H     H_    0.064851 0.075422 0.616987 0.313458
H23   H     H_    0.835912 0.013511 0.528006 0.226553
H24   H     H_    0.165600 0.986601 0.468715 0.244311

loop_
_geom_bond_atom_site_label_1
_geom_bond_atom_site_label_2
_ccdc_geom_bond_type
V4    O20   S    
S7    O39   D    
C5    C21   S    
C10   C13   S    
O13   V3    S    
O4    C2    A    
V1    O19   S    
O53   H21   S    
O38   H10   S    
C33   C38   S    
S3    O27   D    
O9    V1    S    
C35   C40   S    
C9    C15   S    
C36   C39   S    
C10   C16   S    
C11   C13   S    
C28   C31   S    
O3    C1    A    
C34   S4    S    
C9    C11   S    
C12   H2    S    
C33   C35   S    
S8    O42   D    
C36   S2    S    
C7    C14   S    
O12   V4    S    
C25   C30   S    
C36   C38   S    
C27   C32   S    
C37   C39   S    
C18   H16   S    
O47   H19   S    
O7    C3    A    
C26   S12   S    
C35   S1    S    
O5    C7    A    
O7    V1    S    
O6    C8    A    
C3    C38   S    
C20   C22   S    
C25   C27   S    
S11   O53   S    
C26   C28   S    
C17   C22   S    
O3    V1    S    
O23   H3    S    
O14   V4    S    
S5    O34   D    
C19   C24   S    
C38   C40   S    
S10   O50   S    
C34   C37   S    
C21   C23   S    
C2    O12   A    
C34   C40   S    
C17   C19   S    
C18   C20   S    
S2    O26   S    
O41   H13   S    
C32   H24   S    
C28   C30   S    
O11   V3    S    
C22   C24   S    
C29   C31   S    
O17   V3    S    
C30   C32   S    
C35   C37   S    
C26   C29   S    
S1    O21   D    
C33   S3    S    
O50   H20   S    
S2    O25   D    
O8    C4    A    
O8    V2    S    
S2    O24   D    
C1    O11   A    
S6    O38   S    
S9    O46   D    
O32   H6    S    
C4    C37   S    
O15   V3    S    
C26   C32   S    
C27   C29   S    
C18   C21   S    
S12   O55   D    
O26   H4    S    
C19   S7    S    
C9    S5    S    
C15   H11   S    
S9    O47   S    
O10   V2    S    
O1    V3    S    
C17   C23   S    
S3    O28   D    
C18   C24   S    
S5    O35   S    
S6    O37   D    
C19   C21   S    
C28   S10   S    
O18   V4    S    
S7    O41   S    
S4    O31   D    
O15   C5    A    
O56   H22   S    
O16   C6    A    
S12   O56   S    
O1    C3    A    
C25   S11   S    
S10   O48   D    
S10   O49   D    
C24   H18   S    
V2    O20   S    
S3    O29   S    
C23   H17   S    
O16   V4    S    
C39   H7    S    
C12   C15   S    
C10   S6    S    
C33   C39   S    
O29   H5    S    
C2    C29   S    
C16   H12   S    
C20   C23   S    
O5    V1    S    
C20   S8    S    
O17   C7    A    
S4    O32   S    
O6    V2    S    
O10   C6    A    
O18   C8    A    
C9    C14   S    
S7    O40   D    
O2    V4    S    
S1    O23   S    
C6    C22   S    
C12   C14   S    
C11   C16   S    
V3    O19   S    
C25   C31   S    
O44   H14   S    
C14   C16   S    
S11   O51   D    
S8    O43   D    
C8    C13   S    
C31   H23   S    
O9    C5    A    
O35   H9    S    
O13   V1    S    
C10   C12   S    
S12   O54   D    
O14   V2    S    
S6    O36   D    
O2    C4    A    
C27   S9    S    
O4    V2    S    
C13   C15   S    
S4    O30   D    
C17   H15   S    
S11   O52   D    
C11   H1    S    
C1    C30   S    
S1    O22   D    
S5    O33   D    
C34   C36   S    
C40   H8    S    
S9    O45   D    
S8    O44   S    
