data_mof_unit_53621.cif
_audit_creation_date              2012-12-10T17:53:25-0500
_audit_creation_method            fapswitch 2.2
_symmetry_space_group_name_H-M    P1
_symmetry_Int_Tables_number       1
_space_group_crystal_system       triclinic
_cell_length_a                    23.426301
_cell_length_b                    10.707657
_cell_length_c                    9.865838
_cell_angle_alpha                 89.370429
_cell_angle_beta                  89.839653
_cell_angle_gamma                 91.746745
_cell_volume                      2473.44321357

loop_
_atom_site_label
_atom_site_type_symbol
_atom_type_description
_atom_site_fract_x
_atom_site_fract_y
_atom_site_fract_z
_atom_type_partial_charge
C1    C     C_R   0.503019 0.259502 0.501751 0.865866
C2    C     C_R   0.121350 0.598606 0.547209 0.545784
C3    C     C_R   0.237847 0.507663 0.381169 -0.194968
C4    C     C_R   0.389321 0.498896 0.500284 0.873579
C5    C     C_R   0.297007 0.509846 0.379727 -0.219888
C6    C     C_R   0.327083 0.496549 0.501337 -0.076321
C7    C     C_R   0.297383 0.479992 0.624314 -0.367142
C8    C     C_R   0.237561 0.480552 0.626892 0.545966
C9    C     C_R   0.208351 0.492831 0.503820 0.253923
C10   C     C_R   0.762201 0.497101 0.621023 -0.097232
C11   C     C_R   0.702953 0.496220 0.621880 -0.218675
C12   C     C_R   0.966526 0.289303 0.408333 -0.153871
C13   C     C_R   0.672956 0.502613 0.499124 -0.053536
C14   C     C_R   0.702945 0.510839 0.375734 -0.204173
C15   C     C_R   0.762202 0.511745 0.375284 -0.108181
C16   C     C_R   0.492940 0.738421 0.500060 0.882047
C17   C     C_R   0.791731 0.504540 0.497823 0.320392
C18   C     C_R   0.512421 0.107339 0.760993 -0.157550
C19   C     C_R   0.495464 0.044767 0.879885 -0.148418
C20   C     C_R   0.465227 0.931491 0.872532 -0.175272
C21   C     C_R   0.457129 0.875199 0.747177 -0.144566
C22   C     C_R   0.478759 0.933207 0.626973 0.107701
C23   C     C_R   0.025911 0.287369 0.409722 -0.157462
C24   C     C_R   0.498517 0.057500 0.631846 0.095163
C25   C     C_R   0.503151 0.125055 0.506851 -0.116376
C26   C     C_R   0.498045 0.063563 0.382850 -0.215641
C27   C     C_R   0.489702 0.936699 0.380687 -0.227085
C28   C     C_R   0.610692 0.500885 0.499751 0.889338
C29   C     C_R   0.483362 0.870410 0.502236 -0.134548
C30   C     C_R   0.423746 0.338648 0.142583 -0.144065
C31   C     C_R   0.386130 0.259566 0.073115 -0.201133
C32   C     C_R   0.386131 0.259838 0.932896 -0.186123
C33   C     C_R   0.423828 0.339021 0.861521 -0.145139
C34   C     C_R   0.058002 0.391218 0.455749 -0.024045
C35   C     C_R   0.462145 0.421305 0.928657 0.135862
C36   C     C_R   0.462135 0.421247 0.073420 0.064373
C37   C     C_R   0.536952 0.575284 0.071496 0.510418
C38   C     C_R   0.536962 0.573644 0.926622 -0.260964
C39   C     C_R   0.882537 0.606137 0.542131 0.503247
C40   C     C_R   0.878749 0.399107 0.453012 0.504744
C41   C     C_R   0.938274 0.395126 0.452932 -0.016231
C42   C     C_R   0.970102 0.499837 0.499339 -0.018868
C43   C     C_R   0.942142 0.606482 0.544383 -0.015727
C44   C     C_3   0.582470 0.768133 0.099239 0.070976
C45   C     C_R   0.030033 0.497873 0.500782 -0.020494
C46   C     C_3   0.616667 0.843352 0.202690 -0.767644
C47   C     C_3   0.226472 0.535607 0.851597 0.102700
C48   C     C_3   0.179330 0.547653 0.956538 -0.766034
C49   C     C_R   0.061850 0.602607 0.547180 -0.024545
C50   C     C_R   0.033613 0.708420 0.591789 -0.163096
C51   C     C_R   0.974235 0.710353 0.590377 -0.155272
C52   C     C_R   0.117607 0.391535 0.458171 0.533666
H1    H     H_    0.942894 0.207771 0.372334 0.194913
H2    H     H_    0.489899 0.890348 0.283756 0.169177
H3    H     H_    0.357236 0.197306 0.878915 0.165240
H4    H     H_    0.422278 0.331333 0.754235 0.208640
H5    H     H_    0.567696 0.629714 0.868978 0.161311
H6    H     H_    0.785265 0.491270 0.715752 0.141991
H7    H     H_    0.539621 0.809456 0.088864 0.123392
H8    H     H_    0.605786 0.776257 0.001195 0.143425
H9    H     H_    0.661010 0.809727 0.207724 0.254151
H10   H     H_    0.617981 0.943743 0.172990 0.205417
H11   H     H_    0.596840 0.832865 0.304609 0.263884
H12   H     H_    0.680757 0.489954 0.718283 0.164888
H13   H     H_    0.046529 0.204430 0.374711 0.193601
H14   H     H_    0.421698 0.331136 0.250015 0.208335
H15   H     H_    0.357129 0.196993 0.128611 0.162462
H16   H     H_    0.057248 0.789925 0.627850 0.194794
H17   H     H_    0.953622 0.793287 0.625421 0.194430
H18   H     H_    0.214692 0.518228 0.287096 0.154640
H19   H     H_    0.319095 0.522142 0.283671 0.172135
H20   H     H_    0.320635 0.465098 0.717379 0.161951
H21   H     H_    0.239229 0.631625 0.815522 0.159185
H22   H     H_    0.263337 0.491663 0.901968 0.141062
H23   H     H_    0.680747 0.516540 0.279811 0.190607
H24   H     H_    0.166578 0.454058 0.998107 0.260290
H25   H     H_    0.194758 0.607583 0.040826 0.195476
H26   H     H_    0.141582 0.590729 0.909317 0.268384
H27   H     H_    0.785269 0.517850 0.280043 0.143534
H28   H     H_    0.501341 0.112992 0.286551 0.171203
H29   H     H_    0.537880 0.192105 0.773200 0.171926
H30   H     H_    0.504902 0.085430 0.977620 0.141954
H31   H     H_    0.449723 0.885217 0.964153 0.129372
H32   H     H_    0.433537 0.786780 0.745141 0.158937
N1    N     N_R   0.852432 0.503427 0.497214 -0.359586
N2    N     N_R   0.147651 0.494143 0.503405 -0.337950
N3    N     N_R   0.499460 0.498800 0.142780 -0.154962
N4    N     N_R   0.499440 0.498720 0.857170 -0.138968
O1    O     O_R   0.500000 0.316780 0.614690 -0.651217
O2    O     O_R   0.583850 0.500050 0.614640 -0.623074
O3    O     O_R   0.583840 0.500030 0.385310 -0.564418
O4    O     O_2   0.854732 0.707492 0.583769 -0.551494
O5    O     O_3   0.578098 0.642354 0.143668 -0.584143
O6    O     O_3   0.206028 0.459437 0.744939 -0.606337
O7    O     O_2   0.847259 0.299477 0.410434 -0.551183
O8    O     O_2   0.145473 0.290340 0.416337 -0.551730
O9    O     O_2   0.152852 0.698212 0.589813 -0.569156
O10   O     O_R   0.500000 0.316750 0.385360 -0.641381
O11   O     O_R   0.416160 0.499970 0.614690 -0.646827
O12   O     O_R   0.416150 0.499950 0.385360 -0.647738
O13   O     O_R   0.500000 0.683250 0.614640 -0.622866
O14   O     O_R   0.500000 0.683220 0.385310 -0.590756
Zn1   Zn    Zn3+2 0.500000 0.500020 0.653130 0.923943
Zn2   Zn    Zn3+2 0.500000 0.499980 0.346870 0.973678

loop_
_geom_bond_atom_site_label_1
_geom_bond_atom_site_label_2
_ccdc_geom_bond_type
C40   N1    A    
O11   Zn1   S    
C22   C29   A    
C27   C29   A    
C41   C42   A    
C48   H24   S    
C35   C36   A    
O3    Zn2   S    
C27   H2    S    
C7    C8    A    
C31   H15   S    
C12   C23   A    
C26   C27   A    
C37   C38   A    
C46   H10   S    
C17   N1    S    
C10   H6    S    
C30   C31   A    
C10   C17   A    
O12   Zn2   S    
C18   H29   S    
C18   C19   A    
C48   H26   S    
C44   O5    S    
C15   H27   S    
C31   C32   A    
C2    O9    S    
C8    C9    A    
C13   C28   S    
C52   O8    S    
C18   C24   A    
C19   H30   S    
C32   H3    S    
C12   H1    S    
C33   H4    S    
O13   Zn1   S    
C13   C14   A    
O1    Zn1   S    
C1    C25   S    
C44   C46   S    
C36   N3    A    
C46   H9    S    
C3    H18   S    
C8    O6    S    
C24   C25   A    
C47   H21   S    
C4    C6    S    
C11   H12   S    
C7    H20   S    
C39   C43   A    
C16   C29   S    
C26   H28   S    
C38   N4    A    
C42   C45   A    
C48   H25   S    
C12   C41   A    
C3    C9    A    
C2    C49   A    
C9    N2    S    
C38   H5    S    
C35   N4    A    
C47   C48   S    
C21   H32   S    
C45   C49   A    
C23   C34   A    
C50   C51   A    
C37   O5    S    
C34   C45   A    
O14   Zn2   S    
C30   H14   S    
C16   O14   A    
C40   C41   A    
C4    O12   A    
C22   C24   A    
C4    O11   A    
C42   C43   A    
C39   N1    A    
C40   O7    S    
C39   O4    S    
N4    Zn1   S    
C15   C17   A    
C1    O1    A    
C37   N3    A    
C47   H22   S    
C3    C5    A    
C1    O10   A    
C6    C7    A    
C51   H17   S    
C34   C52   A    
C30   C36   A    
C46   H11   S    
C32   C33   A    
C23   H13   S    
C19   C20   A    
C52   N2    A    
C25   C26   A    
C5    H19   S    
C14   H23   S    
C11   C13   A    
C43   C51   A    
C5    C6    A    
C44   H8    S    
O10   Zn2   S    
C33   C35   A    
C47   O6    S    
C2    N2    A    
C28   O3    A    
O2    Zn1   S    
C10   C11   A    
N3    Zn2   S    
C16   O13   A    
C20   C21   A    
C49   C50   A    
C20   H31   S    
C14   C15   A    
C28   O2    A    
C44   H7    S    
C21   C22   A    
C50   H16   S    
