data_mof_unit_5431.cif
_audit_creation_date              2012-12-10T20:30:10-0500
_audit_creation_method            fapswitch 2.2
_symmetry_space_group_name_H-M    P1
_symmetry_Int_Tables_number       1
_space_group_crystal_system       triclinic
_cell_length_a                    9.904521
_cell_length_b                    10.717256
_cell_length_c                    13.115508
_cell_angle_alpha                 89.580923
_cell_angle_beta                  69.692522
_cell_angle_gamma                 89.676351
_cell_volume                      1305.6255291

loop_
_atom_site_label
_atom_site_type_symbol
_atom_type_description
_atom_site_fract_x
_atom_site_fract_y
_atom_site_fract_z
_atom_type_partial_charge
C1    C     C_R   0.501555 0.739700 0.495546 0.891105
C2    C     C_R   0.451630 0.511559 0.977857 0.052191
C3    C     C_R   0.459222 0.455543 0.878746 0.022345
C4    C     C_R   0.559008 0.481964 0.023287 0.048573
C5    C     C_R   0.657885 0.383858 0.977159 0.046622
C6    C     C_R   0.656362 0.323205 0.884853 -0.234542
C7    C     C_R   0.554272 0.353721 0.839160 0.155280
C8    C     C_R   0.567527 0.540095 0.116764 0.070357
C9    C     C_R   0.727117 0.374947 0.135295 0.122411
C10   C     C_R   0.369440 0.501277 0.823552 -0.152900
C11   C     C_R   0.384029 0.935782 0.481258 0.063117
C12   C     C_R   0.419837 0.497303 0.704665 0.905309
C13   C     C_R   0.507450 0.870984 0.478621 -0.117051
C14   C     C_R   0.636464 0.935195 0.460496 -0.179276
C15   C     C_R   0.634271 0.063929 0.464505 -0.134600
C16   C     C_R   0.503059 0.127853 0.487407 -0.102963
C17   C     C_R   0.379288 0.063032 0.489700 0.017210
C18   C     C_3   0.224051 0.061764 0.567500 0.299181
C19   C     C_3   0.231008 0.919340 0.554778 -0.059150
C20   C     C_R   0.885821 0.511520 0.594659 0.258763
C21   C     C_R   0.968431 0.471399 0.409143 -0.139811
C22   C     C_R   0.112609 0.463463 0.409502 0.270790
C23   C     C_R   0.500489 0.260008 0.497894 0.944901
C24   C     C_R   0.027252 0.510859 0.594842 0.175392
C25   C     C_3   0.995614 0.611091 0.677705 -0.521009
C26   C     C_3   0.843168 0.615168 0.674915 -0.472477
C27   C     C_R   0.580771 0.497646 0.295876 0.930896
C28   C     C_R   0.747054 0.336801 0.030508 -0.186045
C29   C     C_R   0.634202 0.476066 0.179616 -0.137718
C30   C     C_R   0.250678 0.576403 0.878229 -0.208617
C31   C     C_R   0.226317 0.613908 0.984982 0.270667
C32   C     C_R   0.327902 0.582981 0.033468 -0.221104
H1    H     H_    0.733409 0.112309 0.455859 0.212268
H2    H     H_    0.222274 0.867461 0.630637 0.122396
H3    H     H_    0.943460 0.450428 0.337610 0.189439
H4    H     H_    0.999498 0.575524 0.756396 0.207226
H5    H     H_    0.058356 0.696837 0.647403 0.224883
H6    H     H_    0.760510 0.585728 0.753038 0.219728
H7    H     H_    0.726028 0.243272 0.854258 0.178336
H8    H     H_    0.817980 0.702886 0.639239 0.209305
H9    H     H_    0.819272 0.259385 0.996454 0.170122
H10   H     H_    0.179640 0.608520 0.836782 0.151023
H11   H     H_    0.304378 0.609501 0.116976 0.174339
H12   H     H_    0.736482 0.886652 0.450496 0.174135
N1    N     N_R   0.856940 0.500860 0.500710 -0.126348
N2    N     N_R   0.142580 0.500820 0.500710 -0.136079
O1    O     O_R   0.385310 0.683210 0.499990 -0.604457
O2    O     O_R   0.614650 0.683240 0.500000 -0.624165
O3    O     O_R   0.328390 0.499940 0.653610 -0.626690
O4    O     O_R   0.557730 0.499980 0.653620 -0.593251
O5    O     O_R   0.385350 0.316760 0.500000 -0.633220
O6    O     O_R   0.614690 0.316790 0.500010 -0.580114
O7    O     O_R   0.442270 0.500020 0.346380 -0.606325
O8    O     O_R   0.671610 0.500060 0.346390 -0.601387
Zn1   Zn    Zn3+2 0.346870 0.499980 0.499990 0.950291
Zn2   Zn    Zn3+2 0.653130 0.500020 0.500010 0.977476
I1    I     I_    0.824457 0.260264 0.222645 -0.428948
N3    N     N_2   0.209357 0.093450 0.678986 -0.322106
H13   H     H_    0.289296 0.061780 0.706246 0.237924
C33   C     C_3   0.136922 0.207213 0.727854 -0.681102
H14   H     H_    0.146018 0.219303 0.809252 0.235402
H15   H     H_    0.020709 0.201962 0.739261 0.249715
H16   H     H_    0.185580 0.289185 0.677028 0.279597
I2    I     I_    0.073645 0.155122 0.504466 -0.452969
N4    N     N_2   0.135116 0.867585 0.502766 -0.296535
H17   H     H_    0.026562 0.883093 0.541870 0.246081
C34   C     C_3   0.182224 0.850292 0.386137 -0.629959
H18   H     H_    0.093172 0.810039 0.363918 0.209628
H19   H     H_    0.273788 0.783894 0.360135 0.270635
H20   H     H_    0.214401 0.940730 0.342976 0.259005
N5    N     N_2   0.222535 0.404706 0.321425 -0.270176
H21   H     H_    0.281620 0.341044 0.347776 0.286327
C35   C     C_3   0.191578 0.357857 0.228683 -0.784093
H22   H     H_    0.117449 0.277141 0.253585 0.280100
H23   H     H_    0.293155 0.325740 0.165955 0.256453
H24   H     H_    0.144733 0.432093 0.191802 0.243543
I3    I     I_    0.528060 0.735298 0.148838 -0.414109
N6    N     N_2   0.100273 0.682991 0.043817 -0.303325
H25   H     H_    0.077459 0.684701 0.126786 0.224126
C36   C     C_3   0.088098 0.804968 0.999602 -0.715172
H26   H     H_    0.986465 0.850339 0.051138 0.256888
H27   H     H_    0.085036 0.797390 0.916078 0.234584
H28   H     H_    0.180112 0.864570 0.998434 0.247813
I4    I     I_    0.516542 0.207666 0.746338 -0.426109

loop_
_geom_bond_atom_site_label_1
_geom_bond_atom_site_label_2
_ccdc_geom_bond_type
C27   C29   S    
C35   H22   S    
C4    C8    A    
C26   H8    S    
C12   O3    A    
C27   O8    A    
C11   C19   S    
C33   H16   S    
C8    C29   A    
C33   H15   S    
C3    C7    A    
C5    C6    A    
N6    C36   S    
N3    C33   S    
C15   C16   A    
C28   H9    S    
C2    C32   A    
C18   C19   S    
C25   H5    S    
C18   N3    S    
C20   C24   A    
N1    Zn2   S    
C16   C17   A    
N4    C34   S    
N2    Zn1   S    
C9    I1    S    
C20   N1    A    
C9    C29   A    
C7    I4    S    
O1    Zn1   S    
C13   C14   A    
C35   H23   S    
C36   H28   S    
C21   N1    A    
O7    Zn1   S    
O8    Zn2   S    
C34   H18   S    
C24   C25   S    
C36   H27   S    
N5    C35   S    
N6    H25   S    
C26   H6    S    
C25   C26   S    
O3    Zn1   S    
O4    Zn2   S    
C33   H14   S    
C34   H19   S    
C2    C4    A    
C5    C28   A    
C10   C30   A    
C23   O5    A    
C31   C32   A    
C17   C18   S    
C10   C12   S    
C22   N2    A    
C16   C23   S    
C8    I3    S    
C35   H24   S    
C1    C13   S    
C22   N5    S    
C31   N6    S    
C14   H12   S    
O2    Zn2   S    
C11   C17   A    
C14   C15   A    
C1    O1    A    
C36   H26   S    
C19   H2    S    
C12   O4    A    
C27   O7    A    
C1    O2    A    
C6    C7    A    
C21   H3    S    
C34   H20   S    
C24   N2    A    
C2    C3    A    
N3    H13   S    
N5    H21   S    
C3    C10   A    
C11   C13   A    
C18   I2    S    
C23   O6    A    
C30   C31   A    
C20   C26   S    
C32   H11   S    
C19   N4    S    
O5    Zn1   S    
C25   H4    S    
C4    C5    A    
N4    H17   S    
C6    H7    S    
C30   H10   S    
C21   C22   A    
C15   H1    S    
O6    Zn2   S    
C9    C28   A    
