data_mof_unit_37901.cif
_audit_creation_date              2012-12-10T17:48:52-0500
_audit_creation_method            fapswitch 2.2
_symmetry_space_group_name_H-M    P1
_symmetry_Int_Tables_number       1
_space_group_crystal_system       triclinic
_cell_length_a                    10.728794
_cell_length_b                    14.690438
_cell_length_c                    14.675292
_cell_angle_alpha                 64.646369
_cell_angle_beta                  103.787013
_cell_angle_gamma                 103.088476
_cell_volume                      2009.48047164

loop_
_atom_site_label
_atom_site_type_symbol
_atom_type_description
_atom_site_fract_x
_atom_site_fract_y
_atom_site_fract_z
_atom_type_partial_charge
C1    C     C_R   0.475807 0.119937 0.311756 0.878546
C2    C     C_3   0.877961 0.003307 0.494853 -0.003296
C3    C     C_3   0.917928 0.896679 0.567175 -0.362892
C4    C     C_3   0.966502 0.079914 0.539280 -0.388830
C5    C     C_R   0.442153 0.187560 0.204131 -0.033936
C6    C     C_R   0.539110 0.814131 0.799300 -0.148446
C7    C     C_R   0.292300 0.226667 0.045385 -0.108528
C8    C     C_R   0.341229 0.155779 0.139661 -0.192553
C9    C     C_R   0.496855 0.289468 0.171205 -0.120199
C10   C     C_R   0.436049 0.364548 0.084781 0.089539
C11   C     C_R   0.337986 0.331891 0.016480 0.001517
C12   C     C_R   0.260275 0.999937 0.500661 0.764908
C13   C     C_R   0.472568 0.470522 0.063828 -0.113285
C14   C     C_R   0.432097 0.541717 0.964195 -0.062787
C15   C     C_R   0.325810 0.508975 0.900265 0.339929
C16   C     C_R   0.282902 0.404800 0.924252 -0.047827
C17   C     C_R   0.544523 0.508840 0.138839 -0.049063
C18   C     C_R   0.597400 0.611760 0.109740 0.336507
C19   C     C_R   0.573646 0.679599 0.006988 0.028215
C20   C     C_R   0.496150 0.643952 0.933082 0.050798
C21   C     C_R   0.621194 0.783738 0.977608 -0.198559
C22   C     C_R   0.601538 0.851567 0.875776 0.001744
C23   C     C_R   0.523536 0.880199 0.688753 0.790470
C24   C     C_R   0.490530 0.710371 0.829269 -0.222754
C25   C     C_R   0.744827 0.300773 0.640767 -0.262361
C26   C     C_R   0.700616 0.213226 0.621486 0.120198
C27   C     C_R   0.506533 0.277903 0.522255 0.058788
C28   C     C_R   0.546785 0.370236 0.537672 -0.020447
C29   C     C_R   0.670364 0.380734 0.596389 0.051838
C30   C     C_R   0.473251 0.453876 0.492555 0.037355
C31   C     C_R   0.528276 0.548460 0.502177 -0.030992
C32   C     C_R   0.659669 0.558262 0.551305 0.367676
C33   C     C_R   0.723670 0.473360 0.603906 -0.127065
C34   C     C_R   0.739899 0.000949 0.498354 0.805585
C35   C     C_R   0.348186 0.446614 0.435609 -0.173555
C36   C     C_R   0.280652 0.530058 0.382854 -0.011930
C37   C     C_R   0.330531 0.622078 0.396018 0.082062
C38   C     C_R   0.450913 0.629687 0.460764 -0.020954
C39   C     C_R   0.259513 0.704988 0.350778 -0.253969
C40   C     C_R   0.305151 0.791698 0.371354 0.091180
C41   C     C_R   0.485141 0.716622 0.485713 0.038741
C42   C     C_3   0.047780 0.024098 0.388839 -0.442362
C43   C     C_3   0.903173 0.035840 0.381565 -0.055280
C44   C     C_3   0.062416 0.896458 0.571207 -0.342212
C45   C     C_3   0.108494 0.084270 0.533665 -0.352163
C46   C     C_3   0.122514 0.001471 0.498841 0.094365
Cu1   Cu    Cu3+1 0.465900 0.918260 0.475680 0.969751
Cu2   Cu    Cu3+1 0.534100 0.081740 0.524320 0.990833
H1    H     H_    0.052918 0.961003 0.367512 0.185599
H2    H     H_    0.955714 0.055873 0.620364 0.181919
H3    H     H_    0.114412 0.878812 0.650845 0.165906
H4    H     H_    0.900098 0.876540 0.645734 0.163964
H5    H     H_    0.449392 0.681331 0.770551 0.209443
H6    H     H_    0.213303 0.198447 0.998664 0.170241
H7    H     H_    0.296978 0.076884 0.163564 0.149919
H8    H     H_    0.585936 0.308593 0.215990 0.165464
H9    H     H_    0.100948 0.091490 0.334196 0.194211
H10   H     H_    0.670900 0.814471 0.033954 0.167065
H11   H     H_    0.822009 0.482822 0.643200 0.199079
H12   H     H_    0.564550 0.721330 0.545070 0.172456
H13   H     H_    0.249888 0.854794 0.336386 0.125270
H14   H     H_    0.839284 0.307672 0.686496 0.157817
H15   H     H_    0.760195 0.153057 0.652731 0.126352
H16   H     H_    0.416647 0.264425 0.475513 0.151685
H17   H     H_    0.301357 0.376695 0.427855 0.168145
H18   H     H_    0.167103 0.703310 0.301732 0.183161
H19   H     H_    0.072265 0.835224 0.548899 0.210354
H20   H     H_    0.858398 0.836034 0.543235 0.245887
H21   H     H_    0.167728 0.072804 0.610200 0.186464
H22   H     H_    0.144277 0.161113 0.478958 0.205643
H23   H     H_    0.939010 0.157804 0.497472 0.206097
N1    N     N_R   0.585360 0.204570 0.560800 -0.185568
N2    N     N_R   0.414550 0.795430 0.439160 -0.185910
O1    O     O_R   0.455060 0.022100 0.338110 -0.579604
O2    O     O_R   0.512640 0.160150 0.379180 -0.557197
O3    O     O_R   0.288900 0.930980 0.479450 -0.596355
O4    O     O_R   0.346480 0.069030 0.520520 -0.591288
O5    O     O_R   0.487360 0.839850 0.620820 -0.582640
O6    O     O_R   0.544940 0.977900 0.661890 -0.555190
O7    O     O_R   0.653520 0.930970 0.479480 -0.576351
O8    O     O_R   0.711100 0.069020 0.520550 -0.586697
C47   C     C_2   0.179260 0.374105 0.851082 0.892479
O9    O     O_2   0.076818 0.408875 0.822549 -0.554926
O10   O     O_R   0.200213 0.307089 0.813267 -0.770746
H24   H     H_    0.122983 0.292414 0.763704 0.327045
C48   C     C_2   0.651266 0.959888 0.854393 0.851964
O11   O     O_2   0.575547 0.021368 0.825461 -0.563867
O12   O     O_R   0.784732 0.990407 0.872646 -0.772292
H25   H     H_    0.807110 0.065892 0.857061 0.327706
O13   O     O_3   0.669654 0.644537 0.184354 -0.686637
H26   H     H_    0.750350 0.686502 0.159192 0.336431
O14   O     O_3   0.254345 0.576787 0.818245 -0.708244
H27   H     H_    0.250349 0.633779 0.836226 0.335021
C49   C     C_2   0.555129 0.447311 0.250081 0.897472
O15   O     O_2   0.458315 0.397449 0.286984 -0.627505
O16   O     O_R   0.676831 0.445243 0.311779 -0.714857
H28   H     H_    0.674492 0.395704 0.385065 0.333088
C50   C     C_2   0.155495 0.515664 0.317188 0.857316
O17   O     O_2   0.132022 0.578040 0.229664 -0.583453
O18   O     O_R   0.066710 0.427953 0.354480 -0.753818
H29   H     H_    0.984927 0.426585 0.303145 0.352387
C51   C     C_2   0.879524 0.146939 0.316705 0.844725
O19   O     O_2   0.772337 0.170337 0.303784 -0.600677
O20   O     O_R   0.978550 0.222620 0.272657 -0.758514
H30   H     H_    0.948565 0.291660 0.231467 0.348805
O21   O     O_3   0.734756 0.650462 0.540515 -0.740294
H31   H     H_    0.711489 0.698230 0.468905 0.358523
C52   C     C_2   0.813439 0.968801 0.329013 0.822420
O22   O     O_2   0.823815 0.878747 0.360388 -0.609590
O23   O     O_R   0.719877 0.009842 0.243924 -0.724198
H32   H     H_    0.666910 0.957405 0.216983 0.344595

loop_
_geom_bond_atom_site_label_1
_geom_bond_atom_site_label_2
_ccdc_geom_bond_type
C26   N1    A    
C52   O22   D    
C2    C4    S    
C19   C20   A    
C7    C8    A    
C45   C46   S    
C40   N2    A    
C7    C11   A    
C30   C35   A    
C1    C5    S    
C1    O1    A    
Cu2   O6    S    
C28   C29   A    
C19   C21   A    
C3    H20   S    
Cu1   O3    S    
C30   C31   A    
C48   O12   S    
O21   H31   S    
C35   H17   S    
C15   C16   A    
C6    C22   A    
C29   C33   A    
Cu2   O8    S    
C42   H9    S    
C18   C19   A    
C42   C46   S    
O23   H32   S    
O14   H27   S    
C41   H12   S    
C34   O7    A    
C15   O14   S    
C20   C24   A    
C34   O8    A    
C9    C10   A    
C25   H14   S    
C2    C34   S    
C33   H11   S    
C32   O21   S    
C21   C22   A    
C12   O4    A    
Cu2   O2    S    
C49   O15   D    
Cu1   O7    S    
Cu2   N1    S    
C8    H7    S    
O20   H30   S    
C44   C46   S    
C4    C45   S    
C25   C29   A    
C3    C44   S    
C45   H21   S    
C1    O2    A    
C14   C20   A    
O10   H24   S    
Cu1   N2    S    
C38   C41   A    
C12   C46   S    
C10   C11   A    
C39   C40   A    
C48   O11   D    
C24   H5    S    
C40   H13   S    
C4    H2    S    
C35   C36   A    
C18   O13   S    
Cu2   O4    S    
C51   O20   S    
C26   H15   S    
C5    C9    A    
C37   C38   A    
C11   C16   A    
Cu1   Cu2   S    
C2    C43   S    
C6    C24   A    
O16   H28   S    
C16   C47   S    
C17   C18   A    
C9    H8    S    
C49   O16   S    
C44   H3    S    
C47   O9    D    
C50   O18   S    
C12   O3    A    
C39   H18   S    
C42   C43   S    
C36   C37   A    
C45   H22   S    
C31   C32   A    
Cu1   O1    S    
C10   C13   A    
C5    C8    A    
C3    H4    S    
C47   O10   S    
C7    H6    S    
C31   C38   A    
C13   C17   A    
C32   C33   A    
C28   C30   A    
C2    C3    S    
C25   C26   A    
C43   C51   S    
C21   H10   S    
C37   C39   A    
O13   H26   S    
C6    C23   S    
O18   H29   S    
C52   O23   S    
C43   C52   S    
C22   C48   S    
C23   O5    A    
C51   O19   D    
C27   H16   S    
C42   H1    S    
C41   N2    A    
O12   H25   S    
C50   O17   D    
C27   C28   A    
C14   C15   A    
C44   H19   S    
C36   C50   S    
C17   C49   S    
Cu1   O5    S    
C23   O6    A    
C13   C14   A    
C4    H23   S    
C27   N1    A    
