data_mof_unit_50392.cif
_audit_creation_date              2013-03-05T16:44:15-0500
_audit_creation_method            fapswitch 2.2
_symmetry_space_group_name_H-M    P1
_symmetry_Int_Tables_number       1
_space_group_crystal_system       triclinic
_cell_length_a                    23.437312
_cell_length_b                    10.729647
_cell_length_c                    9.886198
_cell_angle_alpha                 89.719337
_cell_angle_beta                  91.699646
_cell_angle_gamma                 91.031668
_cell_volume                      2484.60227905

loop_
_atom_site_label
_atom_site_type_symbol
_atom_site_description
_atom_site_fract_x
_atom_site_fract_y
_atom_site_fract_z
_atom_type_partial_charge
O1    O     O_R   0.500010 0.316790 0.614690 -0.604110
O2    O     O_R   0.500000 0.316760 0.385350 -0.620076
C1    C     C_R   0.499144 0.260648 0.500327 0.901739
O3    O     O_R   0.416160 0.499980 0.614700 -0.623370
O4    O     O_R   0.416150 0.499940 0.385360 -0.623567
C2    C     C_R   0.389362 0.499801 0.498076 0.882887
Zn1   Zn    Zn3+2 0.500000 0.500020 0.653130 0.959568
Zn2   Zn    Zn3+2 0.500000 0.499980 0.346870 0.969832
O5    O     O_R   0.500000 0.683240 0.614650 -0.635006
O6    O     O_R   0.499990 0.683210 0.385310 -0.580253
O7    O     O_R   0.583850 0.500060 0.614640 -0.608265
O8    O     O_R   0.583840 0.500020 0.385300 -0.584140
C3    C     C_R   0.498192 0.739249 0.499441 0.882662
C4    C     C_R   0.610435 0.498607 0.500724 0.972123
C5    C     C_R   0.879412 0.583389 0.433418 0.595240
N1    N     N_R   0.851622 0.481037 0.483850 -0.317047
C6    C     C_R   0.880005 0.378353 0.529175 0.549296
C7    C     C_R   0.939413 0.375815 0.525561 -0.030880
C8    C     C_R   0.969285 0.480951 0.476671 -0.086212
C9    C     C_R   0.939198 0.586440 0.429083 -0.146440
C10   C     C_R   0.969237 0.271361 0.571876 -0.229636
C11   C     C_R   0.028792 0.269927 0.572276 0.216908
C12   C     C_R   0.059482 0.374754 0.522401 -0.047457
C13   C     C_R   0.029320 0.480721 0.476065 -0.061609
C14   C     C_R   0.059115 0.587301 0.430323 -0.072808
C15   C     C_R   0.029202 0.691361 0.383010 -0.272053
C16   C     C_R   0.969651 0.690803 0.378549 0.485673
C17   C     C_R   0.119368 0.378124 0.516449 0.531552
N2    N     N_R   0.147154 0.484513 0.476443 -0.340262
C18   C     C_R   0.118578 0.588008 0.434245 0.553821
O9    O     O_2   0.848821 0.680981 0.387306 -0.520813
O10   O     O_2   0.850620 0.279800 0.578966 -0.581555
H1    H     H_    0.946470 0.190667 0.610818 0.194165
O11   O     O_2   0.150014 0.276353 0.548541 -0.532192
O12   O     O_2   0.147900 0.691596 0.397397 -0.563274
H2    H     H_    0.051807 0.774015 0.348556 0.201303
C19   C     C_R   0.238295 0.495413 0.360788 0.240375
C20   C     C_R   0.297695 0.501546 0.367411 -0.306351
H3    H     H_    0.320702 0.507539 0.274055 0.164917
C21   C     C_R   0.327122 0.497732 0.492802 -0.089300
C22   C     C_R   0.296879 0.490014 0.612627 -0.294407
H4    H     H_    0.319242 0.487494 0.710042 0.161952
C23   C     C_R   0.237437 0.486564 0.608168 0.232701
C24   C     C_R   0.208089 0.488535 0.481699 0.259153
C25   C     C_R   0.757625 0.406778 0.401036 0.166746
C26   C     C_R   0.697810 0.408014 0.408168 0.063103
C27   C     C_R   0.672393 0.491187 0.498434 -0.334114
C28   C     C_R   0.706361 0.575468 0.575305 0.321978
C29   C     C_R   0.765363 0.562841 0.580294 0.394479
C30   C     C_R   0.790909 0.482121 0.489713 0.057034
C31   C     C_R   0.512899 0.061396 0.612928 0.017111
C32   C     C_R   0.496774 0.129490 0.499722 -0.150842
C33   C     C_R   0.477004 0.066261 0.382905 -0.280754
H5    H     H_    0.461916 0.117089 0.294430 0.161015
C34   C     C_R   0.474031 0.936337 0.381910 0.197144
C35   C     C_R   0.494333 0.870419 0.497923 -0.111026
C36   C     C_R   0.511945 0.936814 0.611759 -0.022255
C37   C     C_3   0.530847 0.922718 0.756753 -0.581733
C38   C     C_3   0.530867 0.066910 0.759612 0.378101
H6    H     H_    0.496749 0.879680 0.818377 0.192517
H7    H     H_    0.572530 0.876777 0.768977 0.184293
H8    H     H_    0.496176 0.101563 0.822251 0.088067
C39   C     C_R   0.452548 0.462897 0.067632 0.151832
N3    N     N_R   0.499610 0.499140 0.142800 -0.134922
C40   C     C_R   0.543200 0.555751 0.076600 0.220723
C41   C     C_R   0.544960 0.549287 0.932597 0.168172
N4    N     N_R   0.499610 0.499180 0.857150 -0.138363
C42   C     C_R   0.452049 0.465317 0.925560 0.161965
C43   C     C_3   0.421014 0.343079 0.917307 -0.476703
C44   C     C_3   0.422629 0.339523 0.071184 -0.494570
H9    H     H_    0.377167 0.352319 0.872948 0.193169
H10   H     H_    0.446633 0.270016 0.870828 0.209750
H11   H     H_    0.379685 0.345281 0.115291 0.199006
H12   H     H_    0.450175 0.265044 0.113956 0.207103
N5    N     N_2   0.663001 0.332946 0.318590 -0.271356
H13   H     H_    0.678253 0.322724 0.222674 0.226513
C45   C     C_3   0.642526 0.217120 0.376117 -0.761429
H14   H     H_    0.678939 0.156733 0.404808 0.221755
H15   H     H_    0.614455 0.167450 0.300827 0.240814
H16   H     H_    0.617171 0.235659 0.466344 0.241657
O13   O     O_3   0.682353 0.671671 0.645432 -0.602374
C46   C     C_3   0.669339 0.770812 0.555052 0.082212
H17   H     H_    0.631350 0.818327 0.592325 0.133868
H18   H     H_    0.657740 0.740278 0.449890 0.121314
C47   C     C_3   0.718620 0.865387 0.551957 -0.758299
H19   H     H_    0.755874 0.824493 0.502931 0.299275
H20   H     H_    0.705324 0.948645 0.492859 0.181517
H21   H     H_    0.731192 0.894431 0.656462 0.264762
O14   O     O_3   0.798444 0.639379 0.664307 -0.561448
C48   C     C_3   0.811013 0.573913 0.785477 0.131353
H22   H     H_    0.841095 0.497264 0.766948 0.146320
H23   H     H_    0.771711 0.534014 0.830818 0.130162
C49   C     C_3   0.839095 0.662916 0.887582 -0.817462
H24   H     H_    0.809836 0.740225 0.908978 0.265298
H25   H     H_    0.849030 0.612297 0.983383 0.201090
H26   H     H_    0.879353 0.702197 0.847190 0.255532
N6    N     N_2   0.449065 0.874259 0.266956 -0.297085
H27   H     H_    0.453333 0.922643 0.177240 0.207869
C50   C     C_3   0.391057 0.830018 0.284693 -0.718879
H28   H     H_    0.362256 0.910188 0.296349 0.231757
H29   H     H_    0.388337 0.768509 0.375021 0.238796
H30   H     H_    0.376517 0.775390 0.194587 0.226959
O15   O     O_3   0.583111 0.132946 0.789306 -0.584023
C51   C     C_3   0.631815 0.084243 0.728626 0.122603
H31   H     H_    0.623426 0.057458 0.621408 0.137055
H32   H     H_    0.647501 0.002630 0.787336 0.154107
C52   C     C_3   0.679286 0.182991 0.732950 -0.834120
H33   H     H_    0.691450 0.205599 0.839595 0.252510
H34   H     H_    0.717299 0.148161 0.681468 0.232222
H35   H     H_    0.664769 0.269248 0.681284 0.255765
N7    N     N_2   0.585883 0.622814 0.152822 -0.244896
H36   H     H_    0.626211 0.586664 0.149504 0.231652
C53   C     C_3   0.585249 0.756803 0.136197 -0.761262
H37   H     H_    0.612748 0.800932 0.216486 0.225180
H38   H     H_    0.541297 0.791728 0.145018 0.253950
H39   H     H_    0.601826 0.784421 0.036163 0.233701
N8    N     N_2   0.057043 0.163816 0.626868 -0.247912
H40   H     H_    0.036496 0.080455 0.603532 0.229268
C54   C     C_3   0.071269 0.173389 0.769934 -0.690157
H41   H     H_    0.031716 0.175988 0.829131 0.208874
H42   H     H_    0.097502 0.258796 0.791100 0.258180
H43   H     H_    0.096318 0.091194 0.802831 0.239590
N9    N     N_2   0.594770 0.593506 0.869390 -0.283148
H44   H     H_    0.590684 0.649879 0.785495 0.282506
C55   C     C_3   0.646526 0.523317 0.892948 -0.679634
H45   H     H_    0.681535 0.587976 0.926514 0.232656
H46   H     H_    0.658687 0.475873 0.799481 0.258391
H47   H     H_    0.641186 0.449626 0.971277 0.202642
O16   O     O_3   0.941696 0.796072 0.332773 -0.559395
C56   C     C_3   0.941631 0.797968 0.189875 0.125330
H48   H     H_    0.924788 0.708268 0.146742 0.131415
H49   H     H_    0.985480 0.816236 0.153328 0.125638
C57   C     C_3   0.903339 0.901802 0.137913 -0.759534
H50   H     H_    0.919073 0.992992 0.178182 0.254282
H51   H     H_    0.903436 0.905045 0.025626 0.197106
H52   H     H_    0.858919 0.884706 0.170511 0.273662
N10   N     N_2   0.208932 0.498388 0.232678 -0.287180
H53   H     H_    0.229940 0.549932 0.160471 0.228881
C58   C     C_3   0.190691 0.377369 0.182252 -0.783301
H54   H     H_    0.166465 0.388883 0.084865 0.236477
H55   H     H_    0.162332 0.329633 0.254816 0.265031
H56   H     H_    0.228372 0.318709 0.164828 0.237224
N11   N     N_2   0.207169 0.478061 0.730738 -0.297336
H57   H     H_    0.228356 0.429066 0.806338 0.226942
C59   C     C_3   0.186674 0.595692 0.778795 -0.786258
H58   H     H_    0.161793 0.579555 0.871328 0.239135
H59   H     H_    0.158302 0.639915 0.701364 0.262318
H60   H     H_    0.223227 0.659712 0.803982 0.241820
N12   N     N_2   0.785014 0.328786 0.307331 -0.264658
H61   H     H_    0.765691 0.242707 0.292388 0.241943
C60   C     C_3   0.800132 0.389820 0.182169 -0.810380
H62   H     H_    0.823187 0.323770 0.118194 0.241715
H63   H     H_    0.828621 0.471674 0.202509 0.256891
H64   H     H_    0.761211 0.420789 0.125538 0.223234

loop_
_geom_bond_atom_site_label_1
_geom_bond_atom_site_label_2
_geom_bond_distance
_ccdc_geom_bond_type
C11   N8    1.423335 S    
C34   C35   1.419115 A    
C49   H24   1.110793 S    
C7    C10   1.399488 A    
C52   H34   1.110492 S    
C22   H4    1.083160 S    
C23   N11   1.423899 S    
C8    C9    1.415468 A    
N5    H13   1.030292 S    
C51   H32   1.110323 S    
C59   H58   1.110561 S    
C48   H22   1.112212 S    
N9    H44   1.027334 S    
C33   H5    1.082349 S    
C35   C36   1.383531 A    
Zn1   O7    2.012761 S    
N10   C58   1.446064 S    
C15   C16   1.395005 A    
C19   C20   1.392164 A    
C18   O12   1.350443 S    
O4    C2    1.295141 A    
C17   N2    1.366621 A    
N1    C30   1.426107 S    
O16   C56   1.412727 S    
N8    C54   1.447205 S    
C20   H3    1.083692 S    
O7    C4    1.303433 A    
N9    C55   1.451634 S    
C10   H1    1.083918 S    
C37   H6    1.111720 S    
N11   H57   1.032020 S    
C28   O13   1.383409 S    
N11   C59   1.445922 S    
C7    C8    1.408049 A    
C60   H64   1.111199 S    
C43   H9    1.111180 S    
O5    C3    1.285132 A    
C26   N5    1.427945 S    
N6    C50   1.447258 S    
C39   C42   1.404364 A    
C56   H48   1.115500 S    
C40   N7    1.421630 S    
C27   C28   1.404995 A    
N1    C6    1.364213 A    
C44   H12   1.110539 S    
C57   H52   1.110783 S    
C60   H62   1.110264 S    
C31   C36   1.336603 A    
C45   H14   1.110116 S    
C3    C35   1.411914 S    
C37   H7    1.105312 S    
C33   C34   1.394597 A    
C41   N4    1.382537 A    
C17   O11   1.349183 S    
C49   H25   1.110250 S    
C19   N10   1.423862 S    
C10   C11   1.396052 A    
C22   C23   1.392400 A    
O3    Zn1   1.990275 S    
C51   H31   1.110594 S    
C59   H59   1.109470 S    
N6    H27   1.032027 S    
C54   H42   1.111541 S    
C5    C9    1.402939 A    
C58   H54   1.110650 S    
C47   H20   1.109337 S    
C31   C32   1.380598 A    
C13   C14   1.408828 A    
O3    C2    1.296470 A    
C42   C43   1.489673 S    
C14   C15   1.400196 A    
C47   H19   1.109415 S    
O13   C46   1.417447 S    
N4    C42   1.363722 A    
O1    C1    1.283137 A    
C43   H10   1.105922 S    
C56   H49   1.113203 S    
C23   C24   1.409274 A    
N2    C18   1.364332 A    
C55   H47   1.112060 S    
C48   H23   1.114056 S    
C50   H28   1.111462 S    
C39   C44   1.487561 S    
Zn2   O8    1.990272 S    
C34   N6    1.425304 S    
C44   H11   1.111538 S    
C6    C7    1.394626 A    
C45   H15   1.110458 S    
N7    C53   1.446521 S    
C12   C17   1.406367 A    
C58   H55   1.109583 S    
N5    C45   1.444308 S    
Zn2   N3    2.017290 S    
C15   H2    1.083526 S    
C21   C22   1.399758 A    
C50   H29   1.110470 S    
O8    C4    1.284075 A    
C46   H17   1.107289 S    
C49   H26   1.110728 S    
C46   H18   1.116005 S    
N2    C24   1.427449 S    
C57   H50   1.110818 S    
C16   O16   1.383434 S    
C52   H35   1.108878 S    
C2    C21   1.457883 S    
C56   C57   1.521036 S    
C31   C38   1.499160 S    
C52   H33   1.110806 S    
C59   H60   1.111597 S    
C32   C33   1.404744 A    
C48   C49   1.520365 S    
C55   H46   1.104394 S    
C53   H37   1.109940 S    
C47   H21   1.110469 S    
C14   C18   1.392929 A    
Zn1   O5    2.000526 S    
C26   C27   1.416363 A    
C28   C29   1.391294 A    
C38   H8    1.107183 S    
N7    H36   1.029589 S    
O1    Zn1   2.004218 S    
C54   H43   1.110294 S    
O2    Zn2   2.000524 S    
C29   O14   1.382369 S    
O6    C3    1.283279 A    
O4    Zn2   2.012761 S    
C54   H41   1.111725 S    
C5    O9    1.349560 S    
C4    C27   1.456601 S    
C9    C16   1.414146 A    
C46   C47   1.524577 S    
N10   H53   1.032005 S    
C38   O15   1.427224 S    
N3    C40   1.361774 A    
C53   H39   1.110205 S    
C19   C24   1.408169 A    
N12   C60   1.447481 S    
C8    C13   1.407296 A    
C37   C38   1.547514 S    
C40   C41   1.427528 A    
N12   H61   1.030663 S    
C1    C32   1.407408 S    
C20   C21   1.401380 A    
C45   H16   1.107159 S    
C36   C37   1.495489 S    
C55   H45   1.109187 S    
C25   C30   1.405086 A    
C58   H56   1.111696 S    
O2    C1    1.284188 A    
C25   N12   1.425746 S    
C60   H63   1.109176 S    
C43   C44   1.520911 S    
C12   C13   1.416672 A    
Zn1   N4    2.017249 S    
C39   N3    1.363394 A    
C41   N9    1.413810 S    
C25   C26   1.406082 A    
C50   H30   1.110466 S    
Zn2   O6    2.004219 S    
C29   C30   1.403066 A    
O15   C51   1.414606 S    
C57   H51   1.110533 S    
C6    O10   1.350408 S    
C11   C12   1.418455 A    
O14   C48   1.411889 S    
N8    H40   1.032015 S    
C51   C52   1.522323 S    
C5    N1    1.366366 A    
C53   H38   1.108466 S    
