data_mof_unit_55975.cif
_audit_creation_date              2012-12-10T18:50:01-0500
_audit_creation_method            fapswitch 2.2
_symmetry_space_group_name_H-M    P1
_symmetry_Int_Tables_number       1
_space_group_crystal_system       triclinic
_cell_length_a                    10.597955
_cell_length_b                    9.95749
_cell_length_c                    10.958099
_cell_angle_alpha                 88.686874
_cell_angle_beta                  92.624834
_cell_angle_gamma                 89.575183
_cell_volume                      1154.83944865

loop_
_atom_site_label
_atom_site_type_symbol
_atom_type_description
_atom_site_fract_x
_atom_site_fract_y
_atom_site_fract_z
_atom_type_partial_charge
C1    C     C_R   0.264380 0.500826 0.524682 1.009929
C2    C     C_R   0.597632 0.926414 0.553870 0.628439
C3    C     C_R   0.398593 0.929961 0.448106 -0.184715
C4    C     C_R   0.397161 0.073503 0.453247 -0.185999
C5    C     C_R   0.505367 0.501817 0.257786 1.104178
C6    C     C_R   0.741758 0.499777 0.500949 0.995258
C7    C     C_R   0.502556 0.498486 0.742215 1.074626
C8    C     C_3   0.423909 0.626286 0.061813 0.406181
C9    C     C_3   0.450243 0.366570 0.073518 0.337014
C10   C     C_3   0.440052 0.633047 0.920441 0.317707
C11   C     C_3   0.426820 0.374481 0.931983 0.393307
C12   C     C_3   0.645179 0.491325 0.933677 0.899917
C13   C     C_3   0.646621 0.516764 0.074612 0.873793
C14   C     C_3   0.508331 0.504764 0.120573 -0.658833
C15   C     C_3   0.505267 0.497391 0.878677 -0.658571
C16   C     C_2   0.438157 0.768271 0.111109 0.961783
C17   C     C_2   0.527482 0.239786 0.117874 0.927887
C18   C     C_2   0.292003 0.861123 0.380365 0.982083
C19   C     C_2   0.279589 0.145712 0.415712 1.119021
C20   C     C_2   0.505958 0.762870 0.876940 0.951350
C21   C     C_2   0.439464 0.233550 0.881298 0.962926
C22   C     C_2   0.127010 0.282110 0.678738 1.178677
C23   C     C_R   0.070190 0.388662 0.595668 -0.204751
C24   C     C_2   0.118736 0.757045 0.608081 1.091825
C25   C     C_R   0.067435 0.629213 0.557877 -0.218556
C26   C     C_R   0.942297 0.383920 0.562884 0.637783
C27   C     C_R   0.941237 0.624368 0.519282 0.635898
C28   C     C_R   0.878074 0.500799 0.520032 -0.338787
C29   C     C_R   0.135293 0.506577 0.566488 -0.302786
C30   C     C_R   0.597193 0.068987 0.554329 0.641382
F1    F     F_    0.298911 0.595642 0.082907 -0.439564
F2    F     F_    0.880315 0.740110 0.483083 -0.521853
F3    F     F_    0.690442 0.132056 0.617701 -0.470950
F4    F     F_    0.693723 0.858079 0.613397 -0.507127
F5    F     F_    0.332490 0.351816 0.121859 -0.468678
F6    F     F_    0.319537 0.641613 0.865240 -0.467448
F7    F     F_    0.299804 0.404453 0.907253 -0.462221
F8    F     F_    0.695555 0.642034 0.098156 -0.525856
F9    F     F_    0.728488 0.428166 0.137771 -0.555551
F10   F     F_    0.720429 0.583968 0.875952 -0.534837
F11   F     F_    0.699607 0.368428 0.911443 -0.511227
F12   F     F_    0.881557 0.265563 0.573805 -0.497338
H1    H     H_    0.356942 0.952470 0.116125 0.374468
H2    H     H_    0.535632 0.071394 0.223604 0.354798
H3    H     H_    0.106155 0.851090 0.330692 0.398898
H4    H     H_    0.182143 0.262408 0.292022 0.388656
H5    H     H_    0.494951 0.928966 0.769288 0.332305
H6    H     H_    0.355159 0.052327 0.868325 0.366238
H7    H     H_    0.099117 0.127721 0.797125 0.382929
H8    H     H_    0.090697 0.953396 0.639793 0.380409
N1    N     N_R   0.499970 0.857200 0.499970 -0.187342
N2    N     N_R   0.499970 0.142800 0.499970 -0.217244
O1    O     O_R   0.316750 0.614620 0.499990 -0.603491
O2    O     O_R   0.339841 0.860156 0.082980 -0.685783
O3    O     O_2   0.630587 0.213698 0.078718 -0.465744
O4    O     O_R   0.475962 0.148610 0.199707 -0.725564
O5    O     O_2   0.313179 0.765318 0.318305 -0.545784
O6    O     O_R   0.167194 0.906691 0.382147 -0.743714
O7    O     O_2   0.188460 0.135771 0.479211 -0.607239
O8    O     O_R   0.268986 0.220039 0.306922 -0.642079
O9    O     O_2   0.609155 0.796343 0.919696 -0.462375
O10   O     O_R   0.443681 0.846755 0.789525 -0.705108
O11   O     O_2   0.535996 0.193343 0.836748 -0.509522
O12   O     O_R   0.316750 0.385380 0.499990 -0.624161
O13   O     O_R   0.340592 0.144483 0.901141 -0.708978
O14   O     O_2   0.241041 0.274546 0.696981 -0.607695
O15   O     O_R   0.049530 0.192733 0.740457 -0.628378
O16   O     O_2   0.221123 0.758216 0.663641 -0.516984
O17   O     O_R   0.046013 0.874977 0.600118 -0.607839
O18   O     O_R   0.499970 0.614670 0.314790 -0.565223
O19   O     O_R   0.499970 0.385330 0.314790 -0.579449
O20   O     O_R   0.683220 0.614710 0.500010 -0.523826
O21   O     O_R   0.683220 0.385290 0.500010 -0.535664
O22   O     O_R   0.500010 0.614660 0.685200 -0.574029
O23   O     O_R   0.500010 0.385340 0.685200 -0.577689
O24   O     O_2   0.534383 0.806121 0.165194 -0.539052
Zn1   Zn    Zn3+2 0.499980 0.653120 0.500000 1.156896
Zn2   Zn    Zn3+2 0.499980 0.346880 0.500000 1.139045

loop_
_geom_bond_atom_site_label_1
_geom_bond_atom_site_label_2
_ccdc_geom_bond_type
H5    O10   S    
C6    O20   A    
O20   Zn1   S    
C4    N2    A    
C23   C29   A    
H8    O17   S    
C10   C15   S    
C3    C18   S    
C23   C26   A    
C20   O9    D    
C11   F7    S    
C1    O1    A    
C22   O14   D    
H1    O2    S    
C4    C19   S    
C11   C15   S    
C18   O6    S    
C6    C28   S    
C10   C20   S    
O22   Zn1   S    
O21   Zn2   S    
H6    O13   S    
C17   O3    D    
C21   O13   S    
C2    F4    S    
C7    C15   S    
C8    C16   S    
C13   C14   S    
O18   Zn1   S    
N2    Zn2   S    
C24   O17   S    
C7    O22   A    
C25   C29   A    
H3    O6    S    
C21   O11   D    
C24   C25   S    
C3    N1    A    
C7    O23   A    
C19   O7    D    
C11   C21   S    
C12   F10   S    
O1    Zn1   S    
C9    C14   S    
N1    Zn1   S    
C12   F11   S    
H2    O4    S    
C18   O5    D    
C12   C15   S    
C1    C29   S    
C13   F8    S    
C9    C11   S    
C17   O4    S    
C5    C14   S    
C9    C17   S    
C3    C4    A    
C1    O12   A    
C26   F12   S    
C6    O21   A    
C30   N2    A    
C8    C14   S    
H7    O15   S    
C30   F3    S    
H4    O8    S    
C27   F2    S    
C16   O24   D    
C8    F1    S    
O12   Zn2   S    
C5    O18   A    
C19   O8    S    
C25   C27   A    
C26   C28   A    
C2    C30   A    
C5    O19   A    
C20   O10   S    
O23   Zn2   S    
C16   O2    S    
C22   O15   S    
C13   F9    S    
C2    N1    A    
C24   O16   D    
C12   C13   S    
C8    C10   S    
C27   C28   A    
C9    F5    S    
C22   C23   S    
C10   F6    S    
O19   Zn2   S    
