data_mof_unit_19777.cif
_audit_creation_date              2012-12-10T17:24:46-0500
_audit_creation_method            fapswitch 2.2
_symmetry_space_group_name_H-M    P1
_symmetry_Int_Tables_number       1
_space_group_crystal_system       triclinic
_cell_length_a                    23.529791
_cell_length_b                    10.856148
_cell_length_c                    9.625274
_cell_angle_alpha                 90.005886
_cell_angle_beta                  88.483988
_cell_angle_gamma                 90.12939
_cell_volume                      2457.84095142

loop_
_atom_site_label
_atom_site_type_symbol
_atom_type_description
_atom_site_fract_x
_atom_site_fract_y
_atom_site_fract_z
_atom_type_partial_charge
C1    C     C_R   0.494852 0.262896 0.501615 0.773114
C2    C     C_R   0.974865 0.348348 0.337334 -0.158657
C3    C     C_R   0.033845 0.357246 0.327276 -0.153336
C4    C     C_R   0.062410 0.453503 0.393801 -0.008637
C5    C     C_R   0.031157 0.543857 0.467627 -0.023727
C6    C     C_R   0.059695 0.638141 0.539720 -0.072031
C7    C     C_R   0.026854 0.732695 0.605062 -0.043013
C8    C     C_R   0.967446 0.729663 0.600172 -0.196321
C9    C     C_R   0.121749 0.459915 0.390230 0.536458
C10   C     C_R   0.119739 0.631352 0.545817 0.584590
C11   C     C_R   0.246702 0.634334 0.448641 0.207720
C12   C     C_R   0.391205 0.496975 0.500706 0.787938
C13   C     C_R   0.305584 0.620305 0.460291 -0.246384
C14   C     C_R   0.328958 0.506931 0.499057 -0.063561
C15   C     C_R   0.292644 0.404722 0.519684 -0.066983
C16   C     C_R   0.233910 0.421373 0.519173 -0.168652
C17   C     C_R   0.210297 0.534850 0.481848 0.330657
C18   C     C_R   0.761149 0.482458 0.367936 -0.106099
C19   C     C_R   0.702202 0.470690 0.374944 -0.237855
C20   C     C_R   0.671523 0.503486 0.495734 -0.038881
C21   C     C_R   0.701193 0.540974 0.613043 -0.233953
C22   C     C_R   0.760487 0.544148 0.609631 -0.104442
C23   C     C_R   0.494301 0.737001 0.501042 0.801532
C24   C     C_R   0.791204 0.517611 0.485920 0.339774
C25   C     C_R   0.443175 0.123553 0.755680 0.134566
C26   C     C_R   0.440273 0.055314 0.879497 0.010218
C27   C     C_R   0.438261 0.928155 0.872733 -0.265123
C28   C     C_R   0.439826 0.870780 0.743710 0.004498
C29   C     C_R   0.462655 0.933811 0.625441 0.021351
C30   C     C_R   0.463462 0.065240 0.629001 0.047799
C31   C     C_R   0.483881 0.129568 0.506632 -0.087378
C32   C     C_R   0.498190 0.063888 0.385673 -0.163940
C33   C     C_R   0.498164 0.937155 0.384479 -0.197967
C34   C     C_R   0.608929 0.500261 0.498617 0.815771
C35   C     C_R   0.483478 0.870665 0.504061 -0.111059
C36   C     C_R   0.602404 0.550543 0.109724 0.196607
C37   C     C_R   0.652299 0.509273 0.039953 -0.255316
C38   C     C_R   0.648122 0.426993 0.929039 -0.239872
C39   C     C_R   0.595285 0.409507 0.868894 -0.141493
C40   C     C_R   0.547658 0.470522 0.925751 0.176182
C41   C     C_R   0.549826 0.502948 0.067302 0.193236
C42   C     C_R   0.450940 0.512666 0.076945 -0.048413
C43   C     C_R   0.451580 0.521342 0.929221 -0.115198
C44   C     C_R   0.879579 0.626515 0.533574 0.538292
C45   C     C_R   0.883663 0.430558 0.421328 0.530971
C46   C     C_R   0.943053 0.438600 0.408761 -0.009979
C47   C     C_R   0.971132 0.538530 0.470309 -0.013693
C48   C     C_R   0.939242 0.632201 0.535418 -0.020155
Cu1   Cu    Cu3+1 0.500000 0.499990 0.640660 0.940783
Cu2   Cu    Cu3+1 0.500000 0.500010 0.359340 0.974018
H1    H     H_    0.954295 0.271254 0.287705 0.192000
H2    H     H_    0.680551 0.434897 0.286397 0.169636
H3    H     H_    0.678625 0.569016 0.707000 0.176389
H4    H     H_    0.782365 0.568832 0.703192 0.160756
H5    H     H_    0.513010 0.110629 0.292040 0.171692
H6    H     H_    0.425317 0.876390 0.964861 0.152341
H7    H     H_    0.512870 0.891136 0.290347 0.162965
H8    H     H_    0.410712 0.520690 0.132584 0.162411
H9    H     H_    0.057044 0.286437 0.270526 0.194051
H10   H     H_    0.693813 0.541018 0.070330 0.152066
H11   H     H_    0.685981 0.386583 0.881986 0.172171
H12   H     H_    0.592006 0.348916 0.780478 0.182147
H13   H     H_    0.412015 0.536091 0.877972 0.178535
H14   H     H_    0.943168 0.803054 0.649782 0.189579
H15   H     H_    0.333359 0.697569 0.435674 0.145715
H16   H     H_    0.206064 0.343394 0.539888 0.172055
H17   H     H_    0.783354 0.462583 0.270615 0.160384
N1    N     N_R   0.852641 0.525063 0.480316 -0.463907
N2    N     N_R   0.149398 0.544495 0.469958 -0.448893
N3    N     N_R   0.500540 0.501210 0.147910 -0.191652
N4    N     N_R   0.500560 0.501290 0.852040 -0.204539
O1    O     O_R   0.500000 0.319640 0.618810 -0.612153
O2    O     O_2   0.857368 0.327795 0.376864 -0.543179
O3    O     O_2   0.151761 0.380871 0.308771 -0.532041
O4    O     O_2   0.148182 0.707721 0.629959 -0.514607
O5    O     O_R   0.500000 0.319660 0.381240 -0.562765
O6    O     O_R   0.417880 0.499950 0.618810 -0.582870
O7    O     O_R   0.417880 0.499980 0.381240 -0.588097
O8    O     O_R   0.500000 0.680340 0.618760 -0.567779
O9    O     O_R   0.500000 0.680360 0.381190 -0.564957
O10   O     O_R   0.582120 0.500020 0.618760 -0.591735
O11   O     O_R   0.582120 0.500050 0.381190 -0.548484
O12   O     O_2   0.848917 0.722478 0.583389 -0.542857
N5    N     N_3   0.412494 0.237618 0.758561 -0.556382
H18   H     H_    0.404780 0.269803 0.659607 0.239461
H19   H     H_    0.435377 0.302204 0.814423 0.251890
C49   C     C_1   0.427573 0.114516 0.011184 0.249412
N6    N     N_1   0.417313 0.162213 0.116393 -0.267104
C50   C     C_1   0.398501 0.774118 0.730112 0.265462
N7    N     N_1   0.363162 0.700530 0.723603 -0.286807
N8    N     N_3   0.603913 0.658278 0.196295 -0.527249
H20   H     H_    0.586151 0.730879 0.140938 0.198809
H21   H     H_    0.645979 0.683048 0.215268 0.208682
C51   C     C_1   0.051984 0.836699 0.674531 0.351113
N9    N     N_1   0.071904 0.920210 0.730178 -0.232421
N10   N     N_3   0.224139 0.747870 0.398570 -0.541293
H22   H     H_    0.242022 0.764386 0.299710 0.220918
H23   H     H_    0.237408 0.818587 0.464062 0.255215
C52   C     C_1   0.313087 0.279649 0.520774 0.246352
N11   N     N_1   0.328172 0.178212 0.518957 -0.264396

loop_
_geom_bond_atom_site_label_1
_geom_bond_atom_site_label_2
_ccdc_geom_bond_type
C11   N10   S    
C49   N6    T    
C4    C9    A    
C17   N2    S    
C40   N4    A    
C19   C20   A    
C42   N3    A    
C44   O12   S    
C42   H8    S    
C43   H13   S    
C7    C8    A    
C22   H4    S    
C13   H15   S    
C45   C46   A    
C2    C46   A    
C5    C47   A    
C26   C27   A    
C29   C30   A    
C18   C24   A    
C36   C37   A    
N5    H19   S    
C30   C31   A    
C15   C16   A    
C1    C31   S    
C45   O2    S    
C18   C19   A    
Cu1   O10   S    
C39   H12   S    
C19   H2    S    
C11   C17   A    
C47   C48   A    
C26   C49   S    
Cu1   O1    S    
N10   H23   S    
C25   N5    S    
C43   N4    A    
C28   C50   S    
C34   O10   A    
C23   O9    A    
C42   C43   A    
C32   H5    S    
C38   H11   S    
C20   C34   S    
C21   C22   A    
N10   H22   S    
C36   C41   A    
Cu2   O7    S    
C38   C39   A    
C1    O1    A    
N5    H18   S    
C15   C52   S    
N8    H20   S    
C27   H6    S    
C16   C17   A    
C18   H17   S    
Cu1   O8    S    
C12   O7    A    
C8    C48   A    
C37   C38   A    
Cu2   O5    S    
N8    H21   S    
C10   O4    S    
C31   C32   A    
C12   O6    A    
C45   N1    A    
C8    H14   S    
C36   N8    S    
C40   C41   A    
C12   C14   S    
C23   C35   S    
C22   C24   A    
C44   N1    A    
C16   H16   S    
C9    O3    S    
C3    C4    A    
C39   C40   A    
Cu2   O11   S    
C25   C30   A    
C7    C51   S    
C46   C47   A    
C28   C29   A    
C33   H7    S    
C1    O5    A    
C9    N2    A    
C4    C5    A    
Cu2   O9    S    
C6    C10   A    
C6    C7    A    
C29   C35   A    
C52   N11   T    
C32   C33   A    
C2    C3    A    
C25   C26   A    
C21   H3    S    
C11   C13   A    
C5    C6    A    
C33   C35   A    
Cu1   O6    S    
Cu2   N3    S    
C51   N9    T    
C37   H10   S    
C2    H1    S    
C24   N1    S    
C10   N2    A    
C20   C21   A    
Cu1   Cu2   S    
Cu1   N4    S    
C27   C28   A    
C14   C15   A    
C34   O11   A    
C23   O8    A    
C50   N7    T    
C13   C14   A    
C44   C48   A    
C41   N3    A    
C3    H9    S    
